REMARK  Name = 45783390
REMARK  8 active torsions:
REMARK  status: ('A' for Active; 'I' for Inactive)
REMARK    1  A    between atoms: O_2  and  C_27
REMARK    2  A    between atoms: O_2  and  C_28
REMARK    3  A    between atoms: N_3  and  C_13
REMARK    4  A    between atoms: N_7  and  C_24
REMARK    5  A    between atoms: C_9  and  C_14
REMARK    6  A    between atoms: C_13  and  C_15
REMARK    7  A    between atoms: C_16  and  C_19
REMARK    8  A    between atoms: C_24  and  C_27
REMARK                            x       y       z     vdW  Elec       q    Type
REMARK                         _______ _______ _______ _____ _____    ______ ____
ROOT
ATOM      1  O   UNL     1      -0.599   2.017   1.686  0.00  0.00    -0.336 OA
ATOM      4  N   UNL     1       0.157  -0.034   1.196  0.00  0.00    -0.190 NA
ATOM      5  N   UNL     1       0.772   2.156   1.436  0.00  0.00    -0.056 NA
ATOM     14  C   UNL     1      -0.878   0.697   1.523  0.00  0.00    +0.245 A 
ATOM     16  C   UNL     1       1.147   0.905   1.154  0.00  0.00    +0.205 A 
ENDROOT
BRANCH  16  19
ATOM      7  N   UNL     1       1.770  -1.264  -0.571  0.00  0.00    -0.326 N 
ATOM      8  N   UNL     1       4.087  -0.845  -0.336  0.00  0.00    -0.240 NA
ATOM     19  C   UNL     1       2.500   0.559   0.828  0.00  0.00    +0.062 A 
ATOM     21  C   UNL     1       2.822  -0.495  -0.011  0.00  0.00    +0.130 A 
ATOM     23  C   UNL     1       3.543   1.303   1.369  0.00  0.00    +0.016 A 
ATOM     25  C   UNL     1       4.858   0.974   1.058  0.00  0.00    +0.020 A 
ATOM     26  C   UNL     1       5.074  -0.099   0.209  0.00  0.00    +0.113 A 
ATOM     29  H   UNL     1       0.866  -0.807  -0.632  0.00  0.00    +0.148 HD
BRANCH   7  24
ATOM     24  C   UNL     1       2.004  -2.366  -1.445  0.00  0.00    +0.131 C 
BRANCH  24  27
ATOM     27  C   UNL     1       0.681  -2.958  -1.901  0.00  0.00    +0.178 C 
BRANCH  27   2
ATOM      2  O   UNL     1      -0.037  -3.438  -0.771  0.00  0.00    -0.381 OA
ATOM     28  C   UNL     1      -1.282  -4.008  -1.149  0.00  0.00    +0.194 C 
ENDBRANCH  27   2
ENDBRANCH  24  27
ENDBRANCH   7  24
ENDBRANCH  16  19
BRANCH  14   9
ATOM      3  N   UNL     1      -2.899  -0.389   0.560  0.00  0.00    -0.287 NA
ATOM      9  C   UNL     1      -2.318   0.280   1.740  0.00  0.00    +0.146 C 
ATOM     10  C   UNL     1      -2.476  -0.738   2.885  0.00  0.00    +0.030 C 
ATOM     11  C   UNL     1      -3.210  -1.920   2.267  0.00  0.00    +0.017 C 
ATOM     12  C   UNL     1      -3.911  -1.317   1.067  0.00  0.00    +0.085 C 
BRANCH   3  13
ATOM     13  C   UNL     1      -3.450   0.542  -0.416  0.00  0.00    +0.121 C 
BRANCH  13  15
ATOM      6  N   UNL     1      -1.246   3.135  -2.076  0.00  0.00    -0.263 NA
ATOM     15  C   UNL     1      -2.375   1.152  -1.277  0.00  0.00    -0.015 A 
ATOM     17  C   UNL     1      -1.538   0.355  -2.050  0.00  0.00    +0.008 A 
ATOM     18  C   UNL     1      -2.190   2.524  -1.325  0.00  0.00    +0.115 A 
ATOM     20  C   UNL     1      -0.555   0.946  -2.836  0.00  0.00    +0.020 A 
ATOM     22  C   UNL     1      -0.451   2.327  -2.814  0.00  0.00    +0.111 A 
ENDBRANCH  13  15
ENDBRANCH   3  13
ENDBRANCH  14   9
TORSDOF 7
