REMARK  Name = 26743270
REMARK  9 active torsions:
REMARK  status: ('A' for Active; 'I' for Inactive)
REMARK    1  A    between atoms: C_8  and  C_14
REMARK    2  A    between atoms: C_9  and  C_12
REMARK    3  A    between atoms: C_12  and  C_15
REMARK    4  A    between atoms: C_14  and  C_16
REMARK    5  A    between atoms: C_18  and  C_20
REMARK    6  A    between atoms: C_19  and  C_21
REMARK    7  A    between atoms: C_19  and  C_25
REMARK    8  A    between atoms: C_19  and  C_26
REMARK    9  A    between atoms: C_19  and  C_27
REMARK                            x       y       z     vdW  Elec       q    Type
REMARK                         _______ _______ _______ _____ _____    ______ ____
ROOT
ATOM      4  N   UNL     1       1.456  -3.298  -0.920  0.00  0.00    -0.316 NA
ATOM      8  C   UNL     1       2.957  -1.286   0.630  0.00  0.00    +0.004 C 
ATOM      9  C   UNL     1       1.435  -1.178   0.373  0.00  0.00    +0.012 C 
ATOM     10  C   UNL     1       3.380  -2.761   0.534  0.00  0.00    +0.019 C 
ATOM     11  C   UNL     1       1.026  -1.899  -0.922  0.00  0.00    +0.085 C 
ATOM     13  C   UNL     1       2.904  -3.421  -0.759  0.00  0.00    +0.081 C 
ATOM     32  H   UNL     1       1.175  -3.739  -1.795  0.00  0.00    +0.122 HD
ENDROOT
BRANCH   9  12
ATOM     12  C   UNL     1       0.929   0.265   0.367  0.00  0.00    +0.064 C 
BRANCH  12  15
ATOM      2  O   UNL     1      -2.362   0.471   1.814  0.00  0.00    -0.354 OA
ATOM      5  N   UNL     1      -0.976   0.439   1.910  0.00  0.00    -0.083 NA
ATOM     15  C   UNL     1      -0.544   0.329   0.651  0.00  0.00    +0.085 A 
ATOM     17  C   UNL     1      -1.602   0.286  -0.274  0.00  0.00    +0.076 A 
ATOM     18  C   UNL     1      -2.722   0.379   0.508  0.00  0.00    +0.167 A 
BRANCH  18  20
ATOM     20  C   UNL     1      -4.133   0.399   0.250  0.00  0.00    +0.020 A 
ATOM     21  C   UNL     1      -6.877   0.436  -0.252  0.00  0.00    -0.042 A 
ATOM     22  C   UNL     1      -4.604   0.310  -1.060  0.00  0.00    +0.012 A 
ATOM     23  C   UNL     1      -5.034   0.507   1.310  0.00  0.00    +0.012 A 
ATOM     28  C   UNL     1      -5.976   0.329  -1.311  0.00  0.00    +0.005 A 
ATOM     29  C   UNL     1      -6.406   0.525   1.059  0.00  0.00    +0.005 A 
BRANCH  21  19
ATOM     19  C   UNL     1      -8.344   0.457  -0.520  0.00  0.00    -0.013 C 
ATOM     25  C   UNL     1      -8.806  -0.849  -1.238  0.00  0.00    +0.015 C 
ATOM     26  C   UNL     1      -8.735   1.659  -1.434  0.00  0.00    +0.015 C 
ATOM     27  C   UNL     1      -9.256   0.582   0.745  0.00  0.00    +0.015 C 
ENDBRANCH  21  19
ENDBRANCH  18  20
ENDBRANCH  12  15
ENDBRANCH   9  12
BRANCH   8  14
ATOM     14  C   UNL     1       3.810  -0.412  -0.298  0.00  0.00    +0.100 C 
BRANCH  14  16
ATOM      1  S   UNL     1       7.880   2.048  -1.743  0.00  0.00    -0.061 S 
ATOM      3  O   UNL     1       5.546  -0.568   1.365  0.00  0.00    -0.275 OA
ATOM      6  N   UNL     1       5.930   0.639  -0.614  0.00  0.00    -0.265 N 
ATOM      7  N   UNL     1       8.061   0.902   0.568  0.00  0.00    -0.233 NA
ATOM     16  C   UNL     1       5.190  -0.139   0.272  0.00  0.00    +0.219 C 
ATOM     24  C   UNL     1       7.256   1.106  -0.452  0.00  0.00    +0.164 A 
ATOM     30  C   UNL     1       9.354   2.208  -0.881  0.00  0.00    +0.068 A 
ATOM     31  C   UNL     1       9.263   1.535   0.320  0.00  0.00    +0.120 A 
ATOM     33  H   UNL     1       5.498   0.923  -1.490  0.00  0.00    +0.157 HD
ENDBRANCH  14  16
ENDBRANCH   8  14
TORSDOF 6
