REMARK  Name = 45783581
REMARK  6 active torsions:
REMARK  status: ('A' for Active; 'I' for Inactive)
REMARK    1  A    between atoms: O_2  and  C_12
REMARK    2  A    between atoms: O_2  and  C_24
REMARK    3  A    between atoms: N_4  and  C_13
REMARK    4  A    between atoms: C_8  and  C_19
REMARK    5  A    between atoms: C_13  and  C_20
REMARK    6  A    between atoms: C_21  and  C_25
REMARK                            x       y       z     vdW  Elec       q    Type
REMARK                         _______ _______ _______ _____ _____    ______ ____
ROOT
ATOM      3  O   UNL     1       1.162  -3.104  -1.237  0.00  0.00    -0.336 OA
ATOM      5  N   UNL     1       1.059  -1.381   0.190  0.00  0.00    -0.190 NA
ATOM      6  N   UNL     1      -0.184  -2.718  -1.188  0.00  0.00    -0.056 NA
ATOM     19  C   UNL     1       1.824  -2.266  -0.397  0.00  0.00    +0.245 A 
ATOM     21  C   UNL     1      -0.164  -1.697  -0.327  0.00  0.00    +0.204 A 
ENDROOT
BRANCH  21  25
ATOM      7  N   UNL     1      -3.732  -0.664  -0.190  0.00  0.00    -0.221 NA
ATOM     24  C   UNL     1      -3.637   0.357   0.690  0.00  0.00    +0.215 A 
ATOM     25  C   UNL     1      -1.346  -0.975   0.040  0.00  0.00    +0.041 A 
ATOM     26  C   UNL     1      -2.451   0.766   1.278  0.00  0.00    +0.068 A 
ATOM     29  C   UNL     1      -1.288   0.082   0.942  0.00  0.00    +0.018 A 
ATOM     30  C   UNL     1      -2.581  -1.306  -0.493  0.00  0.00    +0.126 A 
BRANCH  24   2
ATOM      2  O   UNL     1      -4.797   1.015   1.005  0.00  0.00    -0.473 OA
BRANCH   2  12
ATOM     12  C   UNL     1      -5.986   0.555   0.372  0.00  0.00    +0.175 C 
ATOM     14  C   UNL     1      -6.173   1.282  -0.959  0.00  0.00    +0.044 C 
ATOM     15  C   UNL     1      -7.178   0.769   1.304  0.00  0.00    +0.044 C 
ATOM     16  C   UNL     1      -7.487   0.893  -1.630  0.00  0.00    +0.004 C 
ATOM     17  C   UNL     1      -8.492   0.381   0.632  0.00  0.00    +0.004 C 
ATOM     18  C   UNL     1      -8.678   1.105  -0.699  0.00  0.00    +0.000 C 
ENDBRANCH   2  12
ENDBRANCH  24   2
ENDBRANCH  21  25
BRANCH  19   8
ATOM      4  N   UNL     1       4.039  -1.241   0.089  0.00  0.00    -0.287 NA
ATOM      8  C   UNL     1       3.318  -2.479  -0.271  0.00  0.00    +0.146 C 
ATOM      9  C   UNL     1       3.684  -3.481   0.840  0.00  0.00    +0.030 C 
ATOM     10  C   UNL     1       4.660  -2.738   1.740  0.00  0.00    +0.017 C 
ATOM     11  C   UNL     1       5.223  -1.657   0.841  0.00  0.00    +0.085 C 
BRANCH   4  13
ATOM     13  C   UNL     1       4.382  -0.420  -1.065  0.00  0.00    +0.120 C 
BRANCH  13  20
ATOM      1  F   UNL     1       5.397   4.928   0.391  0.00  0.00    -0.205 F 
ATOM     20  C   UNL     1       4.653   1.008  -0.676  0.00  0.00    -0.033 A 
ATOM     22  C   UNL     1       3.611   1.935  -0.655  0.00  0.00    +0.008 A 
ATOM     23  C   UNL     1       5.947   1.406  -0.337  0.00  0.00    +0.008 A 
ATOM     27  C   UNL     1       3.862   3.259  -0.295  0.00  0.00    +0.038 A 
ATOM     28  C   UNL     1       6.198   2.730   0.023  0.00  0.00    +0.038 A 
ATOM     31  C   UNL     1       5.155   3.656   0.044  0.00  0.00    +0.123 A 
ENDBRANCH  13  20
ENDBRANCH   4  13
ENDBRANCH  19   8
TORSDOF 6
