REMARK  Name = 38030608
REMARK  13 active torsions:
REMARK  status: ('A' for Active; 'I' for Inactive)
REMARK    1  A    between atoms: N_3  and  C_14
REMARK    2  A    between atoms: N_3  and  C_20
REMARK    3  A    between atoms: N_4  and  C_21
REMARK    4  A    between atoms: C_7  and  C_11
REMARK    5  A    between atoms: C_8  and  C_14
REMARK    6  A    between atoms: C_10  and  C_15
REMARK    7  A    between atoms: C_11  and  C_16
REMARK    8  A    between atoms: C_11  and  C_17
REMARK    9  A    between atoms: C_12  and  C_18
REMARK   10  A    between atoms: C_15  and  C_19
REMARK   11  A    between atoms: C_20  and  C_21
REMARK   12  A    between atoms: C_24  and  C_27
REMARK   13  A    between atoms: C_32  and  C_33
REMARK                            x       y       z     vdW  Elec       q    Type
REMARK                         _______ _______ _______ _____ _____    ______ ____
ROOT
ATOM      7  C   UNL     1       0.008   1.881  -1.346  0.00  0.00    +0.000 C 
ATOM      8  C   UNL     1       1.299   2.736  -1.389  0.00  0.00    +0.029 C 
ATOM      9  C   UNL     1      -1.132   2.664  -0.677  0.00  0.00    +0.012 C 
ATOM     10  C   UNL     1      -0.781   3.090   0.761  0.00  0.00    +0.024 C 
ATOM     12  C   UNL     1       0.602   3.704   0.844  0.00  0.00    -0.073 C 
ATOM     13  C   UNL     1       1.513   3.546  -0.132  0.00  0.00    -0.023 C 
ATOM     18  C   UNL     1       0.898   4.543   2.056  0.00  0.00    +0.039 C 
ENDROOT
BRANCH   7  11
ATOM     11  C   UNL     1      -0.423   1.431  -2.746  0.00  0.00    -0.013 C 
ATOM     16  C   UNL     1      -1.188   2.547  -3.451  0.00  0.00    +0.007 C 
ATOM     17  C   UNL     1      -1.271   0.166  -2.660  0.00  0.00    +0.007 C 
ENDBRANCH   7  11
BRANCH   8  14
ATOM     14  C   UNL     1       2.532   1.864  -1.651  0.00  0.00    +0.088 C 
BRANCH  14   3
ATOM      3  N   UNL     1       2.749   0.940  -0.552  0.00  0.00    -0.314 NA
ATOM     34  H   UNL     1       2.877   1.445   0.324  0.00  0.00    +0.122 HD
BRANCH   3  20
ATOM     20  C   UNL     1       3.914   0.098  -0.796  0.00  0.00    +0.096 C 
BRANCH  20  21
ATOM     21  C   UNL     1       4.101  -0.889   0.352  0.00  0.00    +0.099 C 
BRANCH  21   4
ATOM      2  O   UNL     1       7.622  -3.100   0.920  0.00  0.00    -0.377 OA
ATOM      4  N   UNL     1       5.258  -1.745   0.099  0.00  0.00    -0.297 NA
ATOM     22  C   UNL     1       5.200  -2.959   0.924  0.00  0.00    +0.112 C 
ATOM     23  C   UNL     1       6.510  -1.019   0.357  0.00  0.00    +0.112 C 
ATOM     25  C   UNL     1       6.424  -3.829   0.652  0.00  0.00    +0.175 C 
ATOM     26  C   UNL     1       7.702  -1.935   0.097  0.00  0.00    +0.175 C 
ENDBRANCH  21   4
ENDBRANCH  20  21
ENDBRANCH   3  20
ENDBRANCH  14   3
ENDBRANCH   8  14
BRANCH  10  15
ATOM     15  C   UNL     1      -0.919   1.914   1.734  0.00  0.00    +0.105 C 
BRANCH  15  19
ATOM      1  O   UNL     1      -2.436   0.143   1.017  0.00  0.00    -0.420 OA
ATOM      5  N   UNL     1      -3.419   1.768   2.198  0.00  0.00    -0.112 NA
ATOM      6  N   UNL     1      -4.387   0.841   1.860  0.00  0.00    -0.107 NA
ATOM     19  C   UNL     1      -2.297   1.320   1.685  0.00  0.00    +0.218 A 
ATOM     24  C   UNL     1      -3.768  -0.090   1.172  0.00  0.00    +0.248 A 
BRANCH  24  27
ATOM     27  C   UNL     1      -4.269  -1.291   0.570  0.00  0.00    +0.038 A 
ATOM     28  C   UNL     1      -5.623  -1.613   0.677  0.00  0.00    +0.013 A 
ATOM     29  C   UNL     1      -3.404  -2.137  -0.124  0.00  0.00    +0.013 A 
ATOM     30  C   UNL     1      -6.111  -2.780   0.091  0.00  0.00    +0.004 A 
ATOM     31  C   UNL     1      -3.892  -3.305  -0.710  0.00  0.00    +0.004 A 
ATOM     32  C   UNL     1      -5.245  -3.627  -0.603  0.00  0.00    -0.050 A 
ATOM     33  C   UNL     1      -5.767  -4.876  -1.229  0.00  0.00    +0.044 C 
ENDBRANCH  24  27
ENDBRANCH  15  19
ENDBRANCH  10  15
TORSDOF 9
