REMARK  Name = 38027112
REMARK  12 active torsions:
REMARK  status: ('A' for Active; 'I' for Inactive)
REMARK    1  A    between atoms: N_5  and  C_15
REMARK    2  A    between atoms: N_6  and  C_22
REMARK    3  A    between atoms: N_7  and  C_23
REMARK    4  A    between atoms: C_8  and  C_12
REMARK    5  A    between atoms: C_9  and  C_15
REMARK    6  A    between atoms: C_11  and  C_16
REMARK    7  A    between atoms: C_12  and  C_17
REMARK    8  A    between atoms: C_12  and  C_18
REMARK    9  A    between atoms: C_13  and  C_19
REMARK   10  A    between atoms: C_16  and  C_20
REMARK   11  A    between atoms: C_21  and  C_26
REMARK   12  A    between atoms: C_22  and  C_23
REMARK                            x       y       z     vdW  Elec       q    Type
REMARK                         _______ _______ _______ _____ _____    ______ ____
ROOT
ATOM      8  C   UNL     1       1.672   2.287  -0.860  0.00  0.00    +0.000 C 
ATOM      9  C   UNL     1       3.063   2.616  -0.262  0.00  0.00    +0.032 C 
ATOM     10  C   UNL     1       0.562   2.952  -0.033  0.00  0.00    +0.012 C 
ATOM     11  C   UNL     1       0.580   2.498   1.440  0.00  0.00    +0.023 C 
ATOM     13  C   UNL     1       1.977   2.541   2.024  0.00  0.00    -0.073 C 
ATOM     14  C   UNL     1       3.074   2.607   1.249  0.00  0.00    -0.022 C 
ATOM     19  C   UNL     1       2.083   2.552   3.524  0.00  0.00    +0.039 C 
ENDROOT
BRANCH   8  12
ATOM     12  C   UNL     1       1.564   2.726  -2.323  0.00  0.00    -0.013 C 
ATOM     17  C   UNL     1       1.247   4.216  -2.408  0.00  0.00    +0.007 C 
ATOM     18  C   UNL     1       0.503   1.905  -3.048  0.00  0.00    +0.007 C 
ENDBRANCH   8  12
BRANCH   9  15
ATOM     15  C   UNL     1       4.133   1.651  -0.786  0.00  0.00    +0.112 C 
BRANCH  15   5
ATOM      3  O   UNL     1       3.662  -0.663  -2.418  0.00  0.00    -0.270 OA
ATOM      5  N   UNL     1       3.885   0.321  -0.328  0.00  0.00    -0.311 N 
ATOM     21  C   UNL     1       3.665  -0.751  -1.193  0.00  0.00    +0.244 C 
ATOM     34  H   UNL     1       3.964   0.152   0.670  0.00  0.00    +0.149 HD
BRANCH  21  26
ATOM      1  F   UNL     1       2.646  -5.725   1.204  0.00  0.00    -0.205 F 
ATOM     26  C   UNL     1       3.396  -2.067  -0.559  0.00  0.00    +0.037 A 
ATOM     29  C   UNL     1       3.713  -3.245  -1.234  0.00  0.00    +0.016 A 
ATOM     30  C   UNL     1       2.825  -2.124   0.713  0.00  0.00    +0.016 A 
ATOM     31  C   UNL     1       3.460  -4.481  -0.639  0.00  0.00    +0.039 A 
ATOM     32  C   UNL     1       2.571  -3.360   1.308  0.00  0.00    +0.039 A 
ATOM     33  C   UNL     1       2.889  -4.538   0.633  0.00  0.00    +0.123 A 
ENDBRANCH  21  26
ENDBRANCH  15   5
ENDBRANCH   9  15
BRANCH  11  16
ATOM     16  C   UNL     1      -0.038   1.105   1.596  0.00  0.00    +0.103 C 
BRANCH  16  20
ATOM      2  O   UNL     1      -2.191   2.157   1.266  0.00  0.00    -0.276 OA
ATOM      6  N   UNL     1      -2.079  -0.141   1.593  0.00  0.00    -0.314 N 
ATOM     20  C   UNL     1      -1.544   1.132   1.462  0.00  0.00    +0.214 C 
ATOM     35  H   UNL     1      -1.455  -0.928   1.745  0.00  0.00    +0.149 HD
BRANCH   6  22
ATOM     22  C   UNL     1      -3.495  -0.414   1.511  0.00  0.00    +0.119 C 
BRANCH  22  23
ATOM     23  C   UNL     1      -3.917  -0.711   0.079  0.00  0.00    +0.103 C 
BRANCH  23   7
ATOM      4  O   UNL     1      -7.919  -0.702  -1.183  0.00  0.00    -0.377 OA
ATOM      7  N   UNL     1      -5.353  -0.975   0.017  0.00  0.00    -0.297 NA
ATOM     24  C   UNL     1      -5.700  -1.683  -1.222  0.00  0.00    +0.112 C 
ATOM     25  C   UNL     1      -6.117   0.276   0.113  0.00  0.00    +0.112 C 
ATOM     27  C   UNL     1      -7.205  -1.936  -1.271  0.00  0.00    +0.175 C 
ATOM     28  C   UNL     1      -7.612  -0.023   0.035  0.00  0.00    +0.175 C 
ENDBRANCH  23   7
ENDBRANCH  22  23
ENDBRANCH   6  22
ENDBRANCH  16  20
ENDBRANCH  11  16
TORSDOF 9
