REMARK  Name = 28959636
REMARK  10 active torsions:
REMARK  status: ('A' for Active; 'I' for Inactive)
REMARK    1  A    between atoms: O_2  and  C_23
REMARK    2  A    between atoms: O_5  and  C_24
REMARK    3  A    between atoms: O_5  and  C_25
REMARK    4  A    between atoms: N_6  and  C_14
REMARK    5  A    between atoms: C_9  and  C_11
REMARK    6  A    between atoms: C_10  and  C_17
REMARK    7  A    between atoms: C_11  and  C_14
REMARK    8  A    between atoms: C_16  and  C_22
REMARK    9  A    between atoms: C_17  and  C_23
REMARK   10  A    between atoms: C_21  and  C_24
REMARK                            x       y       z     vdW  Elec       q    Type
REMARK                         _______ _______ _______ _____ _____    ______ ____
ROOT
ATOM      1  O   UNL     1       0.692  -3.044   1.548  0.00  0.00    -0.272 OA
ATOM      7  N   UNL     1      -0.771  -2.242  -0.068  0.00  0.00    -0.298 N 
ATOM      9  C   UNL     1      -2.260  -0.475  -0.984  0.00  0.00    +0.011 C 
ATOM     10  C   UNL     1      -3.477  -1.298  -0.491  0.00  0.00    +0.006 C 
ATOM     12  C   UNL     1      -1.066  -1.413  -1.244  0.00  0.00    +0.111 C 
ATOM     13  C   UNL     1      -3.111  -2.189   0.708  0.00  0.00    +0.023 C 
ATOM     15  C   UNL     1      -1.892  -3.056   0.402  0.00  0.00    +0.108 C 
ATOM     21  C   UNL     1       0.462  -2.318   0.577  0.00  0.00    +0.253 C 
ENDROOT
BRANCH   9  11
ATOM     11  C   UNL     1      -1.850   0.658  -0.036  0.00  0.00    +0.021 C 
BRANCH  11  14
ATOM     14  C   UNL     1      -1.136   1.769  -0.794  0.00  0.00    +0.085 C 
BRANCH  14   6
ATOM      6  N   UNL     1      -0.742   2.824   0.129  0.00  0.00    -0.291 NA
ATOM     16  C   UNL     1       0.356   3.653  -0.378  0.00  0.00    +0.143 C 
ATOM     18  C   UNL     1      -1.847   3.736   0.430  0.00  0.00    +0.085 C 
ATOM     19  C   UNL     1       0.133   5.043   0.218  0.00  0.00    +0.029 C 
ATOM     20  C   UNL     1      -1.123   4.906   1.066  0.00  0.00    +0.017 C 
BRANCH  16  22
ATOM      3  O   UNL     1       1.679   2.384   1.150  0.00  0.00    -0.274 OA
ATOM      8  N   UNL     1       2.718   3.317  -0.678  0.00  0.00    -0.328 N 
ATOM     22  C   UNL     1       1.629   3.046   0.117  0.00  0.00    +0.228 C 
ATOM     31  H   UNL     1       2.651   3.877  -1.522  0.00  0.00    +0.145 HD
ATOM     32  H   UNL     1       3.638   2.959  -0.442  0.00  0.00    +0.145 HD
ENDBRANCH  16  22
ENDBRANCH  14   6
ENDBRANCH  11  14
ENDBRANCH   9  11
BRANCH  10  17
ATOM     17  C   UNL     1      -4.696  -0.434  -0.168  0.00  0.00    +0.124 C 
BRANCH  17  23
ATOM      4  O   UNL     1      -6.077  -2.416  -0.491  0.00  0.00    -0.251 OA
ATOM     23  C   UNL     1      -5.971  -1.228  -0.227  0.00  0.00    +0.305 C 
BRANCH  23   2
ATOM      2  O   UNL     1      -7.026  -0.422   0.061  0.00  0.00    -0.481 OA
ATOM     33  H   UNL     1      -7.877  -0.909   0.032  0.00  0.00    +0.295 HD
ENDBRANCH  23   2
ENDBRANCH  17  23
ENDBRANCH  10  17
BRANCH  21  24
ATOM     24  C   UNL     1       1.565  -1.446   0.034  0.00  0.00    +0.324 C 
BRANCH  24   5
ATOM      5  O   UNL     1       2.689  -1.659   0.853  0.00  0.00    -0.483 OA
BRANCH   5  25
ATOM     25  C   UNL     1       3.930  -1.472   0.285  0.00  0.00    +0.121 A 
ATOM     26  C   UNL     1       4.094  -0.545  -0.743  0.00  0.00    +0.045 A 
ATOM     27  C   UNL     1       5.022  -2.211   0.740  0.00  0.00    +0.045 A 
ATOM     28  C   UNL     1       5.351  -0.355  -1.318  0.00  0.00    +0.004 A 
ATOM     29  C   UNL     1       6.279  -2.021   0.165  0.00  0.00    +0.004 A 
ATOM     30  C   UNL     1       6.444  -1.093  -0.863  0.00  0.00    +0.000 A 
ENDBRANCH   5  25
ENDBRANCH  24   5
ENDBRANCH  21  24
TORSDOF 10
