REMARK  Name = 75368649
REMARK  2 active torsions:
REMARK  status: ('A' for Active; 'I' for Inactive)
REMARK    1  A    between atoms: N_2  and  C_6
REMARK    2  A    between atoms: N_4  and  C_17
REMARK                            x       y       z     vdW  Elec       q    Type
REMARK                         _______ _______ _______ _____ _____    ______ ____
ROOT
ATOM      1  O   UNL     1       0.013   2.455   0.539  0.00  0.00    -0.252 OA
ATOM      2  N   UNL     1       0.655   0.283  -0.119  0.00  0.00    -0.281 N 
ATOM      3  N   UNL     1      -1.523   0.827  -0.174  0.00  0.00    -0.278 N 
ATOM      4  N   UNL     1      -3.856  -0.743  -0.210  0.00  0.00    -0.302 NA
ATOM      5  C   UNL     1      -1.466  -0.502  -0.747  0.00  0.00    +0.109 C 
ATOM      7  C   UNL     1      -0.027  -0.945  -0.491  0.00  0.00    +0.133 C 
ATOM      8  C   UNL     1      -2.534  -1.397  -0.120  0.00  0.00    +0.108 C 
ATOM     11  C   UNL     1      -0.252   1.333   0.130  0.00  0.00    +0.305 C 
ATOM     12  C   UNL     1      -2.800   1.503  -0.077  0.00  0.00    +0.125 C 
ATOM     15  C   UNL     1      -3.852   0.552   0.499  0.00  0.00    +0.103 C 
ATOM     17  C   UNL     1      -4.895  -1.618   0.332  0.00  0.00    +0.105 C 
ENDROOT
BRANCH   2   6
ATOM      6  C   UNL     1       2.080   0.328   0.106  0.00  0.00    +0.078 C 
ATOM      9  C   UNL     1       2.499  -0.716   1.143  0.00  0.00    +0.022 C 
ATOM     10  C   UNL     1       2.837   0.139  -1.211  0.00  0.00    +0.022 C 
ATOM     13  C   UNL     1       4.010  -0.723   1.356  0.00  0.00    +0.002 C 
ATOM     14  C   UNL     1       4.348   0.131  -0.996  0.00  0.00    +0.002 C 
ATOM     16  C   UNL     1       4.763  -0.909   0.042  0.00  0.00    +0.000 C 
ENDBRANCH   2   6
TORSDOF 1
