REMARK  Name = 38027120
REMARK  14 active torsions:
REMARK  status: ('A' for Active; 'I' for Inactive)
REMARK    1  A    between atoms: O_4  and  C_24
REMARK    2  A    between atoms: O_4  and  C_29
REMARK    3  A    between atoms: N_5  and  C_15
REMARK    4  A    between atoms: N_6  and  C_22
REMARK    5  A    between atoms: N_7  and  C_23
REMARK    6  A    between atoms: C_8  and  C_12
REMARK    7  A    between atoms: C_9  and  C_15
REMARK    8  A    between atoms: C_11  and  C_16
REMARK    9  A    between atoms: C_12  and  C_17
REMARK   10  A    between atoms: C_12  and  C_18
REMARK   11  A    between atoms: C_13  and  C_19
REMARK   12  A    between atoms: C_16  and  C_20
REMARK   13  A    between atoms: C_21  and  C_24
REMARK   14  A    between atoms: C_22  and  C_23
REMARK                            x       y       z     vdW  Elec       q    Type
REMARK                         _______ _______ _______ _____ _____    ______ ____
ROOT
ATOM      8  C   UNL     1       3.156  -0.098  -0.938  0.00  0.00    +0.000 C 
ATOM      9  C   UNL     1       4.070  -1.130  -0.231  0.00  0.00    +0.032 C 
ATOM     10  C   UNL     1       3.418   1.314  -0.392  0.00  0.00    +0.012 C 
ATOM     11  C   UNL     1       3.174   1.405   1.126  0.00  0.00    +0.023 C 
ATOM     13  C   UNL     1       3.827   0.259   1.872  0.00  0.00    -0.073 C 
ATOM     14  C   UNL     1       4.233  -0.860   1.247  0.00  0.00    -0.022 C 
ATOM     19  C   UNL     1       4.045   0.448   3.348  0.00  0.00    +0.039 C 
ENDROOT
BRANCH   8  12
ATOM     12  C   UNL     1       3.353  -0.111  -2.457  0.00  0.00    -0.013 C 
ATOM     17  C   UNL     1       2.106   0.415  -3.160  0.00  0.00    +0.007 C 
ATOM     18  C   UNL     1       4.578   0.712  -2.842  0.00  0.00    +0.007 C 
ENDBRANCH   8  12
BRANCH   9  15
ATOM     15  C   UNL     1       3.553  -2.558  -0.435  0.00  0.00    +0.112 C 
BRANCH  15   5
ATOM      2  O   UNL     1       1.045  -3.295  -1.673  0.00  0.00    -0.272 OA
ATOM      5  N   UNL     1       2.291  -2.739   0.212  0.00  0.00    -0.312 N 
ATOM     21  C   UNL     1       1.125  -3.096  -0.464  0.00  0.00    +0.251 C 
ATOM     35  H   UNL     1       2.255  -2.655   1.224  0.00  0.00    +0.149 HD
BRANCH  21  24
ATOM     24  C   UNL     1      -0.062  -3.219   0.467  0.00  0.00    +0.324 C 
BRANCH  24   4
ATOM      4  O   UNL     1      -1.220  -3.594  -0.249  0.00  0.00    -0.483 OA
BRANCH   4  29
ATOM     29  C   UNL     1      -2.429  -3.159   0.240  0.00  0.00    +0.121 A 
ATOM     30  C   UNL     1      -2.595  -2.956   1.610  0.00  0.00    +0.045 A 
ATOM     31  C   UNL     1      -3.490  -2.921  -0.633  0.00  0.00    +0.045 A 
ATOM     32  C   UNL     1      -3.821  -2.515   2.107  0.00  0.00    +0.004 A 
ATOM     33  C   UNL     1      -4.716  -2.479  -0.137  0.00  0.00    +0.004 A 
ATOM     34  C   UNL     1      -4.882  -2.276   1.233  0.00  0.00    +0.000 A 
ENDBRANCH   4  29
ENDBRANCH  24   4
ENDBRANCH  21  24
ENDBRANCH  15   5
ENDBRANCH   9  15
BRANCH  11  16
ATOM     16  C   UNL     1       1.676   1.482   1.441  0.00  0.00    +0.103 C 
BRANCH  16  20
ATOM      1  O   UNL     1       1.753   3.769   0.656  0.00  0.00    -0.276 OA
ATOM      6  N   UNL     1      -0.264   2.879   1.390  0.00  0.00    -0.314 N 
ATOM     20  C   UNL     1       1.094   2.838   1.110  0.00  0.00    +0.214 C 
ATOM     36  H   UNL     1      -0.722   2.049   1.755  0.00  0.00    +0.149 HD
BRANCH   6  22
ATOM     22  C   UNL     1      -1.079   4.051   1.173  0.00  0.00    +0.119 C 
BRANCH  22  23
ATOM     23  C   UNL     1      -1.675   4.057  -0.228  0.00  0.00    +0.103 C 
BRANCH  23   7
ATOM      3  O   UNL     1      -4.881   1.600  -1.368  0.00  0.00    -0.377 OA
ATOM      7  N   UNL     1      -2.521   2.881  -0.424  0.00  0.00    -0.297 NA
ATOM     25  C   UNL     1      -2.738   2.628  -1.855  0.00  0.00    +0.112 C 
ATOM     26  C   UNL     1      -3.811   3.048   0.259  0.00  0.00    +0.112 C 
ATOM     27  C   UNL     1      -3.633   1.405  -2.035  0.00  0.00    +0.175 C 
ATOM     28  C   UNL     1      -4.681   1.815   0.030  0.00  0.00    +0.175 C 
ENDBRANCH  23   7
ENDBRANCH  22  23
ENDBRANCH   6  22
ENDBRANCH  16  20
ENDBRANCH  11  16
TORSDOF 11
