REMARK  Name = 7049255
REMARK  9 active torsions:
REMARK  status: ('A' for Active; 'I' for Inactive)
REMARK    1  A    between atoms: O_1  and  C_12
REMARK    2  A    between atoms: O_2  and  C_14
REMARK    3  A    between atoms: O_3  and  C_16
REMARK    4  A    between atoms: N_7  and  C_11
REMARK    5  A    between atoms: N_8  and  C_17
REMARK    6  A    between atoms: N_9  and  C_25
REMARK    7  A    between atoms: C_12  and  C_18
REMARK    8  A    between atoms: C_25  and  C_26
REMARK    9  A    between atoms: C_25  and  C_27
REMARK                            x       y       z     vdW  Elec       q    Type
REMARK                         _______ _______ _______ _____ _____    ______ ____
ROOT
ATOM     11  C   UNL     1      -0.157  -1.644  -0.073  0.00  0.00    +0.109 C 
ATOM     12  C   UNL     1       2.210  -1.072  -0.801  0.00  0.00    +0.146 C 
ATOM     13  C   UNL     1       0.819  -0.529  -0.465  0.00  0.00    +0.069 C 
ATOM     14  C   UNL     1       0.402  -2.521   1.056  0.00  0.00    +0.163 C 
ATOM     15  C   UNL     1       2.762  -1.926   0.338  0.00  0.00    +0.078 C 
ATOM     16  C   UNL     1       1.802  -3.049   0.733  0.00  0.00    +0.148 C 
ENDROOT
BRANCH  11   7
ATOM      5  O   UNL     1      -2.356  -1.017  -1.814  0.00  0.00    -0.253 OA
ATOM      7  N   UNL     1      -1.427  -1.069   0.311  0.00  0.00    -0.294 N 
ATOM      8  N   UNL     1      -3.552  -0.249   0.022  0.00  0.00    -0.297 N 
ATOM     24  C   UNL     1      -2.438  -0.799  -0.606  0.00  0.00    +0.300 C 
ATOM     28  H   UNL     1      -1.561  -0.783   1.276  0.00  0.00    +0.151 HD
ATOM     30  H   UNL     1      -3.486  -0.044   1.014  0.00  0.00    +0.151 HD
BRANCH   8  17
ATOM     17  C   UNL     1      -4.753   0.131  -0.688  0.00  0.00    +0.074 C 
ATOM     19  C   UNL     1      -4.658   1.571  -1.203  0.00  0.00    +0.022 C 
ATOM     20  C   UNL     1      -5.995  -0.065   0.188  0.00  0.00    +0.022 C 
ATOM     21  C   UNL     1      -4.752   2.602  -0.078  0.00  0.00    +0.002 C 
ATOM     22  C   UNL     1      -6.088   0.969   1.311  0.00  0.00    +0.002 C 
ATOM     23  C   UNL     1      -6.002   2.394   0.773  0.00  0.00    +0.000 C 
ENDBRANCH   8  17
ENDBRANCH  11   7
BRANCH  12  18
ATOM      4  O   UNL     1       3.731   0.135  -2.192  0.00  0.00    -0.273 OA
ATOM      9  N   UNL     1       3.297   0.925  -0.046  0.00  0.00    -0.302 N 
ATOM     18  C   UNL     1       3.155   0.052  -1.110  0.00  0.00    +0.245 C 
ATOM     33  H   UNL     1       2.805   0.748   0.824  0.00  0.00    +0.150 HD
BRANCH   9  25
ATOM     25  C   UNL     1       4.167   2.078  -0.080  0.00  0.00    +0.156 C 
ATOM     26  C   UNL     1       5.560   1.728   0.421  0.00  0.00    +0.038 C 
BRANCH  25  27
ATOM      6  O   UNL     1       2.887   2.956   1.788  0.00  0.00    -0.274 OA
ATOM     10  N   UNL     1       3.822   4.439   0.305  0.00  0.00    -0.328 N 
ATOM     27  C   UNL     1       3.541   3.172   0.771  0.00  0.00    +0.231 C 
ATOM     34  H   UNL     1       3.474   5.261   0.788  0.00  0.00    +0.145 HD
ATOM     35  H   UNL     1       4.381   4.604  -0.526  0.00  0.00    +0.145 HD
ENDBRANCH  25  27
ENDBRANCH   9  25
ENDBRANCH  12  18
BRANCH  12   1
ATOM      1  O   UNL     1       2.165  -1.853  -1.989  0.00  0.00    -0.379 OA
ATOM     29  H   UNL     1       3.037  -2.264  -2.121  0.00  0.00    +0.211 HD
ENDBRANCH  12   1
BRANCH  14   2
ATOM      2  O   UNL     1      -0.456  -3.652   1.236  0.00  0.00    -0.387 OA
ATOM     31  H   UNL     1      -0.493  -4.139   0.396  0.00  0.00    +0.210 HD
ENDBRANCH  14   2
BRANCH  16   3
ATOM      3  O   UNL     1       2.314  -3.708   1.892  0.00  0.00    -0.389 OA
ATOM     32  H   UNL     1       3.197  -4.048   1.668  0.00  0.00    +0.210 HD
ENDBRANCH  16   3
TORSDOF 8
