REMARK  Name = 7144115
REMARK  5 active torsions:
REMARK  status: ('A' for Active; 'I' for Inactive)
REMARK    1  A    between atoms: S_1  and  N_6
REMARK    2  A    between atoms: S_1  and  C_19
REMARK    3  A    between atoms: O_5  and  C_29
REMARK    4  A    between atoms: O_5  and  C_31
REMARK    5  A    between atoms: C_15  and  C_20
REMARK                            x       y       z     vdW  Elec       q    Type
REMARK                         _______ _______ _______ _____ _____    ______ ____
ROOT
ATOM      4  O   UNL     1       0.696   5.005   0.445  0.00  0.00    -0.268 OA
ATOM      6  N   UNL     1      -1.798   0.738   0.131  0.00  0.00    -0.176 NA
ATOM      7  N   UNL     1       0.517   2.814  -0.364  0.00  0.00    -0.311 N 
ATOM      8  C   UNL     1      -1.401   2.106  -1.912  0.00  0.00    +0.025 C 
ATOM      9  C   UNL     1       0.279   0.459  -1.210  0.00  0.00    +0.053 C 
ATOM     10  C   UNL     1      -0.410   1.074  -2.426  0.00  0.00    +0.017 C 
ATOM     11  C   UNL     1      -2.451   1.451  -1.003  0.00  0.00    +0.114 C 
ATOM     12  C   UNL     1      -0.771  -0.242  -0.327  0.00  0.00    +0.119 C 
ATOM     13  C   UNL     1      -0.625   3.214  -1.198  0.00  0.00    +0.130 C 
ATOM     14  C   UNL     1       1.049   1.510  -0.407  0.00  0.00    +0.034 A 
ATOM     15  C   UNL     1       2.194   1.225   0.268  0.00  0.00    +0.002 A 
ATOM     16  C   UNL     1       1.110   3.847   0.384  0.00  0.00    +0.252 A 
ATOM     17  C   UNL     1       2.831   2.264   1.054  0.00  0.00    +0.015 A 
ATOM     18  C   UNL     1       2.336   3.499   1.137  0.00  0.00    +0.071 A 
ENDROOT
BRANCH  15  20
ATOM     20  C   UNL     1       2.801  -0.123   0.236  0.00  0.00    -0.016 A 
ATOM     23  C   UNL     1       2.424  -1.073   1.180  0.00  0.00    +0.012 A 
ATOM     24  C   UNL     1       3.747  -0.432  -0.737  0.00  0.00    +0.012 A 
ATOM     25  C   UNL     1       2.998  -2.345   1.151  0.00  0.00    +0.046 A 
ATOM     26  C   UNL     1       4.320  -1.703  -0.766  0.00  0.00    +0.046 A 
ATOM     29  C   UNL     1       3.946  -2.659   0.177  0.00  0.00    +0.120 A 
BRANCH  29   5
ATOM      5  O   UNL     1       4.506  -3.900   0.149  0.00  0.00    -0.495 OA
ATOM     31  C   UNL     1       5.468  -4.154  -0.873  0.00  0.00    +0.277 C 
ENDBRANCH  29   5
ENDBRANCH  15  20
BRANCH   6   1
ATOM      1  S   UNL     1      -2.848   0.190   1.365  0.00  0.00    +0.061 S 
ATOM      2  O   UNL     1      -3.883   1.179   1.582  0.00  0.00    -0.153 OA
ATOM      3  O   UNL     1      -2.057  -0.314   2.468  0.00  0.00    -0.153 OA
BRANCH   1  19
ATOM     19  C   UNL     1      -3.587  -1.193   0.552  0.00  0.00    +0.105 A 
ATOM     21  C   UNL     1      -2.996  -2.440   0.665  0.00  0.00    +0.028 A 
ATOM     22  C   UNL     1      -4.744  -1.006  -0.186  0.00  0.00    +0.028 A 
ATOM     27  C   UNL     1      -3.578  -3.532   0.021  0.00  0.00    +0.002 A 
ATOM     28  C   UNL     1      -5.326  -2.098  -0.830  0.00  0.00    +0.002 A 
ATOM     30  C   UNL     1      -4.744  -3.361  -0.726  0.00  0.00    +0.000 A 
ENDBRANCH   1  19
ENDBRANCH   6   1
TORSDOF 4
