REMARK  Name = 25314986
REMARK  6 active torsions:
REMARK  status: ('A' for Active; 'I' for Inactive)
REMARK    1  A    between atoms: O_3  and  C_10
REMARK    2  A    between atoms: N_5  and  C_9
REMARK    3  A    between atoms: N_6  and  C_11
REMARK    4  A    between atoms: N_7  and  C_20
REMARK    5  A    between atoms: N_8  and  C_23
REMARK    6  A    between atoms: C_23  and  C_27
REMARK                            x       y       z     vdW  Elec       q    Type
REMARK                         _______ _______ _______ _____ _____    ______ ____
ROOT
ATOM      1  O   UNL     1       2.069  -1.806  -1.507  0.00  0.00    -0.342 OA
ATOM      2  O   UNL     1       2.880  -3.335   0.037  0.00  0.00    -0.347 OA
ATOM      9  C   UNL     1       1.256  -1.695   0.761  0.00  0.00    +0.144 C 
ATOM     10  C   UNL     1       2.386  -0.711   1.138  0.00  0.00    +0.159 C 
ATOM     11  C   UNL     1       3.256  -0.282  -0.064  0.00  0.00    +0.136 C 
ATOM     12  C   UNL     1       1.706  -2.621  -0.384  0.00  0.00    +0.270 C 
ATOM     13  C   UNL     1       3.385  -1.377  -1.142  0.00  0.00    +0.170 C 
ATOM     14  C   UNL     1       3.969  -2.682  -0.634  0.00  0.00    +0.196 C 
ENDROOT
BRANCH  11   6
ATOM      4  O   UNL     1       3.881   2.436   0.677  0.00  0.00    -0.253 OA
ATOM      6  N   UNL     1       2.725   0.928  -0.656  0.00  0.00    -0.291 N 
ATOM      8  N   UNL     1       2.428   3.182  -0.970  0.00  0.00    -0.300 N 
ATOM     19  C   UNL     1       3.085   2.202  -0.232  0.00  0.00    +0.300 C 
ATOM     28  H   UNL     1       2.000   0.841  -1.362  0.00  0.00    +0.151 HD
ATOM     30  H   UNL     1       1.780   2.894  -1.697  0.00  0.00    +0.150 HD
BRANCH   8  23
ATOM     23  C   UNL     1       2.617   4.595  -0.739  0.00  0.00    +0.102 C 
ATOM     27  C   UNL     1       1.805   5.077   0.445  0.00  0.00    +0.024 C 
ENDBRANCH   8  23
ENDBRANCH  11   6
BRANCH   9   5
ATOM      5  N   UNL     1       0.058  -0.956   0.358  0.00  0.00    -0.290 NA
ATOM      7  N   UNL     1      -2.742  -0.413   0.208  0.00  0.00    -0.327 N 
ATOM     15  C   UNL     1      -0.669  -0.473   1.538  0.00  0.00    +0.104 C 
ATOM     16  C   UNL     1      -0.820  -1.804  -0.458  0.00  0.00    +0.104 C 
ATOM     17  C   UNL     1      -1.895   0.349   1.130  0.00  0.00    +0.120 C 
ATOM     18  C   UNL     1      -2.049  -1.026  -0.932  0.00  0.00    +0.120 C 
BRANCH   7  20
ATOM     20  C   UNL     1      -4.086  -0.058   0.047  0.00  0.00    +0.030 A 
ATOM     21  C   UNL     1      -4.481   1.270   0.207  0.00  0.00    +0.023 A 
ATOM     22  C   UNL     1      -5.031  -1.033  -0.273  0.00  0.00    +0.023 A 
ATOM     24  C   UNL     1      -5.821   1.623   0.047  0.00  0.00    +0.002 A 
ATOM     25  C   UNL     1      -6.371  -0.680  -0.433  0.00  0.00    +0.002 A 
ATOM     26  C   UNL     1      -6.766   0.648  -0.273  0.00  0.00    +0.000 A 
ENDBRANCH   7  20
ENDBRANCH   9   5
BRANCH  10   3
ATOM      3  O   UNL     1       3.225  -1.358   2.105  0.00  0.00    -0.388 OA
ATOM     29  H   UNL     1       3.898  -0.716   2.387  0.00  0.00    +0.210 HD
ENDBRANCH  10   3
TORSDOF 5
