REMARK  Name = 26744678
REMARK  7 active torsions:
REMARK  status: ('A' for Active; 'I' for Inactive)
REMARK    1  A    between atoms: O_3  and  C_12
REMARK    2  A    between atoms: O_4  and  C_13
REMARK    3  A    between atoms: N_9  and  C_16
REMARK    4  A    between atoms: C_11  and  C_15
REMARK    5  A    between atoms: C_14  and  C_16
REMARK    6  A    between atoms: C_15  and  C_17
REMARK    7  A    between atoms: C_23  and  C_25
REMARK                            x       y       z     vdW  Elec       q    Type
REMARK                         _______ _______ _______ _____ _____    ______ ____
ROOT
ATOM      2  O   UNL     1      -3.765  -0.732  -0.970  0.00  0.00    -0.366 OA
ATOM     11  C   UNL     1      -3.410  -1.837  -0.108  0.00  0.00    +0.159 C 
ATOM     12  C   UNL     1      -4.422  -1.836   1.032  0.00  0.00    +0.175 C 
ATOM     13  C   UNL     1      -4.796  -0.371   1.120  0.00  0.00    +0.176 C 
ATOM     14  C   UNL     1      -4.816   0.027  -0.346  0.00  0.00    +0.167 C 
ENDROOT
BRANCH  12   3
ATOM      3  O   UNL     1      -5.550  -2.611   0.624  0.00  0.00    -0.387 OA
ATOM     34  H   UNL     1      -5.258  -3.536   0.557  0.00  0.00    +0.210 HD
ENDBRANCH  12   3
BRANCH  13   4
ATOM      4  O   UNL     1      -6.040  -0.148   1.748  0.00  0.00    -0.387 OA
ATOM     35  H   UNL     1      -5.994  -0.539   2.636  0.00  0.00    +0.210 HD
ENDBRANCH  13   4
BRANCH  11  15
ATOM     15  C   UNL     1      -1.979  -1.619   0.364  0.00  0.00    +0.130 C 
BRANCH  15  17
ATOM      5  O   UNL     1      -1.444  -2.425  -1.804  0.00  0.00    -0.276 OA
ATOM      7  N   UNL     1       0.341  -1.807  -0.451  0.00  0.00    -0.298 N 
ATOM      8  N   UNL     1       3.158  -1.270  -0.052  0.00  0.00    -0.312 N 
ATOM     10  N   UNL     1       5.167  -1.570   1.152  0.00  0.00    -0.240 NA
ATOM     17  C   UNL     1      -1.013  -1.988  -0.735  0.00  0.00    +0.218 C 
ATOM     18  C   UNL     1       1.340  -2.146  -1.462  0.00  0.00    +0.126 C 
ATOM     19  C   UNL     1       0.851  -1.278   0.816  0.00  0.00    +0.126 C 
ATOM     20  C   UNL     1       2.560  -1.231  -1.389  0.00  0.00    +0.125 C 
ATOM     21  C   UNL     1       2.307  -1.662   1.075  0.00  0.00    +0.125 C 
ATOM     22  C   UNL     1       4.506  -0.975   0.134  0.00  0.00    +0.121 A 
ATOM     24  C   UNL     1       5.087  -0.080  -0.751  0.00  0.00    +0.043 A 
ATOM     26  C   UNL     1       6.433   0.224  -0.579  0.00  0.00    +0.005 A 
ATOM     27  C   UNL     1       6.474  -1.250   1.288  0.00  0.00    +0.113 A 
ATOM     28  C   UNL     1       7.146  -0.368   0.458  0.00  0.00    +0.020 A 
ENDBRANCH  15  17
ENDBRANCH  11  15
BRANCH  14  16
ATOM     16  C   UNL     1      -4.579   1.510  -0.571  0.00  0.00    +0.138 C 
BRANCH  16   9
ATOM      6  O   UNL     1      -2.080   1.530  -1.985  0.00  0.00    -0.270 OA
ATOM      9  N   UNL     1      -3.306   1.915  -0.053  0.00  0.00    -0.309 N 
ATOM     23  C   UNL     1      -2.139   1.893  -0.813  0.00  0.00    +0.244 C 
ATOM     36  H   UNL     1      -3.292   2.278   0.894  0.00  0.00    +0.149 HD
BRANCH  23  25
ATOM      1  F   UNL     1       2.337   3.790  -0.910  0.00  0.00    -0.205 F 
ATOM     25  C   UNL     1      -0.896   2.319  -0.121  0.00  0.00    +0.039 A 
ATOM     29  C   UNL     1       0.158   2.865  -0.855  0.00  0.00    +0.051 A 
ATOM     30  C   UNL     1      -0.781   2.172   1.261  0.00  0.00    +0.013 A 
ATOM     31  C   UNL     1       1.326   3.265  -0.205  0.00  0.00    +0.124 A 
ATOM     32  C   UNL     1       0.387   2.573   1.910  0.00  0.00    +0.004 A 
ATOM     33  C   UNL     1       1.440   3.119   1.177  0.00  0.00    +0.038 A 
ENDBRANCH  23  25
ENDBRANCH  16   9
ENDBRANCH  14  16
TORSDOF 7
