REMARK  Name = 45784207
REMARK  4 active torsions:
REMARK  status: ('A' for Active; 'I' for Inactive)
REMARK    1  A    between atoms: N_4  and  C_11
REMARK    2  A    between atoms: N_6  and  C_16
REMARK    3  A    between atoms: C_7  and  C_12
REMARK    4  A    between atoms: C_11  and  C_13
REMARK                            x       y       z     vdW  Elec       q    Type
REMARK                         _______ _______ _______ _____ _____    ______ ____
ROOT
ATOM      4  N   UNL     1      -1.181   0.159   0.052  0.00  0.00    -0.297 NA
ATOM      7  C   UNL     1       1.016  -0.248   0.765  0.00  0.00    +0.090 C 
ATOM      8  C   UNL     1       0.408   0.894   1.597  0.00  0.00    +0.029 C 
ATOM      9  C   UNL     1       0.084  -0.383  -0.447  0.00  0.00    +0.097 C 
ATOM     10  C   UNL     1      -0.807   1.357   0.804  0.00  0.00    +0.085 C 
ENDROOT
BRANCH   7  12
ATOM      1  O   UNL     1       3.334  -0.999   0.819  0.00  0.00    -0.439 OA
ATOM      5  N   UNL     1       2.992   0.922  -0.334  0.00  0.00    -0.213 NA
ATOM     12  C   UNL     1       2.463  -0.050   0.376  0.00  0.00    +0.201 A 
ATOM     14  C   UNL     1       4.539  -0.579   0.334  0.00  0.00    +0.155 A 
ATOM     15  C   UNL     1       4.326   0.597  -0.371  0.00  0.00    +0.110 A 
ATOM     18  C   UNL     1       5.776  -1.192   0.496  0.00  0.00    +0.048 A 
ATOM     19  C   UNL     1       5.421   1.234  -0.973  0.00  0.00    +0.031 A 
ATOM     23  C   UNL     1       6.857  -0.543  -0.111  0.00  0.00    +0.004 A 
ATOM     24  C   UNL     1       6.686   0.645  -0.831  0.00  0.00    +0.002 A 
ENDBRANCH   7  12
BRANCH   4  11
ATOM     11  C   UNL     1      -2.123   0.449  -1.019  0.00  0.00    +0.121 C 
BRANCH  11  13
ATOM     13  C   UNL     1      -3.532   0.580  -0.507  0.00  0.00    -0.003 A 
ATOM     16  C   UNL     1      -4.286  -0.541  -0.161  0.00  0.00    +0.131 A 
ATOM     17  C   UNL     1      -4.082   1.856  -0.382  0.00  0.00    +0.007 A 
ATOM     20  C   UNL     1      -5.590  -0.387   0.310  0.00  0.00    +0.033 A 
ATOM     21  C   UNL     1      -5.386   2.010   0.089  0.00  0.00    +0.000 A 
ATOM     22  C   UNL     1      -6.140   0.889   0.435  0.00  0.00    +0.002 A 
BRANCH  16   6
ATOM      2  O   UNL     1      -3.894  -2.472  -1.359  0.00  0.00    -0.126 OA
ATOM      3  O   UNL     1      -3.136  -2.347   0.697  0.00  0.00    -0.126 OA
ATOM      6  N   UNL     1      -3.745  -1.851  -0.280  0.00  0.00    +0.057 N 
ENDBRANCH  16   6
ENDBRANCH  11  13
ENDBRANCH   4  11
TORSDOF 4
