REMARK  Name = 7164959
REMARK  9 active torsions:
REMARK  status: ('A' for Active; 'I' for Inactive)
REMARK    1  A    between atoms: N_6  and  C_18
REMARK    2  A    between atoms: N_10  and  C_28
REMARK    3  A    between atoms: C_11  and  C_14
REMARK    4  A    between atoms: C_14  and  C_18
REMARK    5  A    between atoms: C_18  and  C_24
REMARK    6  A    between atoms: C_19  and  C_21
REMARK    7  A    between atoms: C_25  and  C_27
REMARK    8  A    between atoms: C_28  and  C_30
REMARK    9  A    between atoms: C_28  and  C_31
REMARK                            x       y       z     vdW  Elec       q    Type
REMARK                         _______ _______ _______ _____ _____    ______ ____
ROOT
ATOM      4  O   UNL     1       3.113  -2.012  -0.858  0.00  0.00    -0.269 OA
ATOM      5  O   UNL     1      -2.014   2.675  -1.173  0.00  0.00    -0.253 OA
ATOM      7  N   UNL     1       2.360   0.171  -0.658  0.00  0.00    -0.283 N 
ATOM      8  N   UNL     1       0.164   2.091  -0.611  0.00  0.00    -0.282 N 
ATOM     10  N   UNL     1      -0.931   3.889   0.454  0.00  0.00    -0.297 N 
ATOM     19  C   UNL     1       1.009  -0.201  -1.085  0.00  0.00    +0.179 C 
ATOM     20  C   UNL     1       0.193   0.992  -1.579  0.00  0.00    +0.141 C 
ATOM     22  C   UNL     1       2.602   1.596  -0.392  0.00  0.00    +0.128 C 
ATOM     23  C   UNL     1       1.380   2.304   0.183  0.00  0.00    +0.128 C 
ATOM     25  C   UNL     1       3.360  -0.826  -0.628  0.00  0.00    +0.254 C 
ATOM     26  C   UNL     1      -1.001   2.873  -0.495  0.00  0.00    +0.303 C 
ATOM     37  H   UNL     1      -0.144   3.936   1.090  0.00  0.00    +0.150 HD
ENDROOT
BRANCH  25  27
ATOM      1  S   UNL     1       5.489  -1.079   1.074  0.00  0.00    -0.092 S 
ATOM     27  C   UNL     1       4.719  -0.406  -0.300  0.00  0.00    +0.074 A 
ATOM     29  C   UNL     1       5.527   0.496  -0.956  0.00  0.00    +0.021 A 
ATOM     32  C   UNL     1       6.796   0.636  -0.322  0.00  0.00    +0.008 A 
ATOM     33  C   UNL     1       6.908  -0.163   0.794  0.00  0.00    +0.046 A 
ENDBRANCH  25  27
BRANCH  19  21
ATOM      2  O   UNL     1       0.563  -0.523   1.241  0.00  0.00    -0.274 OA
ATOM      6  N   UNL     1      -0.549  -1.852  -0.313  0.00  0.00    -0.302 N 
ATOM     21  C   UNL     1       0.326  -0.855   0.083  0.00  0.00    +0.236 C 
ATOM     34  H   UNL     1      -0.619  -2.086  -1.300  0.00  0.00    +0.150 HD
BRANCH   6  18
ATOM     18  C   UNL     1      -1.313  -2.649   0.619  0.00  0.00    +0.159 C 
BRANCH  18  24
ATOM      3  O   UNL     1       0.336  -4.411   0.339  0.00  0.00    -0.274 OA
ATOM      9  N   UNL     1      -0.693  -4.188   2.380  0.00  0.00    -0.328 N 
ATOM     24  C   UNL     1      -0.459  -3.825   1.071  0.00  0.00    +0.231 C 
ATOM     35  H   UNL     1      -0.194  -4.964   2.802  0.00  0.00    +0.145 HD
ATOM     36  H   UNL     1      -1.368  -3.709   2.968  0.00  0.00    +0.145 HD
ENDBRANCH  18  24
BRANCH  18  14
ATOM     14  C   UNL     1      -2.663  -3.084   0.038  0.00  0.00    +0.035 C 
BRANCH  14  11
ATOM     11  C   UNL     1      -3.533  -1.930  -0.457  0.00  0.00    -0.009 C 
ATOM     12  C   UNL     1      -3.818  -0.940   0.681  0.00  0.00    +0.003 C 
ATOM     13  C   UNL     1      -4.841  -2.459  -1.061  0.00  0.00    +0.003 C 
ATOM     15  C   UNL     1      -4.731   0.195   0.224  0.00  0.00    +0.000 C 
ATOM     16  C   UNL     1      -5.752  -1.321  -1.515  0.00  0.00    +0.000 C 
ATOM     17  C   UNL     1      -6.026  -0.334  -0.384  0.00  0.00    +0.000 C 
ENDBRANCH  14  11
ENDBRANCH  18  14
ENDBRANCH   6  18
ENDBRANCH  19  21
BRANCH  10  28
ATOM     28  C   UNL     1      -2.037   4.784   0.712  0.00  0.00    +0.068 C 
ATOM     30  C   UNL     1      -2.962   4.199   1.771  0.00  0.00    +0.027 C 
ATOM     31  C   UNL     1      -1.521   6.157   1.125  0.00  0.00    +0.027 C 
ENDBRANCH  10  28
TORSDOF 7
