REMARK  Name = 75536524
REMARK  13 active torsions:
REMARK  status: ('A' for Active; 'I' for Inactive)
REMARK    1  A    between atoms: O_2  and  C_9
REMARK    2  A    between atoms: O_4  and  C_26
REMARK    3  A    between atoms: N_6  and  C_8
REMARK    4  A    between atoms: N_6  and  C_14
REMARK    5  A    between atoms: N_7  and  C_12
REMARK    6  A    between atoms: C_10  and  C_12
REMARK    7  A    between atoms: C_13  and  C_15
REMARK    8  A    between atoms: C_13  and  C_17
REMARK    9  A    between atoms: C_13  and  C_18
REMARK   10  A    between atoms: C_13  and  C_19
REMARK   11  A    between atoms: C_14  and  C_20
REMARK   12  A    between atoms: C_15  and  C_16
REMARK   13  A    between atoms: C_25  and  C_26
REMARK                            x       y       z     vdW  Elec       q    Type
REMARK                         _______ _______ _______ _____ _____    ______ ____
ROOT
ATOM      1  O   UNL     1       2.194   0.155   0.081  0.00  0.00    -0.371 OA
ATOM      8  C   UNL     1       0.035  -0.744   0.497  0.00  0.00    +0.111 C 
ATOM      9  C   UNL     1       0.834  -1.737  -0.326  0.00  0.00    +0.164 C 
ATOM     10  C   UNL     1       2.257  -1.276  -0.042  0.00  0.00    +0.165 C 
ATOM     11  C   UNL     1       0.820   0.538   0.268  0.00  0.00    +0.181 C 
ENDROOT
BRANCH   9   2
ATOM      2  O   UNL     1       0.622  -3.076   0.078  0.00  0.00    -0.388 OA
ATOM     29  H   UNL     1       0.835  -3.147   1.024  0.00  0.00    +0.210 HD
ENDBRANCH   9   2
BRANCH   8   6
ATOM      6  N   UNL     1      -1.357  -0.635   0.090  0.00  0.00    -0.305 NA
ATOM     27  H   UNL     1      -1.739  -1.571  -0.042  0.00  0.00    +0.123 HD
BRANCH   6  14
ATOM     14  C   UNL     1      -2.147   0.058   1.102  0.00  0.00    +0.116 C 
BRANCH  14  20
ATOM     20  C   UNL     1      -3.589   0.194   0.690  0.00  0.00    -0.034 A 
ATOM     21  C   UNL     1      -3.955   1.150  -0.258  0.00  0.00    +0.006 A 
ATOM     22  C   UNL     1      -4.558  -0.634   1.257  0.00  0.00    +0.006 A 
ATOM     23  C   UNL     1      -5.291   1.277  -0.639  0.00  0.00    +0.015 A 
ATOM     24  C   UNL     1      -5.893  -0.507   0.875  0.00  0.00    +0.015 A 
ATOM     25  C   UNL     1      -6.260   0.449  -0.073  0.00  0.00    +0.059 A 
BRANCH  25  26
ATOM      5  O   UNL     1      -8.088   1.388  -1.299  0.00  0.00    -0.245 OA
ATOM     26  C   UNL     1      -7.652   0.580  -0.471  0.00  0.00    +0.337 C 
BRANCH  26   4
ATOM      4  O   UNL     1      -8.464  -0.301   0.175  0.00  0.00    -0.477 OA
ATOM     30  H   UNL     1      -9.401  -0.205  -0.101  0.00  0.00    +0.295 HD
ENDBRANCH  26   4
ENDBRANCH  25  26
ENDBRANCH  14  20
ENDBRANCH   6  14
ENDBRANCH   8   6
BRANCH  10  12
ATOM     12  C   UNL     1       3.240  -1.655  -1.135  0.00  0.00    +0.138 C 
BRANCH  12   7
ATOM      3  O   UNL     1       4.429   0.891  -1.840  0.00  0.00    -0.276 OA
ATOM      7  N   UNL     1       4.576  -1.195  -0.827  0.00  0.00    -0.313 N 
ATOM     16  C   UNL     1       5.058   0.045  -1.208  0.00  0.00    +0.214 C 
ATOM     28  H   UNL     1       5.175  -1.820  -0.296  0.00  0.00    +0.149 HD
BRANCH  16  15
ATOM     15  C   UNL     1       6.494   0.285  -0.771  0.00  0.00    +0.102 C 
BRANCH  15  13
ATOM     13  C   UNL     1       6.644   0.990   0.599  0.00  0.00    -0.029 C 
ATOM     17  C   UNL     1       5.964   0.189   1.722  0.00  0.00    +0.011 C 
ATOM     18  C   UNL     1       5.963   2.369   0.502  0.00  0.00    +0.011 C 
ATOM     19  C   UNL     1       8.125   1.203   0.953  0.00  0.00    +0.011 C 
ENDBRANCH  15  13
ENDBRANCH  16  15
ENDBRANCH  12   7
ENDBRANCH  10  12
TORSDOF 10
