REMARK  Name = 71692987
REMARK  11 active torsions:
REMARK  status: ('A' for Active; 'I' for Inactive)
REMARK    1  A    between atoms: N_1  and  C_11
REMARK    2  A    between atoms: N_1  and  C_17
REMARK    3  A    between atoms: N_1  and  C_18
REMARK    4  A    between atoms: C_4  and  C_8
REMARK    5  A    between atoms: C_5  and  C_11
REMARK    6  A    between atoms: C_7  and  C_12
REMARK    7  A    between atoms: C_8  and  C_13
REMARK    8  A    between atoms: C_8  and  C_14
REMARK    9  A    between atoms: C_9  and  C_15
REMARK   10  A    between atoms: C_12  and  C_16
REMARK   11  A    between atoms: C_21  and  C_25
REMARK                            x       y       z     vdW  Elec       q    Type
REMARK                         _______ _______ _______ _____ _____    ______ ____
ROOT
ATOM      4  C   UNL     1       2.662  -0.064  -0.549  0.00  0.00    +0.000 C 
ATOM      5  C   UNL     1       2.230  -0.683   0.801  0.00  0.00    +0.029 C 
ATOM      6  C   UNL     1       1.573   0.877  -1.082  0.00  0.00    +0.012 C 
ATOM      7  C   UNL     1       1.201   2.005  -0.095  0.00  0.00    +0.022 C 
ATOM      9  C   UNL     1       1.156   1.538   1.352  0.00  0.00    -0.073 C 
ATOM     10  C   UNL     1       1.610   0.329   1.730  0.00  0.00    -0.023 C 
ATOM     15  C   UNL     1       0.633   2.506   2.378  0.00  0.00    +0.039 C 
ENDROOT
BRANCH   4   8
ATOM      8  C   UNL     1       4.009   0.661  -0.426  0.00  0.00    -0.013 C 
ATOM     13  C   UNL     1       5.151  -0.348  -0.347  0.00  0.00    +0.007 C 
ATOM     14  C   UNL     1       4.210   1.614  -1.600  0.00  0.00    +0.007 C 
ENDBRANCH   4   8
BRANCH   5  11
ATOM     11  C   UNL     1       1.256  -1.849   0.602  0.00  0.00    +0.091 C 
BRANCH  11   1
ATOM      1  N   UNL     1       1.832  -2.856  -0.271  0.00  0.00    -0.308 NA
ATOM     17  C   UNL     1       0.786  -3.710  -0.842  0.00  0.00    +0.104 C 
ATOM     18  C   UNL     1       2.810  -3.675   0.452  0.00  0.00    +0.104 C 
ENDBRANCH  11   1
ENDBRANCH   5  11
BRANCH   7  12
ATOM     12  C   UNL     1      -0.113   2.646  -0.556  0.00  0.00    +0.082 C 
BRANCH  12  16
ATOM      2  N   UNL     1      -2.003   1.343  -1.550  0.00  0.00    -0.342 N 
ATOM      3  N   UNL     1      -1.679   1.071   0.632  0.00  0.00    -0.232 NA
ATOM     16  C   UNL     1      -1.260   1.682  -0.454  0.00  0.00    +0.109 A 
ATOM     19  C   UNL     1      -2.966   0.455  -1.145  0.00  0.00    +0.066 A 
ATOM     20  C   UNL     1      -2.743   0.302   0.221  0.00  0.00    +0.092 A 
ATOM     21  C   UNL     1      -3.573  -0.559   0.958  0.00  0.00    -0.023 A 
ATOM     22  C   UNL     1      -3.982  -0.208  -1.835  0.00  0.00    +0.028 A 
ATOM     23  C   UNL     1      -4.600  -1.235   0.286  0.00  0.00    +0.005 A 
ATOM     24  C   UNL     1      -4.799  -1.061  -1.086  0.00  0.00    +0.002 A 
ATOM     25  C   UNL     1      -3.401  -0.779   2.425  0.00  0.00    +0.046 C 
ATOM     26  H   UNL     1      -1.869   1.683  -2.493  0.00  0.00    +0.167 HD
ENDBRANCH  12  16
ENDBRANCH   7  12
TORSDOF 5
