REMARK  Name = 45784183
REMARK  4 active torsions:
REMARK  status: ('A' for Active; 'I' for Inactive)
REMARK    1  A    between atoms: N_3  and  C_9
REMARK    2  A    between atoms: C_5  and  C_10
REMARK    3  A    between atoms: C_9  and  C_11
REMARK    4  A    between atoms: C_18  and  C_23
REMARK                            x       y       z     vdW  Elec       q    Type
REMARK                         _______ _______ _______ _____ _____    ______ ____
ROOT
ATOM      3  N   UNL     1      -1.689  -0.462  -0.152  0.00  0.00    -0.297 NA
ATOM      5  C   UNL     1       0.508  -0.905   0.537  0.00  0.00    +0.090 C 
ATOM      6  C   UNL     1      -0.231  -0.130   1.641  0.00  0.00    +0.029 C 
ATOM      7  C   UNL     1      -0.362  -0.725  -0.714  0.00  0.00    +0.097 C 
ATOM      8  C   UNL     1      -1.453   0.466   0.954  0.00  0.00    +0.085 C 
ENDROOT
BRANCH   5  10
ATOM      2  O   UNL     1       2.881  -1.461   0.503  0.00  0.00    -0.439 OA
ATOM      4  N   UNL     1       2.410   0.693  -0.021  0.00  0.00    -0.213 NA
ATOM     10  C   UNL     1       1.945  -0.488   0.321  0.00  0.00    +0.201 A 
ATOM     12  C   UNL     1       3.769   0.495  -0.071  0.00  0.00    +0.110 A 
ATOM     13  C   UNL     1       4.061  -0.823   0.249  0.00  0.00    +0.155 A 
ATOM     16  C   UNL     1       4.823   1.368  -0.377  0.00  0.00    +0.035 A 
ATOM     17  C   UNL     1       5.340  -1.362   0.293  0.00  0.00    +0.049 A 
ATOM     18  C   UNL     1       6.130   0.860  -0.343  0.00  0.00    -0.048 A 
ATOM     19  C   UNL     1       6.381  -0.478  -0.015  0.00  0.00    +0.007 A 
ATOM     23  C   UNL     1       7.274   1.764  -0.664  0.00  0.00    +0.044 C 
ENDBRANCH   5  10
BRANCH   3   9
ATOM      9  C   UNL     1      -2.613   0.076  -1.140  0.00  0.00    +0.119 C 
BRANCH   9  11
ATOM      1 CL   UNL     1      -6.926   2.284   0.779  0.00  0.00    -0.084 Cl
ATOM     11  C   UNL     1      -4.046  -0.065  -0.702  0.00  0.00    -0.032 A 
ATOM     14  C   UNL     1      -4.741   1.045  -0.221  0.00  0.00    +0.025 A 
ATOM     15  C   UNL     1      -4.680  -1.305  -0.777  0.00  0.00    +0.005 A 
ATOM     20  C   UNL     1      -6.069   0.915   0.184  0.00  0.00    +0.041 A 
ATOM     21  C   UNL     1      -6.008  -1.436  -0.372  0.00  0.00    +0.002 A 
ATOM     22  C   UNL     1      -6.703  -0.326   0.108  0.00  0.00    +0.020 A 
ENDBRANCH   9  11
ENDBRANCH   3   9
TORSDOF 3
