REMARK  Name = 26745476
REMARK  8 active torsions:
REMARK  status: ('A' for Active; 'I' for Inactive)
REMARK    1  A    between atoms: S_2  and  N_7
REMARK    2  A    between atoms: S_2  and  C_19
REMARK    3  A    between atoms: O_5  and  C_16
REMARK    4  A    between atoms: O_5  and  C_28
REMARK    5  A    between atoms: N_8  and  C_17
REMARK    6  A    between atoms: C_11  and  C_16
REMARK    7  A    between atoms: C_17  and  C_20
REMARK    8  A    between atoms: C_27  and  C_32
REMARK                            x       y       z     vdW  Elec       q    Type
REMARK                         _______ _______ _______ _____ _____    ______ ____
ROOT
ATOM      7  N   UNL     1       1.987  -0.644  -0.362  0.00  0.00    -0.157 NA
ATOM      8  N   UNL     1       0.248   2.578   0.403  0.00  0.00    -0.328 N 
ATOM      9  N   UNL     1       1.553   3.405  -1.211  0.00  0.00    -0.240 NA
ATOM     11  C   UNL     1       3.232   0.013  -0.902  0.00  0.00    +0.194 C 
ATOM     12  C   UNL     1       1.137   0.193   0.561  0.00  0.00    +0.165 C 
ATOM     13  C   UNL     1       2.911   1.315  -1.666  0.00  0.00    +0.089 C 
ATOM     14  C   UNL     1       1.076   1.565   0.022  0.00  0.00    +0.057 A 
ATOM     15  C   UNL     1       1.869   2.098  -0.965  0.00  0.00    +0.066 A 
ATOM     18  C   UNL     1       0.573   3.665  -0.369  0.00  0.00    +0.200 A 
ENDROOT
BRANCH   7   2
ATOM      2  S   UNL     1       2.115  -2.299   0.059  0.00  0.00    +0.062 S 
ATOM      3  O   UNL     1       2.545  -2.403   1.437  0.00  0.00    -0.153 OA
ATOM      4  O   UNL     1       2.815  -2.999  -0.996  0.00  0.00    -0.153 OA
BRANCH   2  19
ATOM     19  C   UNL     1       0.414  -2.767  -0.013  0.00  0.00    +0.106 A 
ATOM     21  C   UNL     1      -0.277  -3.068   1.160  0.00  0.00    +0.030 A 
ATOM     22  C   UNL     1      -0.238  -2.836  -1.245  0.00  0.00    +0.030 A 
ATOM     25  C   UNL     1      -1.621  -3.438   1.102  0.00  0.00    +0.021 A 
ATOM     26  C   UNL     1      -1.582  -3.205  -1.302  0.00  0.00    +0.021 A 
ATOM     27  C   UNL     1      -2.273  -3.506  -0.129  0.00  0.00    +0.052 A 
BRANCH  27  32
ATOM     10  N   UNL     1      -4.768  -4.194  -0.235  0.00  0.00    -0.191 NA
ATOM     32  C   UNL     1      -3.650  -3.885  -0.188  0.00  0.00    +0.099 C 
ENDBRANCH  27  32
ENDBRANCH   2  19
ENDBRANCH   7   2
BRANCH  11  16
ATOM      6  O   UNL     1       3.939  -0.020   1.396  0.00  0.00    -0.249 OA
ATOM     16  C   UNL     1       4.185   0.245   0.227  0.00  0.00    +0.326 C 
BRANCH  16   5
ATOM      5  O   UNL     1       5.340   0.785  -0.255  0.00  0.00    -0.467 OA
ATOM     28  C   UNL     1       6.346   1.060   0.725  0.00  0.00    +0.280 C 
ENDBRANCH  16   5
ENDBRANCH  11  16
BRANCH   8  17
ATOM     17  C   UNL     1      -0.771   2.536   1.423  0.00  0.00    +0.158 C 
BRANCH  17  20
ATOM      1 CL   UNL     1      -6.344   2.037  -0.798  0.00  0.00    -0.084 Cl
ATOM     20  C   UNL     1      -2.168   2.410   0.867  0.00  0.00    -0.028 A 
ATOM     23  C   UNL     1      -2.810   3.529   0.335  0.00  0.00    +0.007 A 
ATOM     24  C   UNL     1      -2.818   1.177   0.885  0.00  0.00    +0.007 A 
ATOM     29  C   UNL     1      -4.101   3.414  -0.179  0.00  0.00    +0.020 A 
ATOM     30  C   UNL     1      -4.110   1.061   0.371  0.00  0.00    +0.020 A 
ATOM     31  C   UNL     1      -4.751   2.180  -0.161  0.00  0.00    +0.041 A 
ENDBRANCH  17  20
ENDBRANCH   8  17
TORSDOF 7
