REMARK  Name = 25389730
REMARK  8 active torsions:
REMARK  status: ('A' for Active; 'I' for Inactive)
REMARK    1  A    between atoms: O_2  and  C_20
REMARK    2  A    between atoms: O_2  and  C_32
REMARK    3  A    between atoms: O_4  and  C_26
REMARK    4  A    between atoms: N_7  and  C_11
REMARK    5  A    between atoms: N_7  and  C_21
REMARK    6  A    between atoms: C_9  and  C_17
REMARK    7  A    between atoms: C_13  and  C_20
REMARK    8  A    between atoms: C_21  and  C_26
REMARK                            x       y       z     vdW  Elec       q    Type
REMARK                         _______ _______ _______ _____ _____    ______ ____
ROOT
ATOM      5  N   UNL     1      -0.259  -0.291  -0.237  0.00  0.00    -0.274 NA
ATOM      6  N   UNL     1       2.775   1.874   0.228  0.00  0.00    -0.356 N 
ATOM      8  C   UNL     1       0.420   0.882   0.393  0.00  0.00    +0.106 C 
ATOM      9  C   UNL     1      -1.710  -0.329   0.077  0.00  0.00    +0.093 C 
ATOM     10  C   UNL     1      -0.229   2.197  -0.066  0.00  0.00    +0.044 C 
ATOM     11  C   UNL     1      -1.716   2.211   0.287  0.00  0.00    +0.057 C 
ATOM     12  C   UNL     1      -2.402   0.994  -0.331  0.00  0.00    +0.042 C 
ATOM     13  C   UNL     1       0.464  -1.572  -0.005  0.00  0.00    +0.172 C 
ATOM     14  C   UNL     1       1.885   0.848   0.075  0.00  0.00    +0.038 A 
ATOM     15  C   UNL     1       1.897  -1.562  -0.595  0.00  0.00    +0.068 C 
ATOM     16  C   UNL     1       2.579  -0.261  -0.359  0.00  0.00    -0.016 A 
ATOM     18  C   UNL     1       3.942   0.113  -0.511  0.00  0.00    +0.003 A 
ATOM     19  C   UNL     1       4.037   1.457  -0.138  0.00  0.00    +0.047 A 
ATOM     24  C   UNL     1       5.110  -0.559  -0.926  0.00  0.00    +0.010 A 
ATOM     25  C   UNL     1       5.246   2.163  -0.161  0.00  0.00    +0.026 A 
ATOM     27  C   UNL     1       6.324   0.136  -0.955  0.00  0.00    +0.001 A 
ATOM     30  C   UNL     1       6.389   1.476  -0.578  0.00  0.00    +0.002 A 
ATOM     33  H   UNL     1       2.549   2.803   0.556  0.00  0.00    +0.166 HD
ENDROOT
BRANCH   9  17
ATOM      1  F   UNL     1      -3.134  -2.329   1.515  0.00  0.00    -0.205 F 
ATOM     17  C   UNL     1      -2.465  -1.472  -0.596  0.00  0.00    +0.005 A 
ATOM     22  C   UNL     1      -3.141  -2.416   0.177  0.00  0.00    +0.128 A 
ATOM     23  C   UNL     1      -2.478  -1.571  -1.987  0.00  0.00    +0.008 A 
ATOM     28  C   UNL     1      -3.830  -3.459  -0.441  0.00  0.00    +0.038 A 
ATOM     29  C   UNL     1      -3.168  -2.614  -2.605  0.00  0.00    +0.000 A 
ATOM     31  C   UNL     1      -3.844  -3.558  -1.832  0.00  0.00    +0.003 A 
ENDBRANCH   9  17
BRANCH  13  20
ATOM      3  O   UNL     1      -0.011  -1.203   2.330  0.00  0.00    -0.249 OA
ATOM     20  C   UNL     1       0.489  -1.904   1.460  0.00  0.00    +0.325 C 
BRANCH  20   2
ATOM      2  O   UNL     1       1.146  -3.084   1.649  0.00  0.00    -0.467 OA
ATOM     32  C   UNL     1       1.244  -3.522   3.008  0.00  0.00    +0.280 C 
ENDBRANCH  20   2
ENDBRANCH  13  20
BRANCH  11   7
ATOM      7  N   UNL     1      -2.333   3.451  -0.182  0.00  0.00    -0.311 NA
ATOM     34  H   UNL     1      -1.692   4.232  -0.040  0.00  0.00    +0.122 HD
BRANCH   7  21
ATOM     21  C   UNL     1      -3.566   3.720   0.541  0.00  0.00    +0.109 C 
BRANCH  21  26
ATOM     26  C   UNL     1      -4.228   4.986   0.022  0.00  0.00    +0.171 C 
BRANCH  26   4
ATOM      4  O   UNL     1      -5.434   5.200   0.743  0.00  0.00    -0.394 OA
ATOM     35  H   UNL     1      -5.836   6.012   0.392  0.00  0.00    +0.209 HD
ENDBRANCH  26   4
ENDBRANCH  21  26
ENDBRANCH   7  21
ENDBRANCH  11   7
TORSDOF 7
