REMARK  Name = 25338202
REMARK  6 active torsions:
REMARK  status: ('A' for Active; 'I' for Inactive)
REMARK    1  A    between atoms: O_3  and  C_10
REMARK    2  A    between atoms: O_5  and  C_26
REMARK    3  A    between atoms: O_5  and  C_27
REMARK    4  A    between atoms: N_6  and  C_9
REMARK    5  A    between atoms: N_7  and  C_11
REMARK    6  A    between atoms: N_8  and  C_21
REMARK                            x       y       z     vdW  Elec       q    Type
REMARK                         _______ _______ _______ _____ _____    ______ ____
ROOT
ATOM      1  O   UNL     1      -3.171   0.918   1.548  0.00  0.00    -0.342 OA
ATOM      2  O   UNL     1      -4.590   2.002   0.067  0.00  0.00    -0.347 OA
ATOM      9  C   UNL     1      -3.360   0.067  -0.700  0.00  0.00    +0.143 C 
ATOM     10  C   UNL     1      -2.190   0.966  -1.160  0.00  0.00    +0.159 C 
ATOM     11  C   UNL     1      -1.524   1.746  -0.005  0.00  0.00    +0.136 C 
ATOM     12  C   UNL     1      -4.107   0.714   0.481  0.00  0.00    +0.270 C 
ATOM     13  C   UNL     1      -2.506   2.113   1.126  0.00  0.00    +0.170 C 
ATOM     14  C   UNL     1      -3.692   2.944   0.674  0.00  0.00    +0.196 C 
ENDROOT
BRANCH  11   7
ATOM      4  O   UNL     1       1.192   1.803  -0.913  0.00  0.00    -0.252 OA
ATOM      7  N   UNL     1      -0.415   0.988   0.534  0.00  0.00    -0.291 N 
ATOM      8  N   UNL     1       1.738   0.234   0.746  0.00  0.00    -0.269 N 
ATOM     20  C   UNL     1       0.884   1.076   0.029  0.00  0.00    +0.304 C 
ATOM     28  H   UNL     1      -0.608   0.306   1.262  0.00  0.00    +0.151 HD
ATOM     30  H   UNL     1       1.321  -0.303   1.502  0.00  0.00    +0.156 HD
BRANCH   8  21
ATOM     21  C   UNL     1       3.125   0.033   0.549  0.00  0.00    +0.035 A 
ATOM     22  C   UNL     1       3.823  -0.856   1.367  0.00  0.00    +0.027 A 
ATOM     23  C   UNL     1       3.794   0.723  -0.461  0.00  0.00    +0.027 A 
ATOM     24  C   UNL     1       5.190  -1.054   1.174  0.00  0.00    +0.047 A 
ATOM     25  C   UNL     1       5.161   0.525  -0.654  0.00  0.00    +0.047 A 
ATOM     26  C   UNL     1       5.859  -0.364   0.164  0.00  0.00    +0.120 A 
BRANCH  26   5
ATOM      5  O   UNL     1       7.193  -0.558  -0.024  0.00  0.00    -0.495 OA
ATOM     27  C   UNL     1       7.814   0.181  -1.075  0.00  0.00    +0.277 C 
ENDBRANCH  26   5
ENDBRANCH   8  21
ENDBRANCH  11   7
BRANCH   9   6
ATOM      6  N   UNL     1      -2.858  -1.250  -0.307  0.00  0.00    -0.293 NA
ATOM     15  C   UNL     1      -2.603  -2.078  -1.494  0.00  0.00    +0.085 C 
ATOM     16  C   UNL     1      -3.803  -1.908   0.606  0.00  0.00    +0.085 C 
ATOM     17  C   UNL     1      -2.031  -3.442  -1.103  0.00  0.00    +0.015 C 
ATOM     18  C   UNL     1      -3.271  -3.266   1.066  0.00  0.00    +0.015 C 
ATOM     19  C   UNL     1      -2.946  -4.165  -0.122  0.00  0.00    +0.002 C 
ENDBRANCH   9   6
BRANCH  10   3
ATOM      3  O   UNL     1      -2.708   1.905  -2.112  0.00  0.00    -0.388 OA
ATOM     29  H   UNL     1      -1.960   2.429  -2.445  0.00  0.00    +0.210 HD
ENDBRANCH  10   3
TORSDOF 5
