REMARK  Name = 75368456
REMARK  6 active torsions:
REMARK  status: ('A' for Active; 'I' for Inactive)
REMARK    1  A    between atoms: O_6  and  C_26
REMARK    2  A    between atoms: O_6  and  C_31
REMARK    3  A    between atoms: N_8  and  C_16
REMARK    4  A    between atoms: C_16  and  C_18
REMARK    5  A    between atoms: C_17  and  C_19
REMARK    6  A    between atoms: C_29  and  C_30
REMARK                            x       y       z     vdW  Elec       q    Type
REMARK                         _______ _______ _______ _____ _____    ______ ____
ROOT
ATOM      4  O   UNL     1       3.238  -3.118   0.860  0.00  0.00    -0.252 OA
ATOM      5  O   UNL     1      -3.251  -2.960  -1.724  0.00  0.00    -0.270 OA
ATOM      7  N   UNL     1       1.042  -2.382   0.465  0.00  0.00    -0.278 N 
ATOM      8  N   UNL     1       2.464  -0.985   1.502  0.00  0.00    -0.279 N 
ATOM      9  N   UNL     1      -1.295  -1.929  -0.969  0.00  0.00    -0.294 N 
ATOM     10  C   UNL     1       0.230  -1.230   0.821  0.00  0.00    +0.112 C 
ATOM     11  C   UNL     1       1.248  -0.211   1.326  0.00  0.00    +0.133 C 
ATOM     12  C   UNL     1      -0.591  -0.773  -0.381  0.00  0.00    +0.132 C 
ATOM     13  C   UNL     1       0.432  -3.517  -0.206  0.00  0.00    +0.128 C 
ATOM     14  C   UNL     1      -0.420  -3.035  -1.380  0.00  0.00    +0.127 C 
ATOM     15  C   UNL     1       2.357  -2.271   0.936  0.00  0.00    +0.306 C 
ATOM     17  C   UNL     1      -2.670  -2.014  -1.194  0.00  0.00    +0.247 C 
ENDROOT
BRANCH  17  19
ATOM     19  C   UNL     1      -3.514  -0.894  -0.757  0.00  0.00    +0.037 A 
ATOM     22  C   UNL     1      -3.771   0.166  -1.626  0.00  0.00    +0.013 A 
ATOM     23  C   UNL     1      -4.058  -0.891   0.527  0.00  0.00    +0.013 A 
ATOM     27  C   UNL     1      -4.572   1.230  -1.211  0.00  0.00    +0.013 A 
ATOM     28  C   UNL     1      -4.858   0.173   0.943  0.00  0.00    +0.013 A 
ATOM     29  C   UNL     1      -5.115   1.233   0.074  0.00  0.00    +0.055 A 
BRANCH  29  30
ATOM      1  F   UNL     1      -5.481   3.032   1.608  0.00  0.00    -0.166 F 
ATOM      2  F   UNL     1      -7.238   1.999   0.867  0.00  0.00    -0.166 F 
ATOM      3  F   UNL     1      -6.123   3.322  -0.449  0.00  0.00    -0.166 F 
ATOM     30  C   UNL     1      -5.971   2.371   0.518  0.00  0.00    +0.417 C 
ENDBRANCH  29  30
ENDBRANCH  17  19
BRANCH   8  16
ATOM     16  C   UNL     1       3.661  -0.410   2.075  0.00  0.00    +0.144 C 
BRANCH  16  18
ATOM     18  C   UNL     1       4.449   0.372   1.065  0.00  0.00    -0.030 A 
ATOM     20  C   UNL     1       5.206  -0.295   0.101  0.00  0.00    +0.009 A 
ATOM     21  C   UNL     1       4.423   1.767   1.089  0.00  0.00    +0.009 A 
ATOM     24  C   UNL     1       5.937   0.433  -0.837  0.00  0.00    +0.046 A 
ATOM     25  C   UNL     1       5.154   2.494   0.150  0.00  0.00    +0.046 A 
ATOM     26  C   UNL     1       5.911   1.827  -0.813  0.00  0.00    +0.120 A 
BRANCH  26   6
ATOM      6  O   UNL     1       6.624   2.537  -1.730  0.00  0.00    -0.495 OA
ATOM     31  C   UNL     1       6.553   3.960  -1.647  0.00  0.00    +0.277 C 
ENDBRANCH  26   6
ENDBRANCH  16  18
ENDBRANCH   8  16
TORSDOF 5
