REMARK  Name = 75367090
REMARK  10 active torsions:
REMARK  status: ('A' for Active; 'I' for Inactive)
REMARK    1  A    between atoms: O_3  and  C_8
REMARK    2  A    between atoms: N_5  and  C_7
REMARK    3  A    between atoms: N_5  and  C_12
REMARK    4  A    between atoms: N_6  and  C_13
REMARK    5  A    between atoms: C_9  and  C_13
REMARK    6  A    between atoms: C_11  and  C_12
REMARK    7  A    between atoms: C_11  and  C_14
REMARK    8  A    between atoms: C_11  and  C_15
REMARK    9  A    between atoms: C_11  and  C_16
REMARK   10  A    between atoms: C_17  and  C_18
REMARK                            x       y       z     vdW  Elec       q    Type
REMARK                         _______ _______ _______ _____ _____    ______ ____
ROOT
ATOM      2  O   UNL     1      -0.662  -0.822   0.348  0.00  0.00    -0.371 OA
ATOM      7  C   UNL     1      -2.768   0.104  -0.245  0.00  0.00    +0.111 C 
ATOM      8  C   UNL     1      -1.899   1.194   0.356  0.00  0.00    +0.164 C 
ATOM      9  C   UNL     1      -0.511   0.596   0.173  0.00  0.00    +0.165 C 
ATOM     10  C   UNL     1      -2.059  -1.149   0.243  0.00  0.00    +0.181 C 
ENDROOT
BRANCH   8   3
ATOM      3  O   UNL     1      -2.034   2.431  -0.315  0.00  0.00    -0.388 OA
ATOM     25  H   UNL     1      -1.829   2.293  -1.256  0.00  0.00    +0.210 HD
ENDBRANCH   8   3
BRANCH   7   5
ATOM      5  N   UNL     1      -4.158   0.168   0.174  0.00  0.00    -0.308 NA
ATOM     24  H   UNL     1      -4.476   1.135   0.119  0.00  0.00    +0.122 HD
BRANCH   5  12
ATOM     12  C   UNL     1      -5.001  -0.667  -0.673  0.00  0.00    +0.087 C 
BRANCH  12  11
ATOM     11  C   UNL     1      -6.490  -0.703  -0.244  0.00  0.00    -0.025 C 
ATOM     14  C   UNL     1      -6.639  -1.162   1.218  0.00  0.00    +0.012 C 
ATOM     15  C   UNL     1      -7.300  -1.642  -1.155  0.00  0.00    +0.012 C 
ATOM     16  C   UNL     1      -7.064   0.721  -0.370  0.00  0.00    +0.012 C 
ENDBRANCH  12  11
ENDBRANCH   5  12
ENDBRANCH   7   5
BRANCH   9  13
ATOM     13  C   UNL     1       0.508   1.130   1.165  0.00  0.00    +0.138 C 
BRANCH  13   6
ATOM      4  O   UNL     1       2.591   2.113  -0.548  0.00  0.00    -0.270 OA
ATOM      6  N   UNL     1       1.798   0.537   0.958  0.00  0.00    -0.309 N 
ATOM     17  C   UNL     1       2.750   1.085   0.105  0.00  0.00    +0.244 C 
ATOM     26  H   UNL     1       1.967  -0.353   1.414  0.00  0.00    +0.149 HD
BRANCH  17  18
ATOM      1  F   UNL     1       7.578  -1.742  -0.366  0.00  0.00    -0.205 F 
ATOM     18  C   UNL     1       4.027   0.337  -0.020  0.00  0.00    +0.037 A 
ATOM     19  C   UNL     1       4.784   0.439  -1.187  0.00  0.00    +0.016 A 
ATOM     20  C   UNL     1       4.471  -0.468   1.030  0.00  0.00    +0.016 A 
ATOM     21  C   UNL     1       5.983  -0.264  -1.305  0.00  0.00    +0.039 A 
ATOM     22  C   UNL     1       5.670  -1.170   0.913  0.00  0.00    +0.039 A 
ATOM     23  C   UNL     1       6.426  -1.068  -0.255  0.00  0.00    +0.123 A 
ENDBRANCH  17  18
ENDBRANCH  13   6
ENDBRANCH   9  13
TORSDOF 7
