REMARK  Name = 45361453
REMARK  9 active torsions:
REMARK  status: ('A' for Active; 'I' for Inactive)
REMARK    1  A    between atoms: O_1  and  C_9
REMARK    2  A    between atoms: N_4  and  C_13
REMARK    3  A    between atoms: N_5  and  C_22
REMARK    4  A    between atoms: C_6  and  C_16
REMARK    5  A    between atoms: C_8  and  C_18
REMARK    6  A    between atoms: C_11  and  C_17
REMARK    7  A    between atoms: C_17  and  C_19
REMARK    8  A    between atoms: C_17  and  C_20
REMARK    9  A    between atoms: C_21  and  C_23
REMARK                            x       y       z     vdW  Elec       q    Type
REMARK                         _______ _______ _______ _____ _____    ______ ____
ROOT
ATOM      6  C   UNL     1      -0.626   1.738   0.373  0.00  0.00    -0.027 C 
ATOM      7  C   UNL     1      -0.417   0.278  -0.151  0.00  0.00    +0.028 C 
ATOM      8  C   UNL     1       1.009   0.111  -0.789  0.00  0.00    +0.012 C 
ATOM      9  C   UNL     1      -1.606  -0.175  -1.046  0.00  0.00    +0.122 C 
ATOM     10  C   UNL     1      -1.991   1.837   1.093  0.00  0.00    +0.007 C 
ATOM     11  C   UNL     1      -2.977   0.024  -0.359  0.00  0.00    +0.029 C 
ATOM     12  C   UNL     1       0.477   2.065   1.406  0.00  0.00    +0.009 C 
ATOM     13  C   UNL     1       2.107   0.515   0.235  0.00  0.00    +0.076 C 
ATOM     14  C   UNL     1      -3.162   1.431   0.207  0.00  0.00    +0.007 C 
ATOM     15  C   UNL     1       1.884   1.895   0.853  0.00  0.00    +0.023 C 
ATOM     16  C   UNL     1      -0.586   2.789  -0.765  0.00  0.00    +0.011 C 
ATOM     18  C   UNL     1       1.293  -1.311  -1.300  0.00  0.00    +0.010 C 
ENDROOT
BRANCH  13   4
ATOM      3  O   UNL     1       4.614  -0.128   1.552  0.00  0.00    -0.276 OA
ATOM      4  N   UNL     1       3.429   0.485  -0.355  0.00  0.00    -0.312 N 
ATOM     21  C   UNL     1       4.568   0.164   0.360  0.00  0.00    +0.216 C 
ATOM     31  H   UNL     1       3.514   0.762  -1.329  0.00  0.00    +0.149 HD
BRANCH  21  23
ATOM     23  C   UNL     1       5.799   0.184  -0.499  0.00  0.00    +0.075 C 
ATOM     26  C   UNL     1       5.977  -1.167  -1.196  0.00  0.00    +0.013 C 
ATOM     27  C   UNL     1       7.029   0.597   0.313  0.00  0.00    +0.013 C 
ATOM     28  C   UNL     1       6.506  -2.256  -0.265  0.00  0.00    +0.001 C 
ATOM     29  C   UNL     1       7.562  -0.513   1.217  0.00  0.00    +0.001 C 
ATOM     30  C   UNL     1       7.777  -1.814   0.453  0.00  0.00    +0.000 C 
ENDBRANCH  21  23
ENDBRANCH  13   4
BRANCH   9   1
ATOM      1  O   UNL     1      -1.488  -1.571  -1.325  0.00  0.00    -0.391 OA
ATOM     32  H   UNL     1      -1.502  -2.051  -0.479  0.00  0.00    +0.210 HD
ENDBRANCH   9   1
BRANCH  11  17
ATOM     17  C   UNL     1      -4.140  -0.305  -1.303  0.00  0.00    +0.077 C 
ATOM     19  C   UNL     1      -4.092   0.600  -2.530  0.00  0.00    +0.017 C 
BRANCH  17  20
ATOM      2  O   UNL     1      -6.131   0.881  -0.587  0.00  0.00    -0.276 OA
ATOM      5  N   UNL     1      -5.860  -1.329   0.057  0.00  0.00    -0.312 N 
ATOM     20  C   UNL     1      -5.479  -0.161  -0.588  0.00  0.00    +0.216 C 
ATOM     33  H   UNL     1      -5.263  -2.150   0.014  0.00  0.00    +0.149 HD
BRANCH   5  22
ATOM     22  C   UNL     1      -7.081  -1.434   0.804  0.00  0.00    +0.073 C 
ATOM     24  C   UNL     1      -7.158  -0.984   2.233  0.00  0.00    +0.024 C 
ATOM     25  C   UNL     1      -7.236  -2.445   1.901  0.00  0.00    +0.024 C 
ENDBRANCH   5  22
ENDBRANCH  17  20
ENDBRANCH  11  17
TORSDOF 6
