REMARK  Name = 7144114
REMARK  6 active torsions:
REMARK  status: ('A' for Active; 'I' for Inactive)
REMARK    1  A    between atoms: O_3  and  C_26
REMARK    2  A    between atoms: O_3  and  C_32
REMARK    3  A    between atoms: O_4  and  C_27
REMARK    4  A    between atoms: O_4  and  C_33
REMARK    5  A    between atoms: N_7  and  C_23
REMARK    6  A    between atoms: C_15  and  C_20
REMARK                            x       y       z     vdW  Elec       q    Type
REMARK                         _______ _______ _______ _____ _____    ______ ____
ROOT
ATOM      1  O   UNL     1      -2.347   2.683   2.626  0.00  0.00    -0.268 OA
ATOM      2  O   UNL     1      -3.474   0.545  -1.642  0.00  0.00    -0.252 OA
ATOM      5  N   UNL     1      -0.805   2.416   0.883  0.00  0.00    -0.311 N 
ATOM      6  N   UNL     1      -1.316   1.293  -2.010  0.00  0.00    -0.284 N 
ATOM      7  N   UNL     1      -1.708  -0.895  -1.221  0.00  0.00    -0.266 N 
ATOM      8  C   UNL     1      -1.063   3.672  -1.335  0.00  0.00    +0.027 C 
ATOM      9  C   UNL     1       0.807   2.103  -1.025  0.00  0.00    +0.054 C 
ATOM     10  C   UNL     1       0.450   3.536  -1.421  0.00  0.00    +0.018 C 
ATOM     11  C   UNL     1      -1.477   3.480   0.124  0.00  0.00    +0.130 C 
ATOM     12  C   UNL     1      -1.756   2.666  -2.271  0.00  0.00    +0.114 C 
ATOM     13  C   UNL     1       0.146   1.124  -2.021  0.00  0.00    +0.119 C 
ATOM     14  C   UNL     1       0.361   1.782   0.406  0.00  0.00    +0.034 A 
ATOM     15  C   UNL     1       1.019   0.894   1.197  0.00  0.00    +0.002 A 
ATOM     16  C   UNL     1      -1.342   2.150   2.155  0.00  0.00    +0.252 A 
ATOM     17  C   UNL     1      -2.262   0.320  -1.621  0.00  0.00    +0.307 C 
ATOM     18  C   UNL     1       0.492   0.594   2.515  0.00  0.00    +0.015 A 
ATOM     19  C   UNL     1      -0.621   1.158   2.983  0.00  0.00    +0.071 A 
ATOM     34  H   UNL     1      -0.814  -1.174  -1.607  0.00  0.00    +0.156 HD
ENDROOT
BRANCH  15  20
ATOM     20  C   UNL     1       2.243   0.201   0.742  0.00  0.00    -0.016 A 
ATOM     21  C   UNL     1       2.140  -1.006   0.057  0.00  0.00    +0.012 A 
ATOM     22  C   UNL     1       3.490   0.762   1.001  0.00  0.00    +0.012 A 
ATOM     24  C   UNL     1       3.296  -1.659  -0.372  0.00  0.00    +0.046 A 
ATOM     25  C   UNL     1       4.646   0.109   0.571  0.00  0.00    +0.046 A 
ATOM     26  C   UNL     1       4.548  -1.101  -0.116  0.00  0.00    +0.120 A 
BRANCH  26   3
ATOM      3  O   UNL     1       5.675  -1.739  -0.535  0.00  0.00    -0.495 OA
ATOM     32  C   UNL     1       6.923  -1.114  -0.239  0.00  0.00    +0.277 C 
ENDBRANCH  26   3
ENDBRANCH  15  20
BRANCH   7  23
ATOM     23  C   UNL     1      -2.277  -1.842  -0.336  0.00  0.00    +0.077 A 
ATOM     27  C   UNL     1      -1.637  -3.056  -0.093  0.00  0.00    +0.141 A 
ATOM     28  C   UNL     1      -3.486  -1.547   0.290  0.00  0.00    +0.027 A 
ATOM     29  C   UNL     1      -2.211  -3.979   0.782  0.00  0.00    +0.047 A 
ATOM     30  C   UNL     1      -4.059  -2.471   1.164  0.00  0.00    +0.002 A 
ATOM     31  C   UNL     1      -3.421  -3.687   1.410  0.00  0.00    +0.004 A 
BRANCH  27   4
ATOM      4  O   UNL     1      -0.454  -3.361  -0.696  0.00  0.00    -0.493 OA
ATOM     33  C   UNL     1      -0.522  -4.033  -1.952  0.00  0.00    +0.277 C 
ENDBRANCH  27   4
ENDBRANCH   7  23
TORSDOF 4
