REMARK  Name = 71694382
REMARK  8 active torsions:
REMARK  status: ('A' for Active; 'I' for Inactive)
REMARK    1  A    between atoms: O_3  and  C_21
REMARK    2  A    between atoms: N_4  and  C_7
REMARK    3  A    between atoms: N_4  and  C_8
REMARK    4  A    between atoms: N_5  and  C_17
REMARK    5  A    between atoms: C_7  and  C_11
REMARK    6  A    between atoms: C_11  and  C_16
REMARK    7  A    between atoms: C_19  and  C_20
REMARK    8  A    between atoms: C_20  and  C_21
REMARK                            x       y       z     vdW  Elec       q    Type
REMARK                         _______ _______ _______ _____ _____    ______ ____
ROOT
ATOM      1  O   UNL     1       1.051   1.870  -1.458  0.00  0.00    -0.376 OA
ATOM      7  C   UNL     1      -0.275   1.103   0.032  0.00  0.00    +0.072 C 
ATOM      9  C   UNL     1       0.657   2.312  -0.132  0.00  0.00    +0.184 C 
ATOM     10  C   UNL     1      -0.017   0.886  -1.465  0.00  0.00    +0.184 C 
ENDROOT
BRANCH   7   4
ATOM      4  N   UNL     1      -1.645   1.595   0.204  0.00  0.00    -0.304 NA
ATOM     22  H   UNL     1      -1.747   2.188   1.028  0.00  0.00    +0.123 HD
BRANCH   4   8
ATOM      5  N   UNL     1      -5.083  -0.830  -0.400  0.00  0.00    -0.305 NA
ATOM      8  C   UNL     1      -2.556   0.459   0.321  0.00  0.00    +0.057 C 
ATOM     12  C   UNL     1      -3.895   0.890   0.926  0.00  0.00    +0.034 C 
ATOM     13  C   UNL     1      -2.785  -0.180  -1.052  0.00  0.00    +0.034 C 
ATOM     14  C   UNL     1      -4.888  -0.275   0.947  0.00  0.00    +0.085 C 
ATOM     15  C   UNL     1      -3.814  -1.310  -0.966  0.00  0.00    +0.085 C 
ATOM     17  C   UNL     1      -6.071  -1.908  -0.371  0.00  0.00    +0.104 C 
ENDBRANCH   4   8
ENDBRANCH   7   4
BRANCH   7  11
ATOM     11  C   UNL     1       0.096   0.020   1.012  0.00  0.00    +0.085 C 
BRANCH  11  16
ATOM      2  O   UNL     1       3.677  -0.069   1.460  0.00  0.00    -0.359 OA
ATOM      6  N   UNL     1       2.412   0.424   1.756  0.00  0.00    -0.083 NA
ATOM     16  C   UNL     1       1.581  -0.256   0.960  0.00  0.00    +0.086 A 
ATOM     18  C   UNL     1       2.258  -1.182   0.148  0.00  0.00    +0.071 A 
ATOM     19  C   UNL     1       3.572  -1.024   0.501  0.00  0.00    +0.140 A 
BRANCH  19  20
ATOM     20  C   UNL     1       4.824  -1.656   0.066  0.00  0.00    +0.105 C 
BRANCH  20  21
ATOM     21  C   UNL     1       5.344  -1.136  -1.288  0.00  0.00    +0.163 C 
BRANCH  21   3
ATOM      3  O   UNL     1       5.558   0.267  -1.202  0.00  0.00    -0.395 OA
ATOM     23  H   UNL     1       5.887   0.558  -2.069  0.00  0.00    +0.209 HD
ENDBRANCH  21   3
ENDBRANCH  20  21
ENDBRANCH  19  20
ENDBRANCH  11  16
ENDBRANCH   7  11
TORSDOF 7
