REMARK  Name = 75536649
REMARK  7 active torsions:
REMARK  status: ('A' for Active; 'I' for Inactive)
REMARK    1  A    between atoms: O_4  and  C_9
REMARK    2  A    between atoms: N_6  and  C_8
REMARK    3  A    between atoms: N_6  and  C_13
REMARK    4  A    between atoms: N_7  and  C_12
REMARK    5  A    between atoms: C_10  and  C_12
REMARK    6  A    between atoms: C_13  and  C_14
REMARK    7  A    between atoms: C_15  and  C_18
REMARK                            x       y       z     vdW  Elec       q    Type
REMARK                         _______ _______ _______ _____ _____    ______ ____
ROOT
ATOM      3  O   UNL     1       0.280   0.761  -0.006  0.00  0.00    -0.371 OA
ATOM      8  C   UNL     1      -1.782  -0.373   0.314  0.00  0.00    +0.111 C 
ATOM      9  C   UNL     1      -0.903  -1.196  -0.609  0.00  0.00    +0.164 C 
ATOM     10  C   UNL     1       0.474  -0.637  -0.278  0.00  0.00    +0.165 C 
ATOM     11  C   UNL     1      -1.121   0.993   0.220  0.00  0.00    +0.181 C 
ENDROOT
BRANCH   9   4
ATOM      4  O   UNL     1      -0.986  -2.584  -0.348  0.00  0.00    -0.388 OA
ATOM     28  H   UNL     1      -0.758  -2.733   0.586  0.00  0.00    +0.210 HD
ENDBRANCH   9   4
BRANCH   8   6
ATOM      6  N   UNL     1      -3.182  -0.352  -0.079  0.00  0.00    -0.305 NA
ATOM     27  H   UNL     1      -3.477  -1.301  -0.309  0.00  0.00    +0.123 HD
BRANCH   6  13
ATOM     13  C   UNL     1      -4.022   0.155   1.000  0.00  0.00    +0.119 C 
BRANCH  13  14
ATOM      1  F   UNL     1      -5.104   2.147  -0.700  0.00  0.00    -0.205 F 
ATOM     14  C   UNL     1      -5.475   0.199   0.605  0.00  0.00    +0.002 A 
ATOM     16  C   UNL     1      -5.941   1.208  -0.237  0.00  0.00    +0.128 A 
ATOM     17  C   UNL     1      -6.354  -0.772   1.084  0.00  0.00    +0.008 A 
ATOM     19  C   UNL     1      -7.288   1.247  -0.600  0.00  0.00    +0.038 A 
ATOM     20  C   UNL     1      -7.700  -0.733   0.721  0.00  0.00    +0.000 A 
ATOM     21  C   UNL     1      -8.167   0.276  -0.120  0.00  0.00    +0.003 A 
ENDBRANCH  13  14
ENDBRANCH   6  13
ENDBRANCH   8   6
BRANCH  10  12
ATOM     12  C   UNL     1       1.478  -0.807  -1.405  0.00  0.00    +0.138 C 
BRANCH  12   7
ATOM      5  O   UNL     1       3.634  -2.197  -0.116  0.00  0.00    -0.270 OA
ATOM      7  N   UNL     1       2.757  -0.263  -1.050  0.00  0.00    -0.309 N 
ATOM     15  C   UNL     1       3.747  -1.014  -0.425  0.00  0.00    +0.244 C 
ATOM     29  H   UNL     1       2.890   0.729  -1.214  0.00  0.00    +0.149 HD
BRANCH  15  18
ATOM      2  F   UNL     1       8.511   1.694   0.801  0.00  0.00    -0.205 F 
ATOM     18  C   UNL     1       5.008  -0.297  -0.100  0.00  0.00    +0.037 A 
ATOM     22  C   UNL     1       5.799  -0.726   0.965  0.00  0.00    +0.016 A 
ATOM     23  C   UNL     1       5.399   0.804  -0.861  0.00  0.00    +0.016 A 
ATOM     24  C   UNL     1       6.982  -0.054   1.270  0.00  0.00    +0.039 A 
ATOM     25  C   UNL     1       6.583   1.477  -0.556  0.00  0.00    +0.039 A 
ATOM     26  C   UNL     1       7.374   1.048   0.509  0.00  0.00    +0.123 A 
ENDBRANCH  15  18
ENDBRANCH  12   7
ENDBRANCH  10  12
TORSDOF 7
