REMARK  Name = 26742941
REMARK  7 active torsions:
REMARK  status: ('A' for Active; 'I' for Inactive)
REMARK    1  A    between atoms: N_6  and  C_19
REMARK    2  A    between atoms: C_8  and  C_14
REMARK    3  A    between atoms: C_9  and  C_13
REMARK    4  A    between atoms: C_13  and  C_15
REMARK    5  A    between atoms: C_14  and  C_16
REMARK    6  A    between atoms: C_18  and  C_20
REMARK    7  A    between atoms: C_19  and  C_21
REMARK                            x       y       z     vdW  Elec       q    Type
REMARK                         _______ _______ _______ _____ _____    ______ ____
ROOT
ATOM      5  N   UNL     1       5.731   0.700  -0.890  0.00  0.00    -0.316 NA
ATOM      8  C   UNL     1       2.934   0.014  -0.249  0.00  0.00    +0.004 C 
ATOM      9  C   UNL     1       3.452   1.471  -0.274  0.00  0.00    +0.012 C 
ATOM     10  C   UNL     1       3.828  -0.852  -1.152  0.00  0.00    +0.019 C 
ATOM     11  C   UNL     1       4.960   1.543   0.024  0.00  0.00    +0.085 C 
ATOM     12  C   UNL     1       5.312  -0.698  -0.824  0.00  0.00    +0.081 C 
ATOM     30  H   UNL     1       6.721   0.767  -0.656  0.00  0.00    +0.122 HD
ENDROOT
BRANCH   9  13
ATOM     13  C   UNL     1       2.675   2.400   0.660  0.00  0.00    +0.064 C 
BRANCH  13  15
ATOM      4  O   UNL     1      -0.621   3.049  -0.633  0.00  0.00    -0.354 OA
ATOM      7  N   UNL     1       0.742   3.306  -0.556  0.00  0.00    -0.083 NA
ATOM     15  C   UNL     1       1.213   2.417   0.323  0.00  0.00    +0.085 A 
ATOM     17  C   UNL     1       0.203   1.580   0.828  0.00  0.00    +0.076 A 
ATOM     18  C   UNL     1      -0.930   2.019   0.195  0.00  0.00    +0.167 A 
BRANCH  18  20
ATOM      2  F   UNL     1      -6.291   0.534   0.297  0.00  0.00    -0.205 F 
ATOM     20  C   UNL     1      -2.312   1.637   0.223  0.00  0.00    +0.020 A 
ATOM     22  C   UNL     1      -2.730   0.588   1.043  0.00  0.00    +0.014 A 
ATOM     23  C   UNL     1      -3.239   2.312  -0.572  0.00  0.00    +0.014 A 
ATOM     25  C   UNL     1      -4.074   0.216   1.068  0.00  0.00    +0.039 A 
ATOM     26  C   UNL     1      -4.582   1.940  -0.546  0.00  0.00    +0.039 A 
ATOM     29  C   UNL     1      -5.000   0.892   0.274  0.00  0.00    +0.123 A 
ENDBRANCH  18  20
ENDBRANCH  13  15
ENDBRANCH   9  13
BRANCH   8  14
ATOM     14  C   UNL     1       2.832  -0.589   1.158  0.00  0.00    +0.099 C 
BRANCH  14  16
ATOM      3  O   UNL     1       2.935  -2.974   1.549  0.00  0.00    -0.276 OA
ATOM      6  N   UNL     1       1.025  -2.055   0.596  0.00  0.00    -0.311 N 
ATOM     16  C   UNL     1       2.301  -2.006   1.137  0.00  0.00    +0.214 C 
ATOM     31  H   UNL     1       0.564  -1.191   0.333  0.00  0.00    +0.149 HD
BRANCH   6  19
ATOM     19  C   UNL     1       0.276  -3.283   0.452  0.00  0.00    +0.146 C 
BRANCH  19  21
ATOM      1  S   UNL     1      -1.112  -2.381  -1.779  0.00  0.00    -0.100 S 
ATOM     21  C   UNL     1      -1.054  -3.055  -0.206  0.00  0.00    +0.007 A 
ATOM     24  C   UNL     1      -2.312  -3.320   0.289  0.00  0.00    +0.013 A 
ATOM     27  C   UNL     1      -3.337  -2.965  -0.635  0.00  0.00    +0.008 A 
ATOM     28  C   UNL     1      -2.823  -2.442  -1.801  0.00  0.00    +0.045 A 
ENDBRANCH  19  21
ENDBRANCH   6  19
ENDBRANCH  14  16
ENDBRANCH   8  14
TORSDOF 7
