REMARK  Name = 45360662
REMARK  10 active torsions:
REMARK  status: ('A' for Active; 'I' for Inactive)
REMARK    1  A    between atoms: O_4  and  C_32
REMARK    2  A    between atoms: O_4  and  C_33
REMARK    3  A    between atoms: N_7  and  C_10
REMARK    4  A    between atoms: N_7  and  C_18
REMARK    5  A    between atoms: N_8  and  C_23
REMARK    6  A    between atoms: C_11  and  C_16
REMARK    7  A    between atoms: C_16  and  C_17
REMARK    8  A    between atoms: C_17  and  C_19
REMARK    9  A    between atoms: C_18  and  C_20
REMARK   10  A    between atoms: C_23  and  C_27
REMARK                            x       y       z     vdW  Elec       q    Type
REMARK                         _______ _______ _______ _____ _____    ______ ____
ROOT
ATOM      2  O   UNL     1      -0.408  -2.054   2.697  0.00  0.00    -0.274 OA
ATOM      5  N   UNL     1      -0.460   1.028   0.742  0.00  0.00    -0.286 NA
ATOM      6  N   UNL     1      -1.075   0.037   3.294  0.00  0.00    -0.313 N 
ATOM      9  C   UNL     1      -0.442  -0.428   0.932  0.00  0.00    +0.145 C 
ATOM     10  C   UNL     1       1.612   0.427  -0.041  0.00  0.00    +0.070 C 
ATOM     11  C   UNL     1      -1.447   1.728   1.557  0.00  0.00    +0.075 C 
ATOM     12  C   UNL     1       0.924  -0.871   0.386  0.00  0.00    +0.048 C 
ATOM     13  C   UNL     1       0.926   1.488   0.807  0.00  0.00    +0.104 C 
ATOM     14  C   UNL     1      -1.224   1.450   3.035  0.00  0.00    +0.123 C 
ATOM     15  C   UNL     1      -0.616  -0.879   2.379  0.00  0.00    +0.230 C 
ATOM     34  H   UNL     1      -1.207  -0.281   4.250  0.00  0.00    +0.149 HD
ENDROOT
BRANCH  10   7
ATOM      7  N   UNL     1       3.055   0.391   0.131  0.00  0.00    -0.308 NA
ATOM     35  H   UNL     1       3.413   1.346   0.147  0.00  0.00    +0.123 HD
BRANCH   7  18
ATOM     18  C   UNL     1       3.695  -0.333  -0.961  0.00  0.00    +0.116 C 
BRANCH  18  20
ATOM      1  F   UNL     1       9.287  -0.564  -0.344  0.00  0.00    -0.205 F 
ATOM     20  C   UNL     1       5.186  -0.395  -0.796  0.00  0.00    -0.033 A 
ATOM     21  C   UNL     1       5.989   0.608  -1.339  0.00  0.00    +0.008 A 
ATOM     22  C   UNL     1       5.768  -1.455  -0.101  0.00  0.00    +0.008 A 
ATOM     24  C   UNL     1       7.375   0.551  -1.186  0.00  0.00    +0.038 A 
ATOM     25  C   UNL     1       7.153  -1.512   0.051  0.00  0.00    +0.038 A 
ATOM     26  C   UNL     1       7.957  -0.509  -0.491  0.00  0.00    +0.123 A 
ENDBRANCH  18  20
ENDBRANCH   7  18
ENDBRANCH  10   7
BRANCH  11  16
ATOM     16  C   UNL     1      -1.486   3.232   1.280  0.00  0.00    +0.029 C 
BRANCH  16  17
ATOM     17  C   UNL     1      -1.666   3.514  -0.205  0.00  0.00    +0.097 C 
BRANCH  17  19
ATOM      3  O   UNL     1      -4.072   3.268  -0.318  0.00  0.00    -0.276 OA
ATOM      8  N   UNL     1      -2.740   2.022  -1.754  0.00  0.00    -0.311 N 
ATOM     19  C   UNL     1      -2.966   2.943  -0.742  0.00  0.00    +0.213 C 
ATOM     36  H   UNL     1      -1.790   1.789  -2.027  0.00  0.00    +0.149 HD
BRANCH   8  23
ATOM     23  C   UNL     1      -3.818   1.337  -2.428  0.00  0.00    +0.139 C 
BRANCH  23  27
ATOM     27  C   UNL     1      -4.177   0.048  -1.746  0.00  0.00    -0.030 A 
ATOM     28  C   UNL     1      -3.352  -1.069  -1.886  0.00  0.00    +0.009 A 
ATOM     29  C   UNL     1      -5.334  -0.033  -0.973  0.00  0.00    +0.009 A 
ATOM     30  C   UNL     1      -3.686  -2.266  -1.253  0.00  0.00    +0.046 A 
ATOM     31  C   UNL     1      -5.668  -1.230  -0.340  0.00  0.00    +0.046 A 
ATOM     32  C   UNL     1      -4.844  -2.346  -0.480  0.00  0.00    +0.120 A 
BRANCH  32   4
ATOM      4  O   UNL     1      -5.168  -3.514   0.139  0.00  0.00    -0.495 OA
ATOM     33  C   UNL     1      -4.280  -4.616  -0.046  0.00  0.00    +0.277 C 
ENDBRANCH  32   4
ENDBRANCH  23  27
ENDBRANCH   8  23
ENDBRANCH  17  19
ENDBRANCH  16  17
ENDBRANCH  11  16
TORSDOF 9
