REMARK  Name = 75536200
REMARK  6 active torsions:
REMARK  status: ('A' for Active; 'I' for Inactive)
REMARK    1  A    between atoms: N_2  and  C_16
REMARK    2  A    between atoms: C_5  and  C_7
REMARK    3  A    between atoms: C_6  and  C_9
REMARK    4  A    between atoms: C_6  and  C_12
REMARK    5  A    between atoms: C_6  and  C_13
REMARK    6  A    between atoms: C_6  and  C_14
REMARK                            x       y       z     vdW  Elec       q    Type
REMARK                         _______ _______ _______ _____ _____    ______ ____
ROOT
ATOM      3  N   UNL     1      -0.928   0.018   0.560  0.00  0.00    -0.344 N 
ATOM      4  N   UNL     1      -0.167   0.303  -1.507  0.00  0.00    -0.239 NA
ATOM      7  C   UNL     1       0.169   0.144  -0.246  0.00  0.00    +0.127 A 
ATOM      9  C   UNL     1      -2.034   0.103  -0.237  0.00  0.00    +0.041 A 
ATOM     15  C   UNL     1      -1.540   0.279  -1.508  0.00  0.00    +0.134 A 
ATOM     17  H   UNL     1      -0.913  -0.114   1.563  0.00  0.00    +0.167 HD
ENDROOT
BRANCH   7   5
ATOM      1  O   UNL     1       3.582   1.465   0.626  0.00  0.00    -0.377 OA
ATOM      2  N   UNL     1       2.411  -0.999  -0.241  0.00  0.00    -0.292 NA
ATOM      5  C   UNL     1       1.580   0.095   0.322  0.00  0.00    +0.149 C 
ATOM      8  C   UNL     1       2.263   1.456   0.081  0.00  0.00    +0.186 C 
ATOM     10  C   UNL     1       3.787  -0.914   0.279  0.00  0.00    +0.113 C 
ATOM     11  C   UNL     1       4.383   0.461   0.009  0.00  0.00    +0.175 C 
ATOM     16  C   UNL     1       1.862  -2.325   0.067  0.00  0.00    +0.105 C 
ENDBRANCH   7   5
BRANCH   9   6
ATOM      6  C   UNL     1      -3.404   0.008   0.291  0.00  0.00    +0.004 C 
ATOM     12  C   UNL     1      -4.191  -1.195  -0.334  0.00  0.00    +0.017 C 
ATOM     13  C   UNL     1      -3.533  -0.197   1.846  0.00  0.00    +0.017 C 
ATOM     14  C   UNL     1      -4.239   1.300  -0.009  0.00  0.00    +0.017 C 
ENDBRANCH   9   6
TORSDOF 2
