REMARK  Name = 45783776
REMARK  7 active torsions:
REMARK  status: ('A' for Active; 'I' for Inactive)
REMARK    1  A    between atoms: N_4  and  C_14
REMARK    2  A    between atoms: N_7  and  C_23
REMARK    3  A    between atoms: N_9  and  C_27
REMARK    4  A    between atoms: N_9  and  C_28
REMARK    5  A    between atoms: C_10  and  C_15
REMARK    6  A    between atoms: C_14  and  C_16
REMARK    7  A    between atoms: C_19  and  C_22
REMARK                            x       y       z     vdW  Elec       q    Type
REMARK                         _______ _______ _______ _____ _____    ______ ____
ROOT
ATOM      4  N   UNL     1      -3.633  -0.398  -0.700  0.00  0.00    -0.287 NA
ATOM     10  C   UNL     1      -3.318  -1.269   0.450  0.00  0.00    +0.146 C 
ATOM     11  C   UNL     1      -3.946  -2.629   0.094  0.00  0.00    +0.030 C 
ATOM     12  C   UNL     1      -4.641  -2.408  -1.242  0.00  0.00    +0.017 C 
ATOM     13  C   UNL     1      -4.873  -0.911  -1.281  0.00  0.00    +0.085 C 
ENDROOT
BRANCH  10  15
ATOM      1  O   UNL     1      -1.463  -1.623   2.002  0.00  0.00    -0.336 OA
ATOM      5  N   UNL     1      -0.827  -1.229  -0.110  0.00  0.00    -0.190 NA
ATOM      6  N   UNL     1      -0.063  -1.662   2.003  0.00  0.00    -0.056 NA
ATOM     15  C   UNL     1      -1.831  -1.363   0.720  0.00  0.00    +0.245 A 
ATOM     19  C   UNL     1       0.237  -1.421   0.723  0.00  0.00    +0.204 A 
BRANCH  19  22
ATOM      8  N   UNL     1       3.954  -1.524   0.715  0.00  0.00    -0.240 NA
ATOM     22  C   UNL     1       1.588  -1.366   0.244  0.00  0.00    +0.041 A 
ATOM     24  C   UNL     1       1.863  -1.114  -1.095  0.00  0.00    +0.016 A 
ATOM     25  C   UNL     1       2.659  -1.562   1.101  0.00  0.00    +0.124 A 
ATOM     26  C   UNL     1       3.183  -1.067  -1.530  0.00  0.00    +0.044 A 
ATOM     27  C   UNL     1       4.183  -1.277  -0.594  0.00  0.00    +0.118 A 
BRANCH  27   9
ATOM      9  N   UNL     1       5.522  -1.226  -1.053  0.00  0.00    -0.332 N 
ATOM     28  C   UNL     1       6.641  -1.425  -0.189  0.00  0.00    +0.127 C 
ATOM     29  H   UNL     1       5.683  -0.819  -1.968  0.00  0.00    +0.147 HD
ENDBRANCH  27   9
ENDBRANCH  19  22
ENDBRANCH  10  15
BRANCH   4  14
ATOM     14  C   UNL     1      -3.737   1.011  -0.342  0.00  0.00    +0.120 C 
BRANCH  14  16
ATOM     16  C   UNL     1      -2.384   1.658  -0.208  0.00  0.00    -0.033 A 
ATOM     17  C   UNL     1      -2.010   2.251   0.998  0.00  0.00    +0.007 A 
ATOM     18  C   UNL     1      -1.505   1.663  -1.291  0.00  0.00    +0.007 A 
ATOM     20  C   UNL     1      -0.757   2.850   1.120  0.00  0.00    +0.033 A 
ATOM     21  C   UNL     1      -0.251   2.263  -1.168  0.00  0.00    +0.033 A 
ATOM     23  C   UNL     1       0.123   2.856   0.038  0.00  0.00    +0.126 A 
BRANCH  23   7
ATOM      2  O   UNL     1       1.715   3.995   1.256  0.00  0.00    -0.126 OA
ATOM      3  O   UNL     1       2.175   3.461  -0.823  0.00  0.00    -0.126 OA
ATOM      7  N   UNL     1       1.399   3.467   0.163  0.00  0.00    +0.056 N 
ENDBRANCH  23   7
ENDBRANCH  14  16
ENDBRANCH   4  14
TORSDOF 6
