REMARK  Name = 26743460
REMARK  7 active torsions:
REMARK  status: ('A' for Active; 'I' for Inactive)
REMARK    1  A    between atoms: S_2  and  C_19
REMARK    2  A    between atoms: S_2  and  C_23
REMARK    3  A    between atoms: O_4  and  C_13
REMARK    4  A    between atoms: N_8  and  C_15
REMARK    5  A    between atoms: C_11  and  C_16
REMARK    6  A    between atoms: C_15  and  C_17
REMARK    7  A    between atoms: C_18  and  C_19
REMARK                            x       y       z     vdW  Elec       q    Type
REMARK                         _______ _______ _______ _____ _____    ______ ____
ROOT
ATOM      5  O   UNL     1      -1.884  -0.172  -2.226  0.00  0.00    -0.336 OA
ATOM      9  N   UNL     1      -1.001   1.032  -0.557  0.00  0.00    -0.193 NA
ATOM     10  N   UNL     1      -0.499  -0.178  -2.432  0.00  0.00    -0.060 NA
ATOM     16  C   UNL     1      -2.094   0.562  -1.102  0.00  0.00    +0.245 A 
ATOM     18  C   UNL     1      -0.048   0.552  -1.408  0.00  0.00    +0.193 A 
ENDROOT
BRANCH  16  11
ATOM      8  N   UNL     1      -3.759   0.233   0.719  0.00  0.00    -0.284 NA
ATOM     11  C   UNL     1      -3.533   0.720  -0.657  0.00  0.00    +0.149 C 
ATOM     12  C   UNL     1      -3.991   2.190  -0.635  0.00  0.00    +0.061 C 
ATOM     13  C   UNL     1      -4.500   2.423   0.782  0.00  0.00    +0.130 C 
ATOM     14  C   UNL     1      -4.856   1.030   1.265  0.00  0.00    +0.116 C 
BRANCH  13   4
ATOM      4  O   UNL     1      -5.625   3.280   0.776  0.00  0.00    -0.390 OA
ATOM     29  H   UNL     1      -5.346   4.127   0.388  0.00  0.00    +0.210 HD
ENDBRANCH  13   4
BRANCH   8  15
ATOM     15  C   UNL     1      -4.035  -1.196   0.784  0.00  0.00    +0.127 C 
BRANCH  15  17
ATOM      1  S   UNL     1      -2.606  -3.159  -0.574  0.00  0.00    -0.100 S 
ATOM     17  C   UNL     1      -2.775  -2.015   0.689  0.00  0.00    +0.004 A 
ATOM     20  C   UNL     1      -1.669  -1.985   1.510  0.00  0.00    +0.012 A 
ATOM     21  C   UNL     1      -0.670  -2.914   1.097  0.00  0.00    +0.008 A 
ATOM     22  C   UNL     1      -1.051  -3.618  -0.024  0.00  0.00    +0.045 A 
ENDBRANCH  15  17
ENDBRANCH   8  15
ENDBRANCH  16  11
BRANCH  18  19
ATOM     19  C   UNL     1       1.381   0.818  -1.213  0.00  0.00    +0.251 C 
BRANCH  19   2
ATOM      2  S   UNL     1       1.962  -0.166   0.141  0.00  0.00    +0.004 S 
ATOM      6  O   UNL     1       1.799  -1.560  -0.230  0.00  0.00    -0.169 OA
ATOM      7  O   UNL     1       1.375   0.343   1.366  0.00  0.00    -0.169 OA
BRANCH   2  23
ATOM      3  F   UNL     1       7.736   1.006   0.363  0.00  0.00    -0.205 F 
ATOM     23  C   UNL     1       3.692   0.185   0.208  0.00  0.00    +0.089 A 
ATOM     24  C   UNL     1       4.159   1.239   0.993  0.00  0.00    +0.030 A 
ATOM     25  C   UNL     1       4.590  -0.592  -0.524  0.00  0.00    +0.030 A 
ATOM     26  C   UNL     1       5.525   1.516   1.045  0.00  0.00    +0.040 A 
ATOM     27  C   UNL     1       5.955  -0.315  -0.471  0.00  0.00    +0.040 A 
ATOM     28  C   UNL     1       6.423   0.740   0.313  0.00  0.00    +0.124 A 
ENDBRANCH   2  23
ENDBRANCH  19   2
ENDBRANCH  18  19
TORSDOF 7
