REMARK  Name = 45783777
REMARK  6 active torsions:
REMARK  status: ('A' for Active; 'I' for Inactive)
REMARK    1  A    between atoms: N_4  and  C_13
REMARK    2  A    between atoms: N_8  and  C_27
REMARK    3  A    between atoms: N_8  and  C_28
REMARK    4  A    between atoms: C_9  and  C_14
REMARK    5  A    between atoms: C_13  and  C_15
REMARK    6  A    between atoms: C_18  and  C_22
REMARK                            x       y       z     vdW  Elec       q    Type
REMARK                         _______ _______ _______ _____ _____    ______ ____
ROOT
ATOM      4  N   UNL     1      -3.543  -0.396  -0.700  0.00  0.00    -0.287 NA
ATOM      9  C   UNL     1      -3.204  -1.430   0.299  0.00  0.00    +0.146 C 
ATOM     10  C   UNL     1      -3.755  -2.740  -0.293  0.00  0.00    +0.030 C 
ATOM     11  C   UNL     1      -4.745  -0.865  -1.389  0.00  0.00    +0.085 C 
ATOM     12  C   UNL     1      -4.437  -2.335  -1.592  0.00  0.00    +0.017 C 
ENDROOT
BRANCH   9  14
ATOM      1  O   UNL     1      -1.361  -1.947   1.818  0.00  0.00    -0.336 OA
ATOM      5  N   UNL     1      -0.709  -1.179  -0.182  0.00  0.00    -0.190 NA
ATOM      6  N   UNL     1       0.039  -1.919   1.850  0.00  0.00    -0.056 NA
ATOM     14  C   UNL     1      -1.719  -1.497   0.588  0.00  0.00    +0.245 A 
ATOM     18  C   UNL     1       0.348  -1.455   0.635  0.00  0.00    +0.204 A 
BRANCH  18  22
ATOM      7  N   UNL     1       4.065  -1.379   0.706  0.00  0.00    -0.240 NA
ATOM     22  C   UNL     1       1.703  -1.258   0.207  0.00  0.00    +0.041 A 
ATOM     24  C   UNL     1       1.989  -0.775  -1.065  0.00  0.00    +0.016 A 
ATOM     25  C   UNL     1       2.767  -1.542   1.047  0.00  0.00    +0.124 A 
ATOM     26  C   UNL     1       3.312  -0.594  -1.453  0.00  0.00    +0.044 A 
ATOM     27  C   UNL     1       4.305  -0.907  -0.538  0.00  0.00    +0.118 A 
BRANCH  27   8
ATOM      8  N   UNL     1       5.648  -0.718  -0.948  0.00  0.00    -0.332 N 
ATOM     28  C   UNL     1       6.759  -1.004  -0.100  0.00  0.00    +0.127 C 
ATOM     29  H   UNL     1       5.803  -0.157  -1.778  0.00  0.00    +0.147 HD
ENDBRANCH  27   8
ENDBRANCH  18  22
ENDBRANCH   9  14
BRANCH   4  13
ATOM     13  C   UNL     1      -3.726   0.927  -0.118  0.00  0.00    +0.120 C 
BRANCH  13  15
ATOM      2  O   UNL     1       0.664   2.762  -1.481  0.00  0.00    -0.453 OA
ATOM      3  O   UNL     1       1.206   3.453   0.763  0.00  0.00    -0.453 OA
ATOM     15  C   UNL     1      -2.410   1.606   0.155  0.00  0.00    -0.030 A 
ATOM     16  C   UNL     1      -1.516   1.833  -0.894  0.00  0.00    +0.054 A 
ATOM     17  C   UNL     1      -2.094   2.009   1.465  0.00  0.00    +0.009 A 
ATOM     19  C   UNL     1      -0.324   2.461  -0.595  0.00  0.00    +0.167 A 
ATOM     20  C   UNL     1      -0.880   2.643   1.740  0.00  0.00    +0.050 A 
ATOM     21  C   UNL     1      -0.015   2.855   0.687  0.00  0.00    +0.166 A 
ATOM     23  C   UNL     1       1.630   3.391  -0.614  0.00  0.00    +0.466 C 
ENDBRANCH  13  15
ENDBRANCH   4  13
TORSDOF 5
