REMARK  Name = 45784262
REMARK  3 active torsions:
REMARK  status: ('A' for Active; 'I' for Inactive)
REMARK    1  A    between atoms: N_4  and  C_7
REMARK    2  A    between atoms: C_8  and  C_17
REMARK    3  A    between atoms: C_22  and  C_24
REMARK                            x       y       z     vdW  Elec       q    Type
REMARK                         _______ _______ _______ _____ _____    ______ ____
ROOT
ATOM      5  N   UNL     1       1.252   0.700   1.185  0.00  0.00    -0.342 N 
ATOM      6  N   UNL     1       0.545   0.315  -0.886  0.00  0.00    -0.232 NA
ATOM     17  C   UNL     1       0.191   0.689   0.323  0.00  0.00    +0.113 A 
ATOM     18  C   UNL     1       2.365   0.308   0.486  0.00  0.00    +0.067 A 
ATOM     19  C   UNL     1       1.897   0.073  -0.804  0.00  0.00    +0.089 A 
ATOM     20  C   UNL     1       3.699   0.143   0.859  0.00  0.00    +0.040 A 
ATOM     21  C   UNL     1       2.800  -0.351  -1.794  0.00  0.00    +0.030 A 
ATOM     22  C   UNL     1       4.584  -0.280  -0.138  0.00  0.00    +0.057 A 
ATOM     23  C   UNL     1       4.145  -0.523  -1.441  0.00  0.00    +0.014 A 
ATOM     25  H   UNL     1       1.226   0.952   2.164  0.00  0.00    +0.167 HD
ENDROOT
BRANCH  17   8
ATOM      4  N   UNL     1      -3.472   0.664   0.387  0.00  0.00    -0.299 NA
ATOM      8  C   UNL     1      -1.197   1.073   0.781  0.00  0.00    +0.070 C 
ATOM      9  C   UNL     1      -2.218  -0.059   0.608  0.00  0.00    +0.096 C 
ATOM     10  C   UNL     1      -3.126   1.747  -0.533  0.00  0.00    +0.085 C 
ATOM     11  C   UNL     1      -1.814   2.271   0.038  0.00  0.00    +0.028 C 
BRANCH   4   7
ATOM      7  C   UNL     1      -4.528  -0.198  -0.141  0.00  0.00    +0.057 C 
ATOM     12  C   UNL     1      -5.775   0.637  -0.453  0.00  0.00    +0.019 C 
ATOM     13  C   UNL     1      -4.845  -1.309   0.866  0.00  0.00    +0.019 C 
ATOM     14  C   UNL     1      -6.927  -0.243  -0.936  0.00  0.00    +0.002 C 
ATOM     15  C   UNL     1      -5.998  -2.186   0.382  0.00  0.00    +0.002 C 
ATOM     16  C   UNL     1      -7.238  -1.358   0.058  0.00  0.00    +0.000 C 
ENDBRANCH   4   7
ENDBRANCH  17   8
BRANCH  22  24
ATOM      1  F   UNL     1       6.762  -0.888  -0.871  0.00  0.00    -0.166 F 
ATOM      2  F   UNL     1       6.638   0.658   0.652  0.00  0.00    -0.166 F 
ATOM      3  F   UNL     1       6.236  -1.409   1.173  0.00  0.00    -0.166 F 
ATOM     24  C   UNL     1       6.026  -0.475   0.200  0.00  0.00    +0.417 C 
ENDBRANCH  22  24
TORSDOF 3
