REMARK  Name = 38026677
REMARK  11 active torsions:
REMARK  status: ('A' for Active; 'I' for Inactive)
REMARK    1  A    between atoms: O_5  and  C_12
REMARK    2  A    between atoms: O_6  and  C_15
REMARK    3  A    between atoms: N_8  and  C_10
REMARK    4  A    between atoms: N_8  and  C_16
REMARK    5  A    between atoms: N_8  and  C_17
REMARK    6  A    between atoms: N_9  and  C_14
REMARK    7  A    between atoms: C_11  and  C_14
REMARK    8  A    between atoms: C_13  and  C_15
REMARK    9  A    between atoms: C_16  and  C_18
REMARK   10  A    between atoms: C_19  and  C_22
REMARK   11  A    between atoms: C_30  and  C_31
REMARK                            x       y       z     vdW  Elec       q    Type
REMARK                         _______ _______ _______ _____ _____    ______ ____
ROOT
ATOM      4  O   UNL     1      -0.749   2.665   0.496  0.00  0.00    -0.365 OA
ATOM     10  C   UNL     1      -2.879   1.614   0.662  0.00  0.00    +0.118 C 
ATOM     11  C   UNL     1      -1.368   1.362   0.578  0.00  0.00    +0.155 C 
ATOM     12  C   UNL     1      -3.039   2.963  -0.024  0.00  0.00    +0.165 C 
ATOM     13  C   UNL     1      -1.778   3.672   0.454  0.00  0.00    +0.174 C 
ENDROOT
BRANCH  12   5
ATOM      5  O   UNL     1      -3.029   2.832  -1.439  0.00  0.00    -0.388 OA
ATOM     32  H   UNL     1      -3.240   3.703  -1.817  0.00  0.00    +0.210 HD
ENDBRANCH  12   5
BRANCH  10   8
ATOM      8  N   UNL     1      -3.736   0.556   0.156  0.00  0.00    -0.293 NA
ATOM     17  C   UNL     1      -5.078   1.067  -0.137  0.00  0.00    +0.105 C 
BRANCH   8  16
ATOM     16  C   UNL     1      -3.818  -0.551   1.113  0.00  0.00    +0.119 C 
BRANCH  16  18
ATOM     18  C   UNL     1      -4.272  -1.828   0.456  0.00  0.00    -0.033 A 
ATOM     20  C   UNL     1      -5.632  -2.131   0.387  0.00  0.00    +0.005 A 
ATOM     21  C   UNL     1      -3.333  -2.707  -0.083  0.00  0.00    +0.005 A 
ATOM     23  C   UNL     1      -6.053  -3.313  -0.222  0.00  0.00    +0.000 A 
ATOM     24  C   UNL     1      -3.754  -3.889  -0.692  0.00  0.00    +0.000 A 
ATOM     25  C   UNL     1      -5.114  -4.193  -0.761  0.00  0.00    +0.000 A 
ENDBRANCH  16  18
ENDBRANCH   8  16
ENDBRANCH  10   8
BRANCH  11  14
ATOM     14  C   UNL     1      -0.875   0.551  -0.616  0.00  0.00    +0.137 C 
BRANCH  14   9
ATOM      7  O   UNL     1       0.577  -1.582   0.643  0.00  0.00    -0.270 OA
ATOM      9  N   UNL     1       0.547   0.391  -0.578  0.00  0.00    -0.309 N 
ATOM     19  C   UNL     1       1.171  -0.680   0.058  0.00  0.00    +0.244 C 
ATOM     33  H   UNL     1       1.100   1.139  -0.982  0.00  0.00    +0.149 HD
BRANCH  19  22
ATOM     22  C   UNL     1       2.656  -0.688   0.030  0.00  0.00    +0.037 A 
ATOM     26  C   UNL     1       3.370  -1.327   1.044  0.00  0.00    +0.013 A 
ATOM     27  C   UNL     1       3.337  -0.056  -1.011  0.00  0.00    +0.013 A 
ATOM     28  C   UNL     1       4.764  -1.333   1.018  0.00  0.00    +0.013 A 
ATOM     29  C   UNL     1       4.731  -0.063  -1.037  0.00  0.00    +0.013 A 
ATOM     30  C   UNL     1       5.445  -0.702  -0.023  0.00  0.00    +0.055 A 
BRANCH  30  31
ATOM      1  F   UNL     1       7.460  -1.305  -1.162  0.00  0.00    -0.166 F 
ATOM      2  F   UNL     1       7.478  -1.374   1.011  0.00  0.00    -0.166 F 
ATOM      3  F   UNL     1       7.490   0.539  -0.022  0.00  0.00    -0.166 F 
ATOM     31  C   UNL     1       6.936  -0.709  -0.051  0.00  0.00    +0.417 C 
ENDBRANCH  30  31
ENDBRANCH  19  22
ENDBRANCH  14   9
ENDBRANCH  11  14
BRANCH  13  15
ATOM     15  C   UNL     1      -1.311   4.828  -0.412  0.00  0.00    +0.190 C 
BRANCH  15   6
ATOM      6  O   UNL     1      -0.143   5.390   0.163  0.00  0.00    -0.392 OA
ATOM     34  H   UNL     1       0.132   6.128  -0.408  0.00  0.00    +0.210 HD
ENDBRANCH  15   6
ENDBRANCH  13  15
TORSDOF 10
