REMARK  Name = 45783955
REMARK  3 active torsions:
REMARK  status: ('A' for Active; 'I' for Inactive)
REMARK    1  A    between atoms: C_6  and  C_10
REMARK    2  A    between atoms: C_11  and  C_14
REMARK    3  A    between atoms: C_17  and  C_21
REMARK                            x       y       z     vdW  Elec       q    Type
REMARK                         _______ _______ _______ _____ _____    ______ ____
ROOT
ATOM      2  O   UNL     1       3.106   0.717   2.345  0.00  0.00    -0.270 OA
ATOM      3  N   UNL     1       1.768   1.328   0.548  0.00  0.00    -0.297 N 
ATOM      6  C   UNL     1      -0.080   1.888  -0.843  0.00  0.00    +0.094 C 
ATOM      7  C   UNL     1       0.118   2.982   0.217  0.00  0.00    +0.033 C 
ATOM      8  C   UNL     1       1.281   1.177  -0.824  0.00  0.00    +0.121 C 
ATOM      9  C   UNL     1       0.984   2.313   1.276  0.00  0.00    +0.109 C 
ATOM     11  C   UNL     1       2.778   0.607   1.165  0.00  0.00    +0.248 C 
ENDROOT
BRANCH   6  10
ATOM      1  O   UNL     1      -2.475   1.464  -1.075  0.00  0.00    -0.439 OA
ATOM      4  N   UNL     1      -1.365  -0.075   0.164  0.00  0.00    -0.213 NA
ATOM     10  C   UNL     1      -1.298   1.031  -0.543  0.00  0.00    +0.201 A 
ATOM     12  C   UNL     1      -2.696  -0.411   0.101  0.00  0.00    +0.110 A 
ATOM     13  C   UNL     1      -3.379   0.529  -0.657  0.00  0.00    +0.155 A 
ATOM     15  C   UNL     1      -3.409  -1.486   0.651  0.00  0.00    +0.035 A 
ATOM     16  C   UNL     1      -4.742   0.493  -0.922  0.00  0.00    +0.049 A 
ATOM     17  C   UNL     1      -4.788  -1.557   0.405  0.00  0.00    -0.048 A 
ATOM     18  C   UNL     1      -5.439  -0.586  -0.366  0.00  0.00    +0.007 A 
ATOM     21  C   UNL     1      -5.575  -2.690   0.977  0.00  0.00    +0.044 C 
ENDBRANCH   6  10
BRANCH  11  14
ATOM      5  N   UNL     1       4.894  -0.846  -1.573  0.00  0.00    -0.263 NA
ATOM     14  C   UNL     1       3.506  -0.378   0.350  0.00  0.00    +0.055 A 
ATOM     19  C   UNL     1       3.514  -1.726   0.692  0.00  0.00    +0.016 A 
ATOM     20  C   UNL     1       4.205   0.007  -0.782  0.00  0.00    +0.123 A 
ATOM     22  C   UNL     1       4.211  -2.634  -0.096  0.00  0.00    +0.020 A 
ATOM     23  C   UNL     1       4.879  -2.148  -1.208  0.00  0.00    +0.111 A 
ENDBRANCH  11  14
TORSDOF 2
