REMARK  Name = 71692850
REMARK  5 active torsions:
REMARK  status: ('A' for Active; 'I' for Inactive)
REMARK    1  A    between atoms: N_6  and  C_23
REMARK    2  A    between atoms: N_8  and  C_25
REMARK    3  A    between atoms: C_9  and  C_14
REMARK    4  A    between atoms: C_14  and  C_17
REMARK    5  A    between atoms: C_23  and  C_33
REMARK                            x       y       z     vdW  Elec       q    Type
REMARK                         _______ _______ _______ _____ _____    ______ ____
ROOT
ATOM      1  O   UNL     1       1.018   3.740  -0.856  0.00  0.00    -0.274 OA
ATOM      3  O   UNL     1      -0.467  -1.004   0.999  0.00  0.00    -0.488 OA
ATOM      5  N   UNL     1       2.325   2.281   0.376  0.00  0.00    -0.300 N 
ATOM      7  N   UNL     1      -0.698   1.883   1.272  0.00  0.00    -0.304 NA
ATOM      9  C   UNL     1       3.514  -0.299  -0.278  0.00  0.00    +0.008 C 
ATOM     10  C   UNL     1       2.411  -0.114   0.806  0.00  0.00    +0.032 C 
ATOM     11  C   UNL     1       3.413   0.853  -1.306  0.00  0.00    +0.023 C 
ATOM     12  C   UNL     1       2.498   1.287   1.441  0.00  0.00    +0.115 C 
ATOM     13  C   UNL     1       3.376   2.233  -0.644  0.00  0.00    +0.108 C 
ATOM     15  C   UNL     1       2.394  -1.191   1.858  0.00  0.00    -0.023 C 
ATOM     16  C   UNL     1       1.186   3.056   0.160  0.00  0.00    +0.229 C 
ATOM     18  C   UNL     1       1.401  -2.038   2.180  0.00  0.00    +0.010 C 
ATOM     19  C   UNL     1       0.116   3.094   1.236  0.00  0.00    +0.178 C 
ATOM     20  C   UNL     1      -0.010  -2.175   1.667  0.00  0.00    +0.256 C 
ATOM     21  C   UNL     1      -1.304   1.505  -0.002  0.00  0.00    +0.120 C 
ATOM     22  C   UNL     1      -2.236   0.314   0.146  0.00  0.00    +0.010 A 
ATOM     24  C   UNL     1      -1.789  -0.934   0.637  0.00  0.00    +0.125 A 
ATOM     25  C   UNL     1      -4.463  -0.620  -0.144  0.00  0.00    +0.030 A 
ATOM     26  C   UNL     1      -3.579   0.453  -0.242  0.00  0.00    +0.031 A 
ATOM     29  C   UNL     1      -2.686  -2.006   0.724  0.00  0.00    +0.048 A 
ATOM     30  C   UNL     1      -4.017  -1.846   0.336  0.00  0.00    +0.027 A 
ATOM     35  H   UNL     1      -1.430   2.007   1.973  0.00  0.00    +0.123 HD
ENDROOT
BRANCH  25   8
ATOM      4  O   UNL     1      -8.549  -0.245  -1.063  0.00  0.00    -0.377 OA
ATOM      8  N   UNL     1      -5.798  -0.464  -0.534  0.00  0.00    -0.326 N 
ATOM     27  C   UNL     1      -6.610   0.543   0.163  0.00  0.00    +0.133 C 
ATOM     28  C   UNL     1      -6.543  -1.610  -1.065  0.00  0.00    +0.133 C 
ATOM     31  C   UNL     1      -7.811   0.921  -0.698  0.00  0.00    +0.178 C 
ATOM     32  C   UNL     1      -7.748  -1.118  -1.859  0.00  0.00    +0.178 C 
ENDBRANCH  25   8
BRANCH   9  14
ATOM     14  C   UNL     1       4.941  -0.405   0.273  0.00  0.00    +0.100 C 
BRANCH  14  17
ATOM      2  O   UNL     1       5.538  -1.464  -1.818  0.00  0.00    -0.276 OA
ATOM      6  N   UNL     1       7.170  -1.129  -0.197  0.00  0.00    -0.316 N 
ATOM     17  C   UNL     1       5.884  -1.057  -0.713  0.00  0.00    +0.213 C 
ATOM     34  H   UNL     1       7.356  -0.755   0.729  0.00  0.00    +0.149 HD
BRANCH   6  23
ATOM     23  C   UNL     1       8.278  -1.707  -0.921  0.00  0.00    +0.101 C 
ATOM     33  C   UNL     1       8.845  -0.736  -1.936  0.00  0.00    +0.024 C 
ENDBRANCH   6  23
ENDBRANCH  14  17
ENDBRANCH   9  14
TORSDOF 4
