REMARK  Name = 11912171
REMARK  6 active torsions:
REMARK  status: ('A' for Active; 'I' for Inactive)
REMARK    1  A    between atoms: O_3  and  C_26
REMARK    2  A    between atoms: N_4  and  C_14
REMARK    3  A    between atoms: C_14  and  C_19
REMARK    4  A    between atoms: C_17  and  C_20
REMARK    5  A    between atoms: C_22  and  C_26
REMARK    6  A    between atoms: C_27  and  C_30
REMARK                            x       y       z     vdW  Elec       q    Type
REMARK                         _______ _______ _______ _____ _____    ______ ____
ROOT
ATOM      1  O   UNL     1      -1.504   2.135  -1.506  0.00  0.00    -0.267 OA
ATOM      4  N   UNL     1       3.203   0.584  -0.745  0.00  0.00    -0.294 NA
ATOM      5  N   UNL     1       0.420   2.041  -0.193  0.00  0.00    -0.311 N 
ATOM      7  C   UNL     1       2.663   3.024  -0.951  0.00  0.00    +0.024 C 
ATOM      8  C   UNL     1       2.491   1.932   1.234  0.00  0.00    +0.050 C 
ATOM      9  C   UNL     1       2.910   3.224   0.539  0.00  0.00    +0.017 C 
ATOM     10  C   UNL     1       3.491   1.829  -1.468  0.00  0.00    +0.090 C 
ATOM     11  C   UNL     1       3.350   0.760   0.708  0.00  0.00    +0.094 C 
ATOM     12  C   UNL     1       1.157   2.841  -1.182  0.00  0.00    +0.130 C 
ATOM     13  C   UNL     1       1.017   1.652   1.009  0.00  0.00    +0.026 A 
ATOM     15  C   UNL     1       0.293   1.020   1.946  0.00  0.00    +0.022 A 
ATOM     16  C   UNL     1      -0.935   1.779  -0.473  0.00  0.00    +0.259 A 
ATOM     17  C   UNL     1      -1.712   1.038   0.582  0.00  0.00    +0.047 A 
ATOM     18  C   UNL     1      -1.089   0.705   1.723  0.00  0.00    +0.015 A 
ENDROOT
BRANCH  17  20
ATOM     20  C   UNL     1      -3.124   0.673   0.376  0.00  0.00    -0.011 A 
ATOM     24  C   UNL     1      -3.451  -0.549  -0.214  0.00  0.00    +0.027 A 
ATOM     25  C   UNL     1      -4.136   1.548   0.771  0.00  0.00    +0.009 A 
ATOM     27  C   UNL     1      -4.789  -0.895  -0.407  0.00  0.00    +0.052 A 
ATOM     28  C   UNL     1      -5.474   1.202   0.578  0.00  0.00    +0.002 A 
ATOM     29  C   UNL     1      -5.800  -0.019  -0.012  0.00  0.00    +0.019 A 
BRANCH  27  30
ATOM      6  N   UNL     1      -5.396  -3.162  -1.504  0.00  0.00    -0.191 NA
ATOM     30  C   UNL     1      -5.124  -2.145  -1.012  0.00  0.00    +0.099 C 
ENDBRANCH  27  30
ENDBRANCH  17  20
BRANCH   4  14
ATOM     14  C   UNL     1       4.044  -0.509  -1.227  0.00  0.00    +0.158 C 
BRANCH  14  19
ATOM      2  O   UNL     1       2.356  -2.053  -0.493  0.00  0.00    -0.461 OA
ATOM     19  C   UNL     1       3.675  -1.808  -0.565  0.00  0.00    +0.119 A 
ATOM     21  C   UNL     1       4.424  -2.793  -0.020  0.00  0.00    +0.046 A 
ATOM     22  C   UNL     1       2.247  -3.256   0.129  0.00  0.00    +0.131 A 
ATOM     23  C   UNL     1       3.491  -3.752   0.441  0.00  0.00    +0.047 A 
BRANCH  22  26
ATOM     26  C   UNL     1       0.882  -3.761   0.335  0.00  0.00    +0.230 C 
BRANCH  26   3
ATOM      3  O   UNL     1       0.419  -3.286   1.600  0.00  0.00    -0.387 OA
ATOM     31  H   UNL     1      -0.485  -3.623   1.715  0.00  0.00    +0.210 HD
ENDBRANCH  26   3
ENDBRANCH  22  26
ENDBRANCH  14  19
ENDBRANCH   4  14
TORSDOF 6
