REMARK  Name = 11887237
REMARK  4 active torsions:
REMARK  status: ('A' for Active; 'I' for Inactive)
REMARK    1  A    between atoms: N_6  and  C_13
REMARK    2  A    between atoms: N_7  and  C_14
REMARK    3  A    between atoms: C_17  and  C_19
REMARK    4  A    between atoms: C_18  and  C_20
REMARK                            x       y       z     vdW  Elec       q    Type
REMARK                         _______ _______ _______ _____ _____    ______ ____
ROOT
ATOM      1  O   UNL     1      -0.592   3.248   0.897  0.00  0.00    -0.370 OA
ATOM      2  O   UNL     1      -0.196   0.215   1.631  0.00  0.00    -0.370 OA
ATOM     11  C   UNL     1       0.049   0.996   0.447  0.00  0.00    +0.176 C 
ATOM     12  C   UNL     1      -1.071   2.013   0.342  0.00  0.00    +0.171 C 
ATOM     13  C   UNL     1       1.307   1.825   0.627  0.00  0.00    +0.168 C 
ATOM     14  C   UNL     1      -2.175   1.444   1.204  0.00  0.00    +0.130 C 
ATOM     15  C   UNL     1       0.785   3.104   1.273  0.00  0.00    +0.190 C 
ATOM     16  C   UNL     1      -1.400   0.678   2.259  0.00  0.00    +0.185 C 
ENDROOT
BRANCH  13   6
ATOM      6  N   UNL     1       2.037   2.017  -0.628  0.00  0.00    -0.217 N 
ATOM      8  N   UNL     1       1.744   3.042  -1.434  0.00  0.00    -0.043 NA
ATOM      9  N   UNL     1       3.393   1.818  -2.300  0.00  0.00    -0.108 NA
ATOM     10  N   UNL     1       2.579   2.916  -2.458  0.00  0.00    -0.023 NA
ATOM     17  C   UNL     1       3.040   1.276  -1.157  0.00  0.00    +0.182 A 
BRANCH  17  19
ATOM      4  O   UNL     1       3.232  -3.551  -0.374  0.00  0.00    -0.453 OA
ATOM      5  O   UNL     1       5.103  -3.338   1.130  0.00  0.00    -0.453 OA
ATOM     19  C   UNL     1       3.600   0.098  -0.547  0.00  0.00    +0.024 A 
ATOM     21  C   UNL     1       3.056  -1.159  -0.830  0.00  0.00    +0.061 A 
ATOM     22  C   UNL     1       4.693   0.220   0.332  0.00  0.00    +0.015 A 
ATOM     23  C   UNL     1       3.627  -2.258  -0.220  0.00  0.00    +0.167 A 
ATOM     26  C   UNL     1       5.252  -0.909   0.936  0.00  0.00    +0.050 A 
ATOM     27  C   UNL     1       4.695  -2.136   0.638  0.00  0.00    +0.166 A 
ATOM     30  C   UNL     1       4.172  -4.230   0.483  0.00  0.00    +0.466 C 
ENDBRANCH  17  19
ENDBRANCH  13   6
BRANCH  14   7
ATOM      3  O   UNL     1      -4.919   0.811   1.768  0.00  0.00    -0.270 OA
ATOM      7  N   UNL     1      -3.031   0.566   0.443  0.00  0.00    -0.304 N 
ATOM     18  C   UNL     1      -4.350   0.320   0.796  0.00  0.00    +0.244 C 
ATOM     32  H   UNL     1      -2.595   0.036  -0.304  0.00  0.00    +0.149 HD
BRANCH  18  20
ATOM     20  C   UNL     1      -5.090  -0.629  -0.074  0.00  0.00    +0.037 A 
ATOM     24  C   UNL     1      -6.137  -1.349   0.464  0.00  0.00    +0.013 A 
ATOM     25  C   UNL     1      -4.707  -0.761  -1.393  0.00  0.00    +0.013 A 
ATOM     28  C   UNL     1      -6.831  -2.241  -0.353  0.00  0.00    +0.001 A 
ATOM     29  C   UNL     1      -5.401  -1.653  -2.210  0.00  0.00    +0.001 A 
ATOM     31  C   UNL     1      -6.464  -2.393  -1.690  0.00  0.00    +0.000 A 
ENDBRANCH  18  20
ENDBRANCH  14   7
TORSDOF 4
