REMARK  Name = 56774033
REMARK  11 active torsions:
REMARK  status: ('A' for Active; 'I' for Inactive)
REMARK    1  A    between atoms: N_3  and  C_9
REMARK    2  A    between atoms: N_5  and  C_19
REMARK    3  A    between atoms: N_6  and  C_18
REMARK    4  A    between atoms: N_6  and  C_21
REMARK    5  A    between atoms: N_6  and  C_22
REMARK    6  A    between atoms: C_7  and  C_12
REMARK    7  A    between atoms: C_7  and  C_13
REMARK    8  A    between atoms: C_8  and  C_11
REMARK    9  A    between atoms: C_11  and  C_14
REMARK   10  A    between atoms: C_17  and  C_18
REMARK   11  A    between atoms: C_19  and  C_20
REMARK                            x       y       z     vdW  Elec       q    Type
REMARK                         _______ _______ _______ _____ _____    ______ ____
ROOT
ATOM      7  C   UNL     1      -1.676   1.409  -0.192  0.00  0.00    -0.013 C 
ATOM      8  C   UNL     1      -0.264   0.899   0.167  0.00  0.00    +0.004 C 
ATOM      9  C   UNL     1      -2.223   0.117   0.450  0.00  0.00    +0.081 C 
ATOM     10  C   UNL     1      -0.855  -0.526   0.137  0.00  0.00    +0.027 C 
ATOM     12  C   UNL     1      -1.986   1.503  -1.675  0.00  0.00    +0.013 C 
ATOM     13  C   UNL     1      -2.044   2.704   0.496  0.00  0.00    +0.013 C 
ENDROOT
BRANCH   9   3
ATOM      2  O   UNL     1      -5.015   0.222   1.179  0.00  0.00    -0.253 OA
ATOM      3  N   UNL     1      -3.349  -0.519  -0.254  0.00  0.00    -0.296 N 
ATOM      5  N   UNL     1      -5.540  -1.099  -0.658  0.00  0.00    -0.300 N 
ATOM     15  C   UNL     1      -4.669  -0.408   0.180  0.00  0.00    +0.300 C 
ATOM     23  H   UNL     1      -3.181  -1.072  -1.091  0.00  0.00    +0.151 HD
ATOM     24  H   UNL     1      -5.159  -1.599  -1.456  0.00  0.00    +0.150 HD
BRANCH   5  19
ATOM     19  C   UNL     1      -6.965  -1.145  -0.433  0.00  0.00    +0.102 C 
ATOM     20  C   UNL     1      -7.326  -2.164   0.627  0.00  0.00    +0.024 C 
ENDBRANCH   5  19
ENDBRANCH   9   3
BRANCH   8  11
ATOM     11  C   UNL     1       0.838   1.150  -0.834  0.00  0.00    +0.063 C 
BRANCH  11  14
ATOM      1  O   UNL     1       4.044   1.011   0.816  0.00  0.00    -0.358 OA
ATOM      4  N   UNL     1       2.893   1.680   0.419  0.00  0.00    -0.083 NA
ATOM     14  C   UNL     1       2.177   0.770  -0.248  0.00  0.00    +0.084 A 
ATOM     16  C   UNL     1       2.820  -0.478  -0.304  0.00  0.00    +0.072 A 
ATOM     17  C   UNL     1       3.989  -0.274   0.380  0.00  0.00    +0.151 A 
BRANCH  17  18
ATOM     18  C   UNL     1       5.133  -1.129   0.715  0.00  0.00    +0.161 C 
BRANCH  18   6
ATOM      6  N   UNL     1       6.318  -0.869  -0.121  0.00  0.00    -0.301 NA
ATOM     21  C   UNL     1       7.524  -1.322   0.564  0.00  0.00    +0.105 C 
ATOM     22  C   UNL     1       6.174  -1.530  -1.413  0.00  0.00    +0.105 C 
ENDBRANCH  18   6
ENDBRANCH  17  18
ENDBRANCH  11  14
ENDBRANCH   8  11
TORSDOF 6
