REMARK  Name = 45361537
REMARK  10 active torsions:
REMARK  status: ('A' for Active; 'I' for Inactive)
REMARK    1  A    between atoms: O_1  and  C_10
REMARK    2  A    between atoms: O_4  and  C_27
REMARK    3  A    between atoms: O_4  and  C_28
REMARK    4  A    between atoms: N_5  and  C_14
REMARK    5  A    between atoms: C_7  and  C_17
REMARK    6  A    between atoms: C_9  and  C_19
REMARK    7  A    between atoms: C_12  and  C_18
REMARK    8  A    between atoms: C_18  and  C_20
REMARK    9  A    between atoms: C_18  and  C_21
REMARK   10  A    between atoms: C_22  and  C_27
REMARK                            x       y       z     vdW  Elec       q    Type
REMARK                         _______ _______ _______ _____ _____    ______ ____
ROOT
ATOM      7  C   UNL     1       1.171  -1.609   0.744  0.00  0.00    -0.027 C 
ATOM      8  C   UNL     1       1.131  -0.234  -0.002  0.00  0.00    +0.028 C 
ATOM      9  C   UNL     1      -0.277   0.006  -0.655  0.00  0.00    +0.012 C 
ATOM     10  C   UNL     1       2.348  -0.076  -0.958  0.00  0.00    +0.122 C 
ATOM     11  C   UNL     1       2.529  -1.764   1.470  0.00  0.00    +0.007 C 
ATOM     12  C   UNL     1       3.698  -0.334  -0.250  0.00  0.00    +0.029 C 
ATOM     13  C   UNL     1       0.058  -1.634   1.818  0.00  0.00    +0.009 C 
ATOM     14  C   UNL     1      -1.395  -0.095   0.420  0.00  0.00    +0.076 C 
ATOM     15  C   UNL     1       3.721  -1.648   0.530  0.00  0.00    +0.007 C 
ATOM     16  C   UNL     1      -1.329  -1.380   1.246  0.00  0.00    +0.023 C 
ATOM     17  C   UNL     1       0.980  -2.812  -0.215  0.00  0.00    +0.011 C 
ATOM     19  C   UNL     1      -0.396   1.356  -1.383  0.00  0.00    +0.010 C 
ENDROOT
BRANCH  14   5
ATOM      3  O   UNL     1      -3.761   1.048   1.630  0.00  0.00    -0.272 OA
ATOM      5  N   UNL     1      -2.715   0.006  -0.166  0.00  0.00    -0.309 N 
ATOM     22  C   UNL     1      -3.789   0.574   0.497  0.00  0.00    +0.251 C 
ATOM     34  H   UNL     1      -2.864  -0.415  -1.079  0.00  0.00    +0.149 HD
BRANCH  22  27
ATOM     27  C   UNL     1      -5.043   0.548  -0.349  0.00  0.00    +0.324 C 
BRANCH  27   4
ATOM      4  O   UNL     1      -6.122   1.143   0.340  0.00  0.00    -0.483 OA
BRANCH   4  28
ATOM     28  C   UNL     1      -7.384   0.678   0.053  0.00  0.00    +0.121 A 
ATOM     29  C   UNL     1      -7.670   0.177  -1.217  0.00  0.00    +0.045 A 
ATOM     30  C   UNL     1      -8.377   0.706   1.032  0.00  0.00    +0.045 A 
ATOM     31  C   UNL     1      -8.950  -0.295  -1.509  0.00  0.00    +0.004 A 
ATOM     32  C   UNL     1      -9.657   0.234   0.740  0.00  0.00    +0.004 A 
ATOM     33  C   UNL     1      -9.943  -0.267  -0.530  0.00  0.00    +0.000 A 
ENDBRANCH   4  28
ENDBRANCH  27   4
ENDBRANCH  22  27
ENDBRANCH  14   5
BRANCH  10   1
ATOM      1  O   UNL     1       2.395   1.264  -1.452  0.00  0.00    -0.391 OA
ATOM     35  H   UNL     1       2.488   1.863  -0.692  0.00  0.00    +0.210 HD
ENDBRANCH  10   1
BRANCH  12  18
ATOM     18  C   UNL     1       4.873  -0.301  -1.235  0.00  0.00    +0.078 C 
ATOM     20  C   UNL     1       4.729  -1.380  -2.294  0.00  0.00    +0.017 C 
BRANCH  18  21
ATOM      2  O   UNL     1       6.621  -1.629  -0.311  0.00  0.00    -0.275 OA
ATOM      6  N   UNL     1       6.730   0.652   0.040  0.00  0.00    -0.301 N 
ATOM     21  C   UNL     1       6.154  -0.499  -0.465  0.00  0.00    +0.219 C 
ATOM     23  C   UNL     1       7.964   0.630   0.811  0.00  0.00    +0.108 C 
ATOM     24  C   UNL     1       6.231   2.015  -0.110  0.00  0.00    +0.108 C 
ATOM     25  C   UNL     1       8.399   2.086   0.876  0.00  0.00    +0.020 C 
ATOM     26  C   UNL     1       7.073   2.836   0.856  0.00  0.00    +0.020 C 
ENDBRANCH  18  21
ENDBRANCH  12  18
TORSDOF 7
