REMARK  Name = 71693987
REMARK  8 active torsions:
REMARK  status: ('A' for Active; 'I' for Inactive)
REMARK    1  A    between atoms: O_4  and  C_12
REMARK    2  A    between atoms: O_5  and  C_14
REMARK    3  A    between atoms: O_7  and  C_20
REMARK    4  A    between atoms: O_7  and  C_23
REMARK    5  A    between atoms: N_8  and  C_11
REMARK    6  A    between atoms: C_10  and  C_15
REMARK    7  A    between atoms: C_18  and  C_20
REMARK    8  A    between atoms: C_21  and  C_22
REMARK                            x       y       z     vdW  Elec       q    Type
REMARK                         _______ _______ _______ _____ _____    ______ ____
ROOT
ATOM     10  C   UNL     1       0.987  -1.270   1.008  0.00  0.00    +0.046 C 
ATOM     11  C   UNL     1       2.045  -0.821  -0.026  0.00  0.00    +0.111 C 
ATOM     12  C   UNL     1       3.104  -1.920   0.049  0.00  0.00    +0.164 C 
ATOM     13  C   UNL     1       1.172  -2.802   1.163  0.00  0.00    +0.044 C 
ATOM     14  C   UNL     1       2.275  -3.192   0.181  0.00  0.00    +0.145 C 
ENDROOT
BRANCH  10  15
ATOM      9  N   UNL     1      -2.419   0.387   1.209  0.00  0.00    -0.251 NA
ATOM     15  C   UNL     1      -0.419  -0.845   0.640  0.00  0.00    -0.024 A 
ATOM     16  C   UNL     1      -1.005  -1.264  -0.549  0.00  0.00    +0.007 A 
ATOM     17  C   UNL     1      -1.161  -0.028   1.477  0.00  0.00    +0.115 A 
ATOM     19  C   UNL     1      -2.299  -0.857  -0.861  0.00  0.00    +0.032 A 
ATOM     21  C   UNL     1      -2.957  -0.040   0.044  0.00  0.00    +0.144 A 
BRANCH  21  22
ATOM      1  F   UNL     1      -5.264   0.023   0.674  0.00  0.00    -0.164 F 
ATOM      2  F   UNL     1      -4.471   1.774  -0.331  0.00  0.00    -0.164 F 
ATOM      3  F   UNL     1      -4.806  -0.060  -1.450  0.00  0.00    -0.164 F 
ATOM     22  C   UNL     1      -4.346   0.416  -0.257  0.00  0.00    +0.434 C 
ENDBRANCH  21  22
ENDBRANCH  10  15
BRANCH  11   8
ATOM      6  O   UNL     1       1.137   1.742  -1.012  0.00  0.00    -0.273 OA
ATOM      8  N   UNL     1       2.591   0.475   0.288  0.00  0.00    -0.307 N 
ATOM     18  C   UNL     1       2.085   1.657  -0.237  0.00  0.00    +0.239 C 
ATOM     24  H   UNL     1       3.347   0.525   0.965  0.00  0.00    +0.149 HD
BRANCH  18  20
ATOM     20  C   UNL     1       2.847   2.866   0.262  0.00  0.00    +0.255 C 
BRANCH  20   7
ATOM      7  O   UNL     1       2.305   4.053  -0.276  0.00  0.00    -0.374 OA
ATOM     23  C   UNL     1       3.004   5.209   0.176  0.00  0.00    +0.194 C 
ENDBRANCH  20   7
ENDBRANCH  18  20
ENDBRANCH  11   8
BRANCH  12   4
ATOM      4  O   UNL     1       3.919  -1.959  -1.107  0.00  0.00    -0.387 OA
ATOM     25  H   UNL     1       4.500  -2.735  -1.029  0.00  0.00    +0.210 HD
ENDBRANCH  12   4
BRANCH  14   5
ATOM      5  O   UNL     1       1.676  -3.542  -1.063  0.00  0.00    -0.389 OA
ATOM     26  H   UNL     1       1.130  -4.332  -0.912  0.00  0.00    +0.210 HD
ENDBRANCH  14   5
TORSDOF 7
