REMARK  Name = 9424556
REMARK  4 active torsions:
REMARK  status: ('A' for Active; 'I' for Inactive)
REMARK    1  A    between atoms: N_7  and  C_16
REMARK    2  A    between atoms: C_18  and  C_21
REMARK    3  A    between atoms: C_22  and  C_25
REMARK    4  A    between atoms: C_33  and  C_34
REMARK                            x       y       z     vdW  Elec       q    Type
REMARK                         _______ _______ _______ _____ _____    ______ ____
ROOT
ATOM      2  O   UNL     1      -4.331  -1.909  -2.286  0.00  0.00    -0.268 OA
ATOM      3  O   UNL     1      -3.991   2.354   0.664  0.00  0.00    -0.270 OA
ATOM      5  N   UNL     1      -2.717   0.677   1.683  0.00  0.00    -0.297 N 
ATOM      6  N   UNL     1      -2.939  -1.702  -0.414  0.00  0.00    -0.310 N 
ATOM      9  C   UNL     1      -3.879  -1.508   1.962  0.00  0.00    +0.027 C 
ATOM     10  C   UNL     1      -1.447  -1.452   1.597  0.00  0.00    +0.055 C 
ATOM     11  C   UNL     1      -2.563  -2.147   2.378  0.00  0.00    +0.018 C 
ATOM     12  C   UNL     1      -3.874   0.001   2.270  0.00  0.00    +0.113 C 
ATOM     13  C   UNL     1      -4.105  -1.796   0.476  0.00  0.00    +0.130 C 
ATOM     14  C   UNL     1      -1.419   0.044   1.967  0.00  0.00    +0.117 C 
ATOM     15  C   UNL     1      -1.628  -1.605   0.089  0.00  0.00    +0.048 A 
ATOM     16  C   UNL     1      -0.581  -1.606  -0.768  0.00  0.00    +0.054 A 
ATOM     17  C   UNL     1      -3.209  -1.805  -1.791  0.00  0.00    +0.252 A 
ATOM     18  C   UNL     1      -2.909   1.821   0.905  0.00  0.00    +0.247 C 
ATOM     19  C   UNL     1      -0.805  -1.713  -2.189  0.00  0.00    +0.030 A 
ATOM     20  C   UNL     1      -2.035  -1.798  -2.698  0.00  0.00    +0.072 A 
ENDROOT
BRANCH  18  21
ATOM      1  F   UNL     1       1.589   4.207  -1.404  0.00  0.00    -0.205 F 
ATOM     21  C   UNL     1      -1.728   2.446   0.300  0.00  0.00    +0.037 A 
ATOM     23  C   UNL     1      -1.309   2.051  -0.967  0.00  0.00    +0.016 A 
ATOM     24  C   UNL     1      -1.033   3.433   0.996  0.00  0.00    +0.016 A 
ATOM     26  C   UNL     1      -0.186   2.647  -1.544  0.00  0.00    +0.039 A 
ATOM     27  C   UNL     1       0.089   4.028   0.419  0.00  0.00    +0.039 A 
ATOM     28  C   UNL     1       0.512   3.635  -0.850  0.00  0.00    +0.123 A 
ENDBRANCH  18  21
BRANCH  16   7
ATOM      4  O   UNL     1       1.508  -0.335  -2.238  0.00  0.00    -0.270 OA
ATOM      7  N   UNL     1       0.723  -1.481  -0.373  0.00  0.00    -0.280 N 
ATOM     22  C   UNL     1       1.691  -0.849  -1.137  0.00  0.00    +0.248 C 
ATOM     35  H   UNL     1       0.928  -1.651   0.605  0.00  0.00    +0.155 HD
BRANCH  22  25
ATOM     25  C   UNL     1       3.047  -0.791  -0.532  0.00  0.00    +0.037 A 
ATOM     29  C   UNL     1       3.893   0.237  -0.893  0.00  0.00    +0.014 A 
ATOM     30  C   UNL     1       3.416  -1.767   0.369  0.00  0.00    +0.014 A 
ATOM     31  C   UNL     1       5.166   0.291  -0.326  0.00  0.00    +0.019 A 
ATOM     32  C   UNL     1       4.689  -1.713   0.936  0.00  0.00    +0.019 A 
ATOM     33  C   UNL     1       5.565  -0.684   0.589  0.00  0.00    +0.052 A 
BRANCH  33  34
ATOM      8  N   UNL     1       7.930  -0.584   1.641  0.00  0.00    -0.191 NA
ATOM     34  C   UNL     1       6.869  -0.629   1.169  0.00  0.00    +0.099 C 
ENDBRANCH  33  34
ENDBRANCH  22  25
ENDBRANCH  16   7
TORSDOF 4
