REMARK  Name = 51137729
REMARK  5 active torsions:
REMARK  status: ('A' for Active; 'I' for Inactive)
REMARK    1  A    between atoms: O_3  and  C_20
REMARK    2  A    between atoms: O_3  and  C_26
REMARK    3  A    between atoms: C_7  and  C_11
REMARK    4  A    between atoms: C_12  and  C_13
REMARK    5  A    between atoms: C_14  and  C_17
REMARK                            x       y       z     vdW  Elec       q    Type
REMARK                         _______ _______ _______ _____ _____    ______ ____
ROOT
ATOM      2  O   UNL     1       1.724   1.010   2.829  0.00  0.00    -0.270 OA
ATOM      4  N   UNL     1       0.915   1.928   0.855  0.00  0.00    -0.297 N 
ATOM      7  C   UNL     1      -0.493   2.773  -0.868  0.00  0.00    +0.095 C 
ATOM      8  C   UNL     1      -0.549   3.708   0.350  0.00  0.00    +0.033 C 
ATOM      9  C   UNL     1       0.798   1.984  -0.603  0.00  0.00    +0.121 C 
ATOM     10  C   UNL     1      -0.007   2.856   1.490  0.00  0.00    +0.109 C 
ATOM     12  C   UNL     1       1.711   1.073   1.601  0.00  0.00    +0.247 C 
ENDROOT
BRANCH  12  13
ATOM     13  C   UNL     1       2.600   0.159   0.869  0.00  0.00    +0.037 A 
ATOM     15  C   UNL     1       3.578   0.671   0.016  0.00  0.00    +0.016 A 
ATOM     16  C   UNL     1       2.466  -1.221   1.025  0.00  0.00    +0.016 A 
ATOM     18  C   UNL     1       4.421  -0.195  -0.680  0.00  0.00    +0.046 A 
ATOM     19  C   UNL     1       3.309  -2.087   0.330  0.00  0.00    +0.046 A 
ATOM     20  C   UNL     1       4.286  -1.575  -0.523  0.00  0.00    +0.120 A 
BRANCH  20   3
ATOM      3  O   UNL     1       5.109  -2.421  -1.201  0.00  0.00    -0.495 OA
ATOM     26  C   UNL     1       6.086  -1.829  -2.056  0.00  0.00    +0.277 C 
ENDBRANCH  20   3
ENDBRANCH  12  13
BRANCH   7  11
ATOM      1  O   UNL     1      -1.802   0.753  -0.383  0.00  0.00    -0.420 OA
ATOM      5  N   UNL     1      -2.872   2.245  -1.660  0.00  0.00    -0.112 NA
ATOM      6  N   UNL     1      -3.715   1.167  -1.466  0.00  0.00    -0.107 NA
ATOM     11  C   UNL     1      -1.768   1.960  -1.010  0.00  0.00    +0.222 A 
ATOM     14  C   UNL     1      -3.049   0.321  -0.715  0.00  0.00    +0.248 A 
BRANCH  14  17
ATOM     17  C   UNL     1      -3.425  -0.964  -0.201  0.00  0.00    +0.038 A 
ATOM     21  C   UNL     1      -4.685  -1.489  -0.489  0.00  0.00    +0.013 A 
ATOM     22  C   UNL     1      -2.531  -1.688   0.588  0.00  0.00    +0.013 A 
ATOM     23  C   UNL     1      -5.051  -2.738   0.012  0.00  0.00    +0.001 A 
ATOM     24  C   UNL     1      -2.898  -2.938   1.089  0.00  0.00    +0.001 A 
ATOM     25  C   UNL     1      -4.157  -3.463   0.800  0.00  0.00    +0.000 A 
ENDBRANCH  14  17
ENDBRANCH   7  11
TORSDOF 4
