REMARK  Name = 28961245
REMARK  10 active torsions:
REMARK  status: ('A' for Active; 'I' for Inactive)
REMARK    1  A    between atoms: O_4  and  C_10
REMARK    2  A    between atoms: O_5  and  C_15
REMARK    3  A    between atoms: N_6  and  C_8
REMARK    4  A    between atoms: N_7  and  C_12
REMARK    5  A    between atoms: N_7  and  C_19
REMARK    6  A    between atoms: N_7  and  C_20
REMARK    7  A    between atoms: C_9  and  C_12
REMARK    8  A    between atoms: C_11  and  C_15
REMARK    9  A    between atoms: C_19  and  C_23
REMARK   10  A    between atoms: C_20  and  C_24
REMARK                            x       y       z     vdW  Elec       q    Type
REMARK                         _______ _______ _______ _____ _____    ______ ____
ROOT
ATOM      3  O   UNL     1       0.479  -0.440  -1.927  0.00  0.00    -0.366 OA
ATOM      8  C   UNL     1      -1.765   0.279  -1.590  0.00  0.00    +0.118 C 
ATOM      9  C   UNL     1      -0.306   0.515  -1.179  0.00  0.00    +0.152 C 
ATOM     10  C   UNL     1      -1.767  -1.180  -2.023  0.00  0.00    +0.165 C 
ATOM     11  C   UNL     1      -0.405  -1.274  -2.700  0.00  0.00    +0.174 C 
ENDROOT
BRANCH   8   6
ATOM      6  N   UNL     1      -2.781   0.637  -0.602  0.00  0.00    -0.290 NA
ATOM     13  C   UNL     1      -2.988   2.091  -0.571  0.00  0.00    +0.090 C 
ATOM     14  C   UNL     1      -4.050  -0.051  -0.898  0.00  0.00    +0.120 C 
ATOM     16  C   UNL     1      -3.896   2.462   0.606  0.00  0.00    +0.051 C 
ATOM     17  C   UNL     1      -5.188   0.379   0.000  0.00  0.00    -0.030 A 
ATOM     18  C   UNL     1      -5.131   1.605   0.686  0.00  0.00    -0.042 A 
ATOM     21  C   UNL     1      -6.336  -0.418   0.104  0.00  0.00    +0.005 A 
ATOM     22  C   UNL     1      -6.207   1.997   1.492  0.00  0.00    +0.004 A 
ATOM     25  C   UNL     1      -7.405  -0.014   0.902  0.00  0.00    +0.000 A 
ATOM     26  C   UNL     1      -7.340   1.191   1.597  0.00  0.00    +0.000 A 
ENDBRANCH   8   6
BRANCH  10   4
ATOM      4  O   UNL     1      -1.826  -2.055  -0.904  0.00  0.00    -0.388 OA
ATOM     37  H   UNL     1      -0.949  -2.129  -0.499  0.00  0.00    +0.210 HD
ENDBRANCH  10   4
BRANCH   9  12
ATOM     12  C   UNL     1       0.029   0.320   0.295  0.00  0.00    +0.118 C 
BRANCH  12   7
ATOM      7  N   UNL     1       1.434   0.598   0.552  0.00  0.00    -0.291 NA
BRANCH   7  19
ATOM     19  C   UNL     1       1.677   2.042   0.594  0.00  0.00    +0.120 C 
BRANCH  19  23
ATOM      1  F   UNL     1       7.064   3.296  -0.483  0.00  0.00    -0.205 F 
ATOM     23  C   UNL     1       3.117   2.377   0.306  0.00  0.00    -0.033 A 
ATOM     27  C   UNL     1       3.696   3.511   0.875  0.00  0.00    +0.008 A 
ATOM     29  C   UNL     1       3.871   1.553  -0.529  0.00  0.00    +0.008 A 
ATOM     31  C   UNL     1       5.029   3.822   0.608  0.00  0.00    +0.038 A 
ATOM     33  C   UNL     1       5.205   1.864  -0.795  0.00  0.00    +0.038 A 
ATOM     35  C   UNL     1       5.783   2.998  -0.227  0.00  0.00    +0.123 A 
ENDBRANCH  19  23
ENDBRANCH   7  19
BRANCH   7  20
ATOM     20  C   UNL     1       1.865  -0.024   1.807  0.00  0.00    +0.120 C 
BRANCH  20  24
ATOM      2  F   UNL     1       2.714  -5.563   1.221  0.00  0.00    -0.205 F 
ATOM     24  C   UNL     1       2.092  -1.504   1.650  0.00  0.00    -0.033 A 
ATOM     28  C   UNL     1       1.888  -2.359   2.733  0.00  0.00    +0.008 A 
ATOM     30  C   UNL     1       2.506  -2.020   0.422  0.00  0.00    +0.008 A 
ATOM     32  C   UNL     1       2.098  -3.730   2.589  0.00  0.00    +0.038 A 
ATOM     34  C   UNL     1       2.716  -3.392   0.278  0.00  0.00    +0.038 A 
ATOM     36  C   UNL     1       2.512  -4.247   1.361  0.00  0.00    +0.123 A 
ENDBRANCH  20  24
ENDBRANCH   7  20
ENDBRANCH  12   7
ENDBRANCH   9  12
BRANCH  11  15
ATOM     15  C   UNL     1       0.181  -2.670  -2.796  0.00  0.00    +0.190 C 
BRANCH  15   5
ATOM      5  O   UNL     1       1.436  -2.597  -3.455  0.00  0.00    -0.392 OA
ATOM     38  H   UNL     1       1.788  -3.502  -3.502  0.00  0.00    +0.210 HD
ENDBRANCH  15   5
ENDBRANCH  11  15
TORSDOF 10
