REMARK  Name = 45783562
REMARK  10 active torsions:
REMARK  status: ('A' for Active; 'I' for Inactive)
REMARK    1  A    between atoms: O_2  and  C_16
REMARK    2  A    between atoms: O_3  and  C_26
REMARK    3  A    between atoms: O_3  and  C_27
REMARK    4  A    between atoms: O_4  and  C_28
REMARK    5  A    between atoms: O_4  and  C_29
REMARK    6  A    between atoms: N_5  and  C_13
REMARK    7  A    between atoms: C_9  and  C_14
REMARK    8  A    between atoms: C_13  and  C_15
REMARK    9  A    between atoms: C_18  and  C_21
REMARK   10  A    between atoms: C_27  and  C_28
REMARK                            x       y       z     vdW  Elec       q    Type
REMARK                         _______ _______ _______ _____ _____    ______ ____
ROOT
ATOM      1  O   UNL     1      -1.935  -0.529   2.114  0.00  0.00    -0.336 OA
ATOM      6  N   UNL     1      -1.089  -1.175   0.143  0.00  0.00    -0.190 NA
ATOM      7  N   UNL     1      -0.576  -0.195   2.146  0.00  0.00    -0.056 NA
ATOM     14  C   UNL     1      -2.154  -1.101   0.901  0.00  0.00    +0.245 A 
ATOM     18  C   UNL     1      -0.146  -0.607   0.949  0.00  0.00    +0.204 A 
ENDROOT
BRANCH  18  21
ATOM      8  N   UNL     1       3.466   0.275   1.022  0.00  0.00    -0.221 NA
ATOM     21  C   UNL     1       1.219  -0.467   0.529  0.00  0.00    +0.041 A 
ATOM     23  C   UNL     1       1.632  -0.909  -0.723  0.00  0.00    +0.018 A 
ATOM     24  C   UNL     1       2.167   0.113   1.357  0.00  0.00    +0.126 A 
ATOM     25  C   UNL     1       2.961  -0.760  -1.103  0.00  0.00    +0.068 A 
ATOM     26  C   UNL     1       3.830  -0.166  -0.203  0.00  0.00    +0.215 A 
BRANCH  26   3
ATOM      3  O   UNL     1       5.145  -0.007  -0.554  0.00  0.00    -0.474 OA
BRANCH   3  27
ATOM     27  C   UNL     1       5.995   0.607   0.407  0.00  0.00    +0.258 C 
BRANCH  27  28
ATOM     28  C   UNL     1       7.404   0.674  -0.149  0.00  0.00    +0.200 C 
BRANCH  28   4
ATOM      4  O   UNL     1       7.866  -0.648  -0.403  0.00  0.00    -0.380 OA
ATOM     29  C   UNL     1       9.178  -0.645  -0.948  0.00  0.00    +0.194 C 
ENDBRANCH  28   4
ENDBRANCH  27  28
ENDBRANCH   3  27
ENDBRANCH  26   3
ENDBRANCH  18  21
BRANCH  14   9
ATOM      5  N   UNL     1      -4.132  -0.933  -0.600  0.00  0.00    -0.287 NA
ATOM      9  C   UNL     1      -3.569  -1.557   0.615  0.00  0.00    +0.146 C 
ATOM     10  C   UNL     1      -3.666  -3.072   0.356  0.00  0.00    +0.030 C 
ATOM     11  C   UNL     1      -4.349  -3.202  -0.998  0.00  0.00    +0.017 C 
ATOM     12  C   UNL     1      -5.093  -1.890  -1.149  0.00  0.00    +0.085 C 
BRANCH   5  13
ATOM     13  C   UNL     1      -4.737   0.369  -0.348  0.00  0.00    +0.124 C 
BRANCH  13  15
ATOM     15  C   UNL     1      -3.704   1.459  -0.254  0.00  0.00    +0.008 A 
ATOM     16  C   UNL     1      -2.839   1.716  -1.318  0.00  0.00    +0.121 A 
ATOM     17  C   UNL     1      -3.616   2.217   0.914  0.00  0.00    +0.008 A 
ATOM     19  C   UNL     1      -1.886   2.729  -1.213  0.00  0.00    +0.046 A 
ATOM     20  C   UNL     1      -2.664   3.230   1.019  0.00  0.00    +0.001 A 
ATOM     22  C   UNL     1      -1.799   3.487  -0.045  0.00  0.00    +0.004 A 
BRANCH  16   2
ATOM      2  O   UNL     1      -2.910   0.985  -2.466  0.00  0.00    -0.506 OA
ATOM     30  H   UNL     1      -2.232   1.303  -3.086  0.00  0.00    +0.292 HD
ENDBRANCH  16   2
ENDBRANCH  13  15
ENDBRANCH   5  13
ENDBRANCH  14   9
TORSDOF 9
