REMARK  Name = 56775821
REMARK  8 active torsions:
REMARK  status: ('A' for Active; 'I' for Inactive)
REMARK    1  A    between atoms: O_4  and  C_27
REMARK    2  A    between atoms: O_4  and  C_28
REMARK    3  A    between atoms: N_5  and  C_8
REMARK    4  A    between atoms: N_5  and  C_13
REMARK    5  A    between atoms: C_8  and  C_11
REMARK    6  A    between atoms: C_11  and  C_12
REMARK    7  A    between atoms: C_13  and  C_21
REMARK    8  A    between atoms: C_20  and  C_22
REMARK                            x       y       z     vdW  Elec       q    Type
REMARK                         _______ _______ _______ _____ _____    ______ ____
ROOT
ATOM      1  O   UNL     1      -1.411  -4.002   1.710  0.00  0.00    -0.376 OA
ATOM      8  C   UNL     1      -0.960  -2.598   0.167  0.00  0.00    +0.072 C 
ATOM      9  C   UNL     1      -0.335  -3.065   1.477  0.00  0.00    +0.184 C 
ATOM     10  C   UNL     1      -2.007  -3.673   0.435  0.00  0.00    +0.184 C 
ENDROOT
BRANCH   8   5
ATOM      5  N   UNL     1      -1.566  -1.290   0.377  0.00  0.00    -0.302 NA
ATOM     29  H   UNL     1      -0.912  -0.537   0.581  0.00  0.00    +0.123 HD
BRANCH   5  13
ATOM     13  C   UNL     1      -2.384  -0.934  -0.780  0.00  0.00    +0.117 C 
BRANCH  13  21
ATOM     21  C   UNL     1      -3.469   0.045  -0.420  0.00  0.00    -0.033 A 
ATOM     23  C   UNL     1      -4.608  -0.392   0.256  0.00  0.00    +0.008 A 
ATOM     24  C   UNL     1      -3.335   1.391  -0.761  0.00  0.00    +0.008 A 
ATOM     25  C   UNL     1      -5.613   0.515   0.590  0.00  0.00    +0.046 A 
ATOM     26  C   UNL     1      -4.340   2.299  -0.427  0.00  0.00    +0.046 A 
ATOM     27  C   UNL     1      -5.479   1.861   0.248  0.00  0.00    +0.120 A 
BRANCH  27   4
ATOM      4  O   UNL     1      -6.459   2.747   0.575  0.00  0.00    -0.495 OA
ATOM     28  C   UNL     1      -6.257   4.108   0.195  0.00  0.00    +0.277 C 
ENDBRANCH  27   4
ENDBRANCH  13  21
ENDBRANCH   5  13
ENDBRANCH   8   5
BRANCH   8  11
ATOM     11  C   UNL     1      -0.131  -2.673  -1.122  0.00  0.00    +0.085 C 
BRANCH  11  12
ATOM      2  O   UNL     1       3.176  -1.446  -0.560  0.00  0.00    -0.350 OA
ATOM      7  N   UNL     1       2.220  -2.454  -0.541  0.00  0.00    -0.082 NA
ATOM     12  C   UNL     1       1.106  -1.883  -1.005  0.00  0.00    +0.086 A 
ATOM     19  C   UNL     1       1.296  -0.528  -1.329  0.00  0.00    +0.081 A 
ATOM     20  C   UNL     1       2.614  -0.304  -1.031  0.00  0.00    +0.222 A 
BRANCH  20  22
ATOM      3  O   UNL     1       3.168   1.684  -2.033  0.00  0.00    -0.267 OA
ATOM      6  N   UNL     1       4.506   1.042  -0.227  0.00  0.00    -0.295 N 
ATOM     14  C   UNL     1       5.775   1.734  -0.491  0.00  0.00    +0.108 C 
ATOM     15  C   UNL     1       4.410   0.428   1.098  0.00  0.00    +0.108 C 
ATOM     16  C   UNL     1       6.030   2.806   0.565  0.00  0.00    +0.019 C 
ATOM     17  C   UNL     1       4.642   1.468   2.192  0.00  0.00    +0.019 C 
ATOM     18  C   UNL     1       5.957   2.219   1.975  0.00  0.00    +0.003 C 
ATOM     22  C   UNL     1       3.455   0.895  -1.134  0.00  0.00    +0.285 C 
ENDBRANCH  20  22
ENDBRANCH  11  12
ENDBRANCH   8  11
TORSDOF 7
