REMARK  Name = 51136663
REMARK  11 active torsions:
REMARK  status: ('A' for Active; 'I' for Inactive)
REMARK    1  A    between atoms: O_2  and  C_17
REMARK    2  A    between atoms: O_4  and  C_28
REMARK    3  A    between atoms: O_4  and  C_29
REMARK    4  A    between atoms: C_7  and  C_12
REMARK    5  A    between atoms: C_8  and  C_13
REMARK    6  A    between atoms: C_12  and  C_15
REMARK    7  A    between atoms: C_13  and  C_17
REMARK    8  A    between atoms: C_14  and  C_16
REMARK    9  A    between atoms: C_16  and  C_19
REMARK   10  A    between atoms: C_16  and  C_20
REMARK   11  A    between atoms: C_16  and  C_21
REMARK                            x       y       z     vdW  Elec       q    Type
REMARK                         _______ _______ _______ _____ _____    ______ ____
ROOT
ATOM      1  O   UNL     1      -2.269  -3.029   0.451  0.00  0.00    -0.275 OA
ATOM      5  N   UNL     1      -2.666  -0.760   0.138  0.00  0.00    -0.301 N 
ATOM      7  C   UNL     1      -0.636   0.637   0.387  0.00  0.00    +0.016 C 
ATOM      8  C   UNL     1      -1.385   1.847  -0.224  0.00  0.00    +0.006 C 
ATOM      9  C   UNL     1      -1.601  -0.351   1.058  0.00  0.00    +0.112 C 
ATOM     10  C   UNL     1      -2.507   1.340  -1.148  0.00  0.00    +0.023 C 
ATOM     11  C   UNL     1      -3.433   0.341  -0.456  0.00  0.00    +0.108 C 
ATOM     14  C   UNL     1      -2.926  -2.117  -0.058  0.00  0.00    +0.221 C 
ENDROOT
BRANCH  14  16
ATOM     16  C   UNL     1      -4.088  -2.461  -0.956  0.00  0.00    +0.039 C 
ATOM     19  C   UNL     1      -3.809  -1.863  -2.335  0.00  0.00    +0.020 C 
ATOM     20  C   UNL     1      -5.364  -1.862  -0.362  0.00  0.00    +0.020 C 
ATOM     21  C   UNL     1      -4.208  -3.983  -1.047  0.00  0.00    +0.020 C 
ENDBRANCH  14  16
BRANCH   7  12
ATOM     12  C   UNL     1       0.473   1.046   1.355  0.00  0.00    +0.061 C 
BRANCH  12  15
ATOM      6  N   UNL     1       1.298  -0.949   2.408  0.00  0.00    -0.287 NA
ATOM     15  C   UNL     1       1.483  -0.069   1.479  0.00  0.00    +0.044 C 
ATOM     18  C   UNL     1       2.635  -0.098   0.542  0.00  0.00    -0.001 A 
ATOM     22  C   UNL     1       3.732  -0.886   0.914  0.00  0.00    -0.033 A 
ATOM     23  C   UNL     1       3.678  -1.625   2.219  0.00  0.00    +0.059 C 
ATOM     24  C   UNL     1       2.246  -2.066   2.489  0.00  0.00    +0.146 C 
ATOM     25  C   UNL     1       2.656   0.626  -0.651  0.00  0.00    +0.013 A 
ATOM     26  C   UNL     1       4.863  -0.925   0.095  0.00  0.00    +0.050 A 
ATOM     27  C   UNL     1       3.785   0.569  -1.470  0.00  0.00    +0.046 A 
ATOM     28  C   UNL     1       4.886  -0.201  -1.097  0.00  0.00    +0.120 A 
BRANCH  28   4
ATOM      4  O   UNL     1       5.987  -0.245  -1.898  0.00  0.00    -0.495 OA
ATOM     29  C   UNL     1       5.944   0.520  -3.101  0.00  0.00    +0.277 C 
ENDBRANCH  28   4
ENDBRANCH  12  15
ENDBRANCH   7  12
BRANCH   8  13
ATOM     13  C   UNL     1      -1.935   2.831   0.816  0.00  0.00    +0.124 C 
BRANCH  13  17
ATOM      3  O   UNL     1      -1.993   4.518  -0.942  0.00  0.00    -0.251 OA
ATOM     17  C   UNL     1      -2.183   4.188   0.219  0.00  0.00    +0.305 C 
BRANCH  17   2
ATOM      2  O   UNL     1      -2.663   5.027   1.173  0.00  0.00    -0.481 OA
ATOM     30  H   UNL     1      -2.836   5.925   0.817  0.00  0.00    +0.295 HD
ENDBRANCH  17   2
ENDBRANCH  13  17
ENDBRANCH   8  13
TORSDOF 7
