REMARK  Name = 40475061
REMARK  6 active torsions:
REMARK  status: ('A' for Active; 'I' for Inactive)
REMARK    1  A    between atoms: S_1  and  N_9
REMARK    2  A    between atoms: S_1  and  C_28
REMARK    3  A    between atoms: O_6  and  C_37
REMARK    4  A    between atoms: O_6  and  C_38
REMARK    5  A    between atoms: N_9  and  C_20
REMARK    6  A    between atoms: C_19  and  C_22
REMARK                            x       y       z     vdW  Elec       q    Type
REMARK                         _______ _______ _______ _____ _____    ______ ____
ROOT
ATOM      2  O   UNL     1       0.244   3.825  -0.900  0.00  0.00    -0.266 OA
ATOM      3  O   UNL     1       3.090  -0.164  -2.585  0.00  0.00    -0.270 OA
ATOM      7  N   UNL     1       3.819   0.365  -0.425  0.00  0.00    -0.297 N 
ATOM      8  N   UNL     1       1.821   2.685   0.405  0.00  0.00    -0.310 N 
ATOM     10  C   UNL     1       4.338   2.771  -0.056  0.00  0.00    +0.027 C 
ATOM     11  C   UNL     1       3.481   1.405   1.805  0.00  0.00    +0.054 C 
ATOM     12  C   UNL     1       4.478   2.503   1.439  0.00  0.00    +0.018 C 
ATOM     13  C   UNL     1       4.640   1.494  -0.861  0.00  0.00    +0.113 C 
ATOM     14  C   UNL     1       2.928   3.308  -0.332  0.00  0.00    +0.130 C 
ATOM     15  C   UNL     1       3.822   0.118   1.026  0.00  0.00    +0.117 C 
ATOM     16  C   UNL     1       2.059   1.830   1.490  0.00  0.00    +0.027 A 
ATOM     17  C   UNL     1       1.034   1.359   2.225  0.00  0.00    +0.024 A 
ATOM     18  C   UNL     1       0.516   3.067   0.031  0.00  0.00    +0.274 A 
ATOM     19  C   UNL     1       3.097  -0.366  -1.372  0.00  0.00    +0.247 C 
ATOM     20  C   UNL     1      -0.573   2.496   0.864  0.00  0.00    +0.112 A 
ATOM     21  C   UNL     1      -0.325   1.700   1.904  0.00  0.00    +0.031 A 
ENDROOT
BRANCH  19  22
ATOM     22  C   UNL     1       2.250  -1.463  -0.892  0.00  0.00    +0.037 A 
ATOM     23  C   UNL     1       2.775  -2.751  -0.781  0.00  0.00    +0.021 A 
ATOM     24  C   UNL     1       0.923  -1.220  -0.549  0.00  0.00    +0.013 A 
ATOM     25  C   UNL     1       1.978  -3.813  -0.324  0.00  0.00    -0.017 A 
ATOM     26  C   UNL     1       0.117  -2.263  -0.093  0.00  0.00    +0.009 A 
ATOM     27  C   UNL     1       0.629  -3.565   0.025  0.00  0.00    -0.018 A 
ATOM     29  C   UNL     1       2.490  -5.115  -0.206  0.00  0.00    +0.008 A 
ATOM     30  C   UNL     1      -0.168  -4.628   0.481  0.00  0.00    +0.008 A 
ATOM     33  C   UNL     1       1.683  -6.159   0.249  0.00  0.00    +0.001 A 
ATOM     34  C   UNL     1       0.357  -5.915   0.593  0.00  0.00    +0.001 A 
ENDBRANCH  19  22
BRANCH  20   9
ATOM      9  N   UNL     1      -1.916   2.796   0.575  0.00  0.00    -0.211 N 
ATOM     39  H   UNL     1      -2.551   2.579   1.356  0.00  0.00    +0.174 HD
BRANCH   9   1
ATOM      1  S   UNL     1      -2.495   2.346  -0.951  0.00  0.00    +0.073 S 
ATOM      4  O   UNL     1      -3.095   3.494  -1.603  0.00  0.00    -0.150 OA
ATOM      5  O   UNL     1      -1.493   1.555  -1.640  0.00  0.00    -0.150 OA
BRANCH   1  28
ATOM     28  C   UNL     1      -3.807   1.251  -0.494  0.00  0.00    +0.109 A 
ATOM     31  C   UNL     1      -3.554  -0.111  -0.332  0.00  0.00    +0.032 A 
ATOM     32  C   UNL     1      -5.096   1.750  -0.300  0.00  0.00    +0.032 A 
ATOM     35  C   UNL     1      -4.590  -0.975   0.025  0.00  0.00    +0.047 A 
ATOM     36  C   UNL     1      -6.131   0.886   0.057  0.00  0.00    +0.047 A 
ATOM     37  C   UNL     1      -5.878  -0.476   0.219  0.00  0.00    +0.120 A 
BRANCH  37   6
ATOM      6  O   UNL     1      -6.888  -1.319   0.567  0.00  0.00    -0.495 OA
ATOM     38  C   UNL     1      -6.560  -2.700   0.717  0.00  0.00    +0.277 C 
ENDBRANCH  37   6
ENDBRANCH   1  28
ENDBRANCH   9   1
ENDBRANCH  20   9
TORSDOF 5
