REMARK  Name = 28961842
REMARK  11 active torsions:
REMARK  status: ('A' for Active; 'I' for Inactive)
REMARK    1  A    between atoms: O_3  and  C_11
REMARK    2  A    between atoms: O_4  and  C_17
REMARK    3  A    between atoms: O_4  and  C_20
REMARK    4  A    between atoms: O_5  and  C_18
REMARK    5  A    between atoms: N_6  and  C_8
REMARK    6  A    between atoms: N_7  and  C_16
REMARK    7  A    between atoms: N_7  and  C_19
REMARK    8  A    between atoms: C_9  and  C_16
REMARK    9  A    between atoms: C_10  and  C_17
REMARK   10  A    between atoms: C_13  and  C_18
REMARK   11  A    between atoms: C_19  and  C_21
REMARK                            x       y       z     vdW  Elec       q    Type
REMARK                         _______ _______ _______ _____ _____    ______ ____
ROOT
ATOM      2  O   UNL     1       0.232  -1.788   0.954  0.00  0.00    -0.366 OA
ATOM      8  C   UNL     1       2.244  -0.766   0.197  0.00  0.00    +0.118 C 
ATOM      9  C   UNL     1       0.783  -0.504   0.584  0.00  0.00    +0.152 C 
ATOM     11  C   UNL     1       2.226  -2.221  -0.246  0.00  0.00    +0.165 C 
ATOM     13  C   UNL     1       1.231  -2.805   0.750  0.00  0.00    +0.174 C 
ENDROOT
BRANCH   8   6
ATOM      6  N   UNL     1       2.834   0.163  -0.751  0.00  0.00    -0.289 NA
ATOM     10  C   UNL     1       3.204   1.474  -0.208  0.00  0.00    +0.083 C 
ATOM     12  C   UNL     1       4.017  -0.376  -1.420  0.00  0.00    +0.085 C 
ATOM     14  C   UNL     1       4.012   2.050  -1.369  0.00  0.00    +0.022 C 
ATOM     15  C   UNL     1       4.721   0.850  -1.988  0.00  0.00    +0.017 C 
BRANCH  10  17
ATOM     17  C   UNL     1       4.019   1.460   1.089  0.00  0.00    +0.178 C 
BRANCH  17   4
ATOM      4  O   UNL     1       4.401   2.789   1.398  0.00  0.00    -0.381 OA
ATOM     20  C   UNL     1       5.165   2.852   2.597  0.00  0.00    +0.194 C 
ENDBRANCH  17   4
ENDBRANCH  10  17
ENDBRANCH   8   6
BRANCH  11   3
ATOM      3  O   UNL     1       1.736  -2.355  -1.573  0.00  0.00    -0.388 OA
ATOM     27  H   UNL     1       1.848  -3.284  -1.836  0.00  0.00    +0.210 HD
ENDBRANCH  11   3
BRANCH   9  16
ATOM     16  C   UNL     1      -0.117   0.080  -0.499  0.00  0.00    +0.114 C 
BRANCH  16   7
ATOM      7  N   UNL     1      -1.464   0.300   0.006  0.00  0.00    -0.310 NA
ATOM     28  H   UNL     1      -1.428   0.943   0.797  0.00  0.00    +0.122 HD
BRANCH   7  19
ATOM     19  C   UNL     1      -2.327   0.849  -1.032  0.00  0.00    +0.116 C 
BRANCH  19  21
ATOM      1 CL   UNL     1      -6.966  -1.135   0.276  0.00  0.00    -0.084 Cl
ATOM     21  C   UNL     1      -3.730   1.073  -0.533  0.00  0.00    -0.032 A 
ATOM     22  C   UNL     1      -4.596  -0.008  -0.377  0.00  0.00    +0.025 A 
ATOM     23  C   UNL     1      -4.163   2.364  -0.228  0.00  0.00    +0.005 A 
ATOM     24  C   UNL     1      -5.896   0.200   0.086  0.00  0.00    +0.041 A 
ATOM     25  C   UNL     1      -5.462   2.572   0.234  0.00  0.00    +0.002 A 
ATOM     26  C   UNL     1      -6.329   1.490   0.391  0.00  0.00    +0.020 A 
ENDBRANCH  19  21
ENDBRANCH   7  19
ENDBRANCH  16   7
ENDBRANCH   9  16
BRANCH  13  18
ATOM     18  C   UNL     1       0.553  -4.093   0.317  0.00  0.00    +0.190 C 
BRANCH  18   5
ATOM      5  O   UNL     1      -0.328  -4.515   1.345  0.00  0.00    -0.392 OA
ATOM     29  H   UNL     1      -0.745  -5.341   1.044  0.00  0.00    +0.210 HD
ENDBRANCH  18   5
ENDBRANCH  13  18
TORSDOF 10
