REMARK  Name = 7143905
REMARK  3 active torsions:
REMARK  status: ('A' for Active; 'I' for Inactive)
REMARK    1  A    between atoms: S_1  and  N_5
REMARK    2  A    between atoms: S_1  and  C_20
REMARK    3  A    between atoms: C_18  and  C_21
REMARK                            x       y       z     vdW  Elec       q    Type
REMARK                         _______ _______ _______ _____ _____    ______ ____
ROOT
ATOM      4  O   UNL     1      -2.897   0.860  -1.773  0.00  0.00    -0.267 OA
ATOM      5  N   UNL     1       1.804   0.007  -0.352  0.00  0.00    -0.176 NA
ATOM      6  N   UNL     1      -1.109   1.229  -0.322  0.00  0.00    -0.311 N 
ATOM      9  C   UNL     1       1.095   2.285  -1.089  0.00  0.00    +0.025 C 
ATOM     10  C   UNL     1       0.813   1.621   1.259  0.00  0.00    +0.052 C 
ATOM     11  C   UNL     1       1.192   2.784   0.346  0.00  0.00    +0.017 C 
ATOM     12  C   UNL     1       2.061   1.112  -1.320  0.00  0.00    +0.114 C 
ATOM     13  C   UNL     1       1.816   0.469   1.068  0.00  0.00    +0.119 C 
ATOM     14  C   UNL     1      -0.362   1.911  -1.388  0.00  0.00    +0.130 C 
ATOM     15  C   UNL     1      -0.599   1.143   0.976  0.00  0.00    +0.026 A 
ATOM     16  C   UNL     1      -1.348   0.620   1.960  0.00  0.00    +0.022 A 
ATOM     17  C   UNL     1      -2.400   0.769  -0.649  0.00  0.00    +0.259 A 
ATOM     18  C   UNL     1      -3.201   0.155   0.468  0.00  0.00    +0.050 A 
ATOM     19  C   UNL     1      -2.665   0.115   1.696  0.00  0.00    +0.015 A 
ENDROOT
BRANCH  18  21
ATOM      7  N   UNL     1      -6.928  -0.114   0.136  0.00  0.00    -0.243 NA
ATOM      8  N   UNL     1      -5.950  -2.259  -0.361  0.00  0.00    -0.243 NA
ATOM     21  C   UNL     1      -4.544  -0.401   0.227  0.00  0.00    +0.024 A 
ATOM     26  C   UNL     1      -5.684   0.363   0.349  0.00  0.00    +0.122 A 
ATOM     27  C   UNL     1      -4.736  -1.717  -0.133  0.00  0.00    +0.122 A 
ATOM     29  C   UNL     1      -6.987  -1.413  -0.211  0.00  0.00    +0.221 A 
ENDBRANCH  18  21
BRANCH   5   1
ATOM      1  S   UNL     1       2.635  -1.456  -0.661  0.00  0.00    +0.061 S 
ATOM      2  O   UNL     1       2.678  -1.684  -2.090  0.00  0.00    -0.153 OA
ATOM      3  O   UNL     1       2.144  -2.477   0.241  0.00  0.00    -0.153 OA
BRANCH   1  20
ATOM     20  C   UNL     1       4.260  -1.005  -0.138  0.00  0.00    +0.105 A 
ATOM     22  C   UNL     1       4.630  -1.213   1.180  0.00  0.00    +0.028 A 
ATOM     23  C   UNL     1       5.138  -0.452  -1.056  0.00  0.00    +0.028 A 
ATOM     24  C   UNL     1       5.913  -0.856   1.594  0.00  0.00    +0.002 A 
ATOM     25  C   UNL     1       6.422  -0.095  -0.642  0.00  0.00    +0.002 A 
ATOM     28  C   UNL     1       6.809  -0.297   0.682  0.00  0.00    +0.000 A 
ENDBRANCH   1  20
ENDBRANCH   5   1
TORSDOF 3
