REMARK  Name = 51137308
REMARK  5 active torsions:
REMARK  status: ('A' for Active; 'I' for Inactive)
REMARK    1  A    between atoms: N_4  and  C_13
REMARK    2  A    between atoms: N_7  and  C_21
REMARK    3  A    between atoms: C_9  and  C_14
REMARK    4  A    between atoms: C_13  and  C_15
REMARK    5  A    between atoms: C_18  and  C_22
REMARK                            x       y       z     vdW  Elec       q    Type
REMARK                         _______ _______ _______ _____ _____    ______ ____
ROOT
ATOM      4  N   UNL     1      -1.105  -0.771  -0.269  0.00  0.00    -0.297 NA
ATOM      9  C   UNL     1       0.889  -1.858   0.315  0.00  0.00    +0.092 C 
ATOM     10  C   UNL     1       0.281  -1.193   1.562  0.00  0.00    +0.029 C 
ATOM     11  C   UNL     1       0.158  -1.208  -0.867  0.00  0.00    +0.097 C 
ATOM     12  C   UNL     1      -0.731  -0.191   1.021  0.00  0.00    +0.085 C 
ENDROOT
BRANCH   9  14
ATOM      1  O   UNL     1       2.919  -0.499   0.160  0.00  0.00    -0.420 OA
ATOM      5  N   UNL     1       3.295  -2.704   0.152  0.00  0.00    -0.112 NA
ATOM      6  N   UNL     1       4.516  -2.062   0.060  0.00  0.00    -0.107 NA
ATOM     14  C   UNL     1       2.393  -1.753   0.208  0.00  0.00    +0.222 A 
ATOM     18  C   UNL     1       4.248  -0.777   0.068  0.00  0.00    +0.248 A 
BRANCH  18  22
ATOM      8  N   UNL     1       6.829   2.567  -0.145  0.00  0.00    -0.263 NA
ATOM     22  C   UNL     1       5.124   0.356  -0.004  0.00  0.00    +0.041 A 
ATOM     23  C   UNL     1       6.498   0.172  -0.099  0.00  0.00    +0.033 A 
ATOM     24  C   UNL     1       4.601   1.645   0.021  0.00  0.00    +0.033 A 
ATOM     25  C   UNL     1       7.301   1.300  -0.166  0.00  0.00    +0.111 A 
ATOM     26  C   UNL     1       5.488   2.706  -0.052  0.00  0.00    +0.111 A 
ENDBRANCH  18  22
ENDBRANCH   9  14
BRANCH   4  13
ATOM     13  C   UNL     1      -1.823   0.172  -1.113  0.00  0.00    +0.119 C 
BRANCH  13  15
ATOM     15  C   UNL     1      -3.274   0.279  -0.727  0.00  0.00    -0.033 A 
ATOM     16  C   UNL     1      -4.168  -0.730  -1.086  0.00  0.00    +0.007 A 
ATOM     17  C   UNL     1      -3.725   1.387  -0.010  0.00  0.00    +0.007 A 
ATOM     19  C   UNL     1      -5.513  -0.630  -0.729  0.00  0.00    +0.033 A 
ATOM     20  C   UNL     1      -5.069   1.487   0.347  0.00  0.00    +0.033 A 
ATOM     21  C   UNL     1      -5.963   0.479  -0.012  0.00  0.00    +0.126 A 
BRANCH  21   7
ATOM      2  O   UNL     1      -8.120  -0.338   0.018  0.00  0.00    -0.126 OA
ATOM      3  O   UNL     1      -7.717   1.585   0.996  0.00  0.00    -0.126 OA
ATOM      7  N   UNL     1      -7.332   0.580   0.351  0.00  0.00    +0.056 N 
ENDBRANCH  21   7
ENDBRANCH  13  15
ENDBRANCH   4  13
TORSDOF 5
