REMARK  Name = 26743120
REMARK  13 active torsions:
REMARK  status: ('A' for Active; 'I' for Inactive)
REMARK    1  A    between atoms: S_1  and  C_21
REMARK    2  A    between atoms: S_1  and  C_28
REMARK    3  A    between atoms: O_4  and  C_25
REMARK    4  A    between atoms: O_4  and  C_33
REMARK    5  A    between atoms: O_5  and  C_27
REMARK    6  A    between atoms: O_5  and  C_34
REMARK    7  A    between atoms: N_7  and  C_20
REMARK    8  A    between atoms: C_9  and  C_15
REMARK    9  A    between atoms: C_10  and  C_14
REMARK   10  A    between atoms: C_14  and  C_16
REMARK   11  A    between atoms: C_15  and  C_17
REMARK   12  A    between atoms: C_19  and  C_21
REMARK   13  A    between atoms: C_20  and  C_22
REMARK                            x       y       z     vdW  Elec       q    Type
REMARK                         _______ _______ _______ _____ _____    ______ ____
ROOT
ATOM      6  N   UNL     1      -3.565   2.962   0.783  0.00  0.00    -0.316 NA
ATOM      9  C   UNL     1      -0.913   3.801  -0.134  0.00  0.00    +0.004 C 
ATOM     10  C   UNL     1      -1.253   2.311   0.111  0.00  0.00    +0.012 C 
ATOM     11  C   UNL     1      -1.818   4.718   0.703  0.00  0.00    +0.019 C 
ATOM     12  C   UNL     1      -2.765   2.093  -0.082  0.00  0.00    +0.085 C 
ATOM     13  C   UNL     1      -3.294   4.373   0.509  0.00  0.00    +0.081 C 
ATOM     36  H   UNL     1      -3.366   2.761   1.761  0.00  0.00    +0.122 HD
ENDROOT
BRANCH  10  14
ATOM     14  C   UNL     1      -0.799   1.789   1.481  0.00  0.00    +0.064 C 
BRANCH  14  16
ATOM      3  O   UNL     1       0.225  -1.655   1.264  0.00  0.00    -0.359 OA
ATOM      8  N   UNL     1       0.466  -0.291   1.153  0.00  0.00    -0.083 NA
ATOM     16  C   UNL     1      -0.688   0.292   1.487  0.00  0.00    +0.084 A 
ATOM     18  C   UNL     1      -1.684  -0.644   1.814  0.00  0.00    +0.071 A 
ATOM     19  C   UNL     1      -1.059  -1.853   1.658  0.00  0.00    +0.148 A 
BRANCH  19  21
ATOM     21  C   UNL     1      -1.486  -3.247   1.826  0.00  0.00    +0.151 C 
BRANCH  21   1
ATOM      1  S   UNL     1      -1.810  -4.097   0.241  0.00  0.00    -0.117 S 
BRANCH   1  28
ATOM     28  C   UNL     1      -3.021  -3.005  -0.491  0.00  0.00    +0.008 A 
ATOM     29  C   UNL     1      -4.232  -2.770   0.161  0.00  0.00    +0.015 A 
ATOM     30  C   UNL     1      -2.756  -2.389  -1.713  0.00  0.00    +0.015 A 
ATOM     31  C   UNL     1      -5.177  -1.918  -0.411  0.00  0.00    +0.001 A 
ATOM     32  C   UNL     1      -3.700  -1.537  -2.285  0.00  0.00    +0.001 A 
ATOM     35  C   UNL     1      -4.911  -1.301  -1.634  0.00  0.00    +0.000 A 
ENDBRANCH   1  28
ENDBRANCH  21   1
ENDBRANCH  19  21
ENDBRANCH  14  16
ENDBRANCH  10  14
BRANCH   9  15
ATOM     15  C   UNL     1       0.560   4.134   0.096  0.00  0.00    +0.099 C 
BRANCH  15  17
ATOM      2  O   UNL     1       1.156   2.867  -1.877  0.00  0.00    -0.276 OA
ATOM      7  N   UNL     1       2.709   3.109  -0.165  0.00  0.00    -0.311 N 
ATOM     17  C   UNL     1       1.478   3.304  -0.775  0.00  0.00    +0.214 C 
ATOM     37  H   UNL     1       2.879   3.505   0.755  0.00  0.00    +0.149 HD
BRANCH   7  20
ATOM     20  C   UNL     1       3.779   2.351  -0.770  0.00  0.00    +0.139 C 
BRANCH  20  22
ATOM     22  C   UNL     1       3.713   0.896  -0.404  0.00  0.00    -0.027 A 
ATOM     23  C   UNL     1       3.259  -0.037  -1.336  0.00  0.00    +0.054 A 
ATOM     24  C   UNL     1       4.108   0.478   0.866  0.00  0.00    +0.009 A 
ATOM     25  C   UNL     1       3.200  -1.389  -0.997  0.00  0.00    +0.162 A 
ATOM     26  C   UNL     1       4.049  -0.874   1.205  0.00  0.00    +0.050 A 
ATOM     27  C   UNL     1       3.595  -1.807   0.273  0.00  0.00    +0.162 A 
BRANCH  25   4
ATOM      4  O   UNL     1       2.756  -2.291  -1.917  0.00  0.00    -0.491 OA
ATOM     33  C   UNL     1       2.372  -1.781  -3.192  0.00  0.00    +0.277 C 
ENDBRANCH  25   4
BRANCH  27   5
ATOM      5  O   UNL     1       3.542  -3.125   0.616  0.00  0.00    -0.491 OA
ATOM     34  C   UNL     1       3.964  -3.469   1.934  0.00  0.00    +0.277 C 
ENDBRANCH  27   5
ENDBRANCH  20  22
ENDBRANCH   7  20
ENDBRANCH  15  17
ENDBRANCH   9  15
TORSDOF 11
