REMARK  Name = 26761929
REMARK  4 active torsions:
REMARK  status: ('A' for Active; 'I' for Inactive)
REMARK    1  A    between atoms: N_4  and  C_14
REMARK    2  A    between atoms: C_9  and  C_15
REMARK    3  A    between atoms: C_14  and  C_16
REMARK    4  A    between atoms: C_20  and  C_23
REMARK                            x       y       z     vdW  Elec       q    Type
REMARK                         _______ _______ _______ _____ _____    ______ ____
ROOT
ATOM      4  N   UNL     1       2.144   0.146   0.449  0.00  0.00    -0.281 NA
ATOM      5  N   UNL     1       1.557   3.366  -1.327  0.00  0.00    -0.347 N 
ATOM      6  N   UNL     1       1.110   4.162   0.714  0.00  0.00    -0.240 NA
ATOM      9  C   UNL     1       1.244   0.436   1.607  0.00  0.00    +0.152 C 
ATOM     10  C   UNL     1       1.246   1.963   1.975  0.00  0.00    +0.086 C 
ATOM     11  C   UNL     1       1.828   0.875  -0.797  0.00  0.00    +0.140 C 
ATOM     12  C   UNL     1       1.586   2.300  -0.481  0.00  0.00    +0.053 A 
ATOM     13  C   UNL     1       1.304   2.811   0.761  0.00  0.00    +0.065 A 
ATOM     17  C   UNL     1       1.267   4.467  -0.559  0.00  0.00    +0.197 A 
ATOM     30  H   UNL     1       1.714   3.355  -2.326  0.00  0.00    +0.167 HD
ENDROOT
BRANCH   9  15
ATOM      3  O   UNL     1      -0.487  -1.105   2.424  0.00  0.00    -0.336 OA
ATOM      7  N   UNL     1      -1.119   0.114   0.655  0.00  0.00    -0.190 NA
ATOM      8  N   UNL     1      -1.802  -1.492   2.135  0.00  0.00    -0.056 NA
ATOM     15  C   UNL     1      -0.163  -0.157   1.506  0.00  0.00    +0.245 A 
ATOM     20  C   UNL     1      -2.104  -0.730   1.080  0.00  0.00    +0.202 A 
BRANCH  20  23
ATOM      1 CL   UNL     1      -5.199   0.996  -2.655  0.00  0.00    -0.081 Cl
ATOM      2  F   UNL     1      -7.064  -0.958  -1.434  0.00  0.00    -0.204 F 
ATOM     23  C   UNL     1      -3.381  -0.785   0.429  0.00  0.00    +0.024 A 
ATOM     25  C   UNL     1      -3.642   0.036  -0.668  0.00  0.00    +0.034 A 
ATOM     26  C   UNL     1      -4.363  -1.660   0.894  0.00  0.00    +0.014 A 
ATOM     27  C   UNL     1      -4.883  -0.019  -1.301  0.00  0.00    +0.077 A 
ATOM     28  C   UNL     1      -5.605  -1.715   0.261  0.00  0.00    +0.040 A 
ATOM     29  C   UNL     1      -5.865  -0.894  -0.837  0.00  0.00    +0.142 A 
ENDBRANCH  20  23
ENDBRANCH   9  15
BRANCH   4  14
ATOM     14  C   UNL     1       2.351  -1.276   0.198  0.00  0.00    +0.120 C 
BRANCH  14  16
ATOM     16  C   UNL     1       3.730  -1.555  -0.340  0.00  0.00    -0.033 A 
ATOM     18  C   UNL     1       3.957  -1.545  -1.716  0.00  0.00    +0.005 A 
ATOM     19  C   UNL     1       4.780  -1.823   0.538  0.00  0.00    +0.005 A 
ATOM     21  C   UNL     1       5.234  -1.804  -2.214  0.00  0.00    +0.000 A 
ATOM     22  C   UNL     1       6.056  -2.082   0.041  0.00  0.00    +0.000 A 
ATOM     24  C   UNL     1       6.284  -2.072  -1.336  0.00  0.00    +0.000 A 
ENDBRANCH  14  16
ENDBRANCH   4  14
TORSDOF 4
