REMARK  Name = 40586265
REMARK  7 active torsions:
REMARK  status: ('A' for Active; 'I' for Inactive)
REMARK    1  A    between atoms: O_3  and  C_12
REMARK    2  A    between atoms: O_3  and  C_22
REMARK    3  A    between atoms: O_6  and  C_28
REMARK    4  A    between atoms: O_6  and  C_29
REMARK    5  A    between atoms: N_7  and  C_11
REMARK    6  A    between atoms: N_8  and  C_23
REMARK    7  A    between atoms: C_15  and  C_18
REMARK                            x       y       z     vdW  Elec       q    Type
REMARK                         _______ _______ _______ _____ _____    ______ ____
ROOT
ATOM      1  O   UNL     1      -0.732   1.453   1.272  0.00  0.00    -0.368 OA
ATOM      2  O   UNL     1      -1.829   2.624  -1.341  0.00  0.00    -0.368 OA
ATOM      9  C   UNL     1      -2.088   1.372  -0.672  0.00  0.00    +0.173 C 
ATOM     10  C   UNL     1      -0.776   0.920  -0.062  0.00  0.00    +0.192 C 
ATOM     11  C   UNL     1      -2.984   1.599   0.524  0.00  0.00    +0.130 C 
ATOM     12  C   UNL     1       0.244   1.576  -0.961  0.00  0.00    +0.235 C 
ATOM     13  C   UNL     1      -1.997   2.058   1.583  0.00  0.00    +0.185 C 
ATOM     14  C   UNL     1      -0.420   2.894  -1.290  0.00  0.00    +0.207 C 
ENDROOT
BRANCH  11   7
ATOM      4  O   UNL     1      -5.632   0.702  -0.260  0.00  0.00    -0.276 OA
ATOM      7  N   UNL     1      -3.649   0.382   0.918  0.00  0.00    -0.307 N 
ATOM     18  C   UNL     1      -4.922   0.037   0.489  0.00  0.00    +0.216 C 
ATOM     30  H   UNL     1      -3.126  -0.279   1.486  0.00  0.00    +0.149 HD
BRANCH  18  15
ATOM     15  C   UNL     1      -5.366  -1.292   1.028  0.00  0.00    +0.075 C 
ATOM     16  C   UNL     1      -6.882  -1.324   1.232  0.00  0.00    +0.013 C 
ATOM     17  C   UNL     1      -4.866  -2.421   0.124  0.00  0.00    +0.013 C 
ATOM     19  C   UNL     1      -7.667  -1.484  -0.070  0.00  0.00    +0.001 C 
ATOM     20  C   UNL     1      -5.667  -2.550  -1.170  0.00  0.00    +0.001 C 
ATOM     21  C   UNL     1      -7.163  -2.661  -0.897  0.00  0.00    +0.000 C 
ENDBRANCH  18  15
ENDBRANCH  11   7
BRANCH  12   3
ATOM      3  O   UNL     1       1.501   1.754  -0.348  0.00  0.00    -0.442 OA
BRANCH   3  22
ATOM      5  O   UNL     1       2.207  -0.244  -1.206  0.00  0.00    -0.226 OA
ATOM      8  N   UNL     1       3.604   1.085   0.121  0.00  0.00    -0.251 N 
ATOM     22  C   UNL     1       2.436   0.757  -0.540  0.00  0.00    +0.405 C 
ATOM     31  H   UNL     1       3.602   1.968   0.626  0.00  0.00    +0.158 HD
BRANCH   8  23
ATOM     23  C   UNL     1       4.805   0.343   0.184  0.00  0.00    +0.037 A 
ATOM     24  C   UNL     1       5.891   0.837   0.907  0.00  0.00    +0.027 A 
ATOM     25  C   UNL     1       4.905  -0.881  -0.476  0.00  0.00    +0.027 A 
ATOM     26  C   UNL     1       7.078   0.105   0.970  0.00  0.00    +0.047 A 
ATOM     27  C   UNL     1       6.091  -1.613  -0.413  0.00  0.00    +0.047 A 
ATOM     28  C   UNL     1       7.177  -1.119   0.309  0.00  0.00    +0.120 A 
BRANCH  28   6
ATOM      6  O   UNL     1       8.335  -1.833   0.371  0.00  0.00    -0.495 OA
ATOM     29  C   UNL     1       8.368  -3.077  -0.328  0.00  0.00    +0.277 C 
ENDBRANCH  28   6
ENDBRANCH   8  23
ENDBRANCH   3  22
ENDBRANCH  12   3
TORSDOF 6
