REMARK  Name = 26762149
REMARK  7 active torsions:
REMARK  status: ('A' for Active; 'I' for Inactive)
REMARK    1  A    between atoms: N_6  and  C_11
REMARK    2  A    between atoms: N_8  and  C_24
REMARK    3  A    between atoms: C_10  and  C_15
REMARK    4  A    between atoms: C_15  and  C_17
REMARK    5  A    between atoms: C_17  and  C_18
REMARK    6  A    between atoms: C_24  and  C_25
REMARK    7  A    between atoms: C_24  and  C_26
REMARK                            x       y       z     vdW  Elec       q    Type
REMARK                         _______ _______ _______ _____ _____    ______ ____
ROOT
ATOM      1  O   UNL     1      -2.640   3.638  -0.732  0.00  0.00    -0.274 OA
ATOM      4  N   UNL     1       0.175   1.386  -0.488  0.00  0.00    -0.285 NA
ATOM      5  N   UNL     1      -1.037   3.507   0.883  0.00  0.00    -0.313 N 
ATOM      9  C   UNL     1      -0.730   2.262  -1.233  0.00  0.00    +0.145 C 
ATOM     10  C   UNL     1       0.973   2.110   0.499  0.00  0.00    +0.075 C 
ATOM     11  C   UNL     1      -1.613   0.007  -1.146  0.00  0.00    +0.090 C 
ATOM     12  C   UNL     1      -1.574   1.262  -2.019  0.00  0.00    +0.052 C 
ATOM     13  C   UNL     1      -0.624   0.260  -0.009  0.00  0.00    +0.107 C 
ATOM     14  C   UNL     1       0.091   2.845   1.504  0.00  0.00    +0.123 C 
ATOM     16  C   UNL     1      -1.572   3.164  -0.338  0.00  0.00    +0.230 C 
ATOM     27  H   UNL     1      -1.568   4.154   1.458  0.00  0.00    +0.149 HD
ENDROOT
BRANCH  11   6
ATOM      3  O   UNL     1      -2.861  -2.506  -0.378  0.00  0.00    -0.253 OA
ATOM      6  N   UNL     1      -2.973  -0.197  -0.597  0.00  0.00    -0.295 N 
ATOM      8  N   UNL     1      -4.780  -1.354   0.232  0.00  0.00    -0.297 N 
ATOM     19  C   UNL     1      -3.481  -1.450  -0.259  0.00  0.00    +0.300 C 
ATOM     28  H   UNL     1      -3.534   0.624  -0.387  0.00  0.00    +0.151 HD
ATOM     29  H   UNL     1      -5.235  -0.446   0.220  0.00  0.00    +0.150 HD
BRANCH   8  24
ATOM     24  C   UNL     1      -5.543  -2.504   0.657  0.00  0.00    +0.068 C 
ATOM     25  C   UNL     1      -6.301  -3.101  -0.521  0.00  0.00    +0.027 C 
ATOM     26  C   UNL     1      -6.490  -2.128   1.790  0.00  0.00    +0.027 C 
ENDBRANCH   8  24
ENDBRANCH  11   6
BRANCH  10  15
ATOM     15  C   UNL     1       1.980   1.205   1.210  0.00  0.00    +0.029 C 
BRANCH  15  17
ATOM     17  C   UNL     1       2.922   0.511   0.238  0.00  0.00    +0.097 C 
BRANCH  17  18
ATOM      2  O   UNL     1       3.918  -0.396   2.202  0.00  0.00    -0.276 OA
ATOM      7  N   UNL     1       4.834  -1.014   0.173  0.00  0.00    -0.301 N 
ATOM     18  C   UNL     1       3.929  -0.338   0.972  0.00  0.00    +0.216 C 
ATOM     20  C   UNL     1       5.873  -1.869   0.728  0.00  0.00    +0.108 C 
ATOM     21  C   UNL     1       4.898  -0.991  -1.285  0.00  0.00    +0.108 C 
ATOM     22  C   UNL     1       6.404  -2.646  -0.467  0.00  0.00    +0.020 C 
ATOM     23  C   UNL     1       6.222  -1.664  -1.617  0.00  0.00    +0.020 C 
ENDBRANCH  17  18
ENDBRANCH  15  17
ENDBRANCH  10  15
TORSDOF 5
