REMARK  Name = 38029461
REMARK  11 active torsions:
REMARK  status: ('A' for Active; 'I' for Inactive)
REMARK    1  A    between atoms: N_3  and  C_14
REMARK    2  A    between atoms: N_5  and  C_22
REMARK    3  A    between atoms: C_7  and  C_11
REMARK    4  A    between atoms: C_8  and  C_14
REMARK    5  A    between atoms: C_10  and  C_15
REMARK    6  A    between atoms: C_11  and  C_16
REMARK    7  A    between atoms: C_11  and  C_17
REMARK    8  A    between atoms: C_12  and  C_18
REMARK    9  A    between atoms: C_15  and  C_19
REMARK   10  A    between atoms: C_22  and  C_23
REMARK   11  A    between atoms: C_22  and  C_24
REMARK                            x       y       z     vdW  Elec       q    Type
REMARK                         _______ _______ _______ _____ _____    ______ ____
ROOT
ATOM      7  C   UNL     1      -1.698   1.618   0.781  0.00  0.00    +0.000 C 
ATOM      8  C   UNL     1      -2.867   1.930  -0.187  0.00  0.00    +0.032 C 
ATOM      9  C   UNL     1      -0.452   2.432   0.397  0.00  0.00    +0.012 C 
ATOM     10  C   UNL     1       0.014   2.139  -1.042  0.00  0.00    +0.023 C 
ATOM     12  C   UNL     1      -1.140   2.165  -2.023  0.00  0.00    -0.073 C 
ATOM     13  C   UNL     1      -2.421   2.084  -1.622  0.00  0.00    -0.022 C 
ATOM     18  C   UNL     1      -0.790   2.332  -3.476  0.00  0.00    +0.039 C 
ENDROOT
BRANCH   7  11
ATOM     11  C   UNL     1      -2.074   1.903   2.238  0.00  0.00    -0.013 C 
ATOM     16  C   UNL     1      -1.929   3.390   2.544  0.00  0.00    +0.007 C 
ATOM     17  C   UNL     1      -1.214   1.069   3.183  0.00  0.00    +0.007 C 
ENDBRANCH   7  11
BRANCH   8  14
ATOM     14  C   UNL     1      -3.956   0.855  -0.102  0.00  0.00    +0.113 C 
BRANCH  14   3
ATOM      2  O   UNL     1      -3.791  -1.613   1.383  0.00  0.00    -0.253 OA
ATOM      3  N   UNL     1      -3.466  -0.402  -0.574  0.00  0.00    -0.299 N 
ATOM      5  N   UNL     1      -2.897  -2.642  -0.494  0.00  0.00    -0.297 N 
ATOM     20  C   UNL     1      -3.417  -1.561   0.212  0.00  0.00    +0.300 C 
ATOM     29  H   UNL     1      -3.197  -0.482  -1.549  0.00  0.00    +0.150 HD
ATOM     31  H   UNL     1      -2.684  -2.518  -1.480  0.00  0.00    +0.150 HD
BRANCH   5  22
ATOM     22  C   UNL     1      -2.739  -3.954   0.087  0.00  0.00    +0.068 C 
ATOM     23  C   UNL     1      -1.535  -4.662  -0.520  0.00  0.00    +0.027 C 
ATOM     24  C   UNL     1      -4.011  -4.774  -0.092  0.00  0.00    +0.027 C 
ENDBRANCH   5  22
ENDBRANCH  14   3
ENDBRANCH   8  14
BRANCH  10  15
ATOM     15  C   UNL     1       0.770   0.808  -1.118  0.00  0.00    +0.104 C 
BRANCH  15  19
ATOM      1  O   UNL     1       2.607   1.945  -0.053  0.00  0.00    -0.275 OA
ATOM      4  N   UNL     1       2.799  -0.331  -0.603  0.00  0.00    -0.270 N 
ATOM      6  N   UNL     1       4.543  -1.925  -0.331  0.00  0.00    -0.240 NA
ATOM     19  C   UNL     1       2.161   0.903  -0.523  0.00  0.00    +0.219 C 
ATOM     21  C   UNL     1       4.103  -0.658  -0.161  0.00  0.00    +0.125 A 
ATOM     25  C   UNL     1       4.851   0.351   0.423  0.00  0.00    +0.044 A 
ATOM     26  C   UNL     1       6.134   0.040   0.861  0.00  0.00    +0.005 A 
ATOM     27  C   UNL     1       5.794  -2.190   0.107  0.00  0.00    +0.113 A 
ATOM     28  C   UNL     1       6.622  -1.252   0.704  0.00  0.00    +0.020 A 
ATOM     30  H   UNL     1       2.295  -1.108  -1.024  0.00  0.00    +0.156 HD
ENDBRANCH  15  19
ENDBRANCH  10  15
TORSDOF 6
