REMARK  Name = 75536683
REMARK  8 active torsions:
REMARK  status: ('A' for Active; 'I' for Inactive)
REMARK    1  A    between atoms: S_1  and  N_8
REMARK    2  A    between atoms: S_1  and  C_16
REMARK    3  A    between atoms: O_4  and  C_10
REMARK    4  A    between atoms: N_7  and  C_9
REMARK    5  A    between atoms: N_7  and  C_14
REMARK    6  A    between atoms: N_8  and  C_13
REMARK    7  A    between atoms: C_11  and  C_13
REMARK    8  A    between atoms: C_14  and  C_15
REMARK                            x       y       z     vdW  Elec       q    Type
REMARK                         _______ _______ _______ _____ _____    ______ ____
ROOT
ATOM      3  O   UNL     1       0.525   1.371  -1.359  0.00  0.00    -0.371 OA
ATOM      9  C   UNL     1      -1.448   1.221  -0.046  0.00  0.00    +0.111 C 
ATOM     10  C   UNL     1      -0.268   0.736   0.776  0.00  0.00    +0.164 C 
ATOM     11  C   UNL     1       0.893   1.379   0.030  0.00  0.00    +0.164 C 
ATOM     12  C   UNL     1      -0.889   1.129  -1.456  0.00  0.00    +0.181 C 
ENDROOT
BRANCH  10   4
ATOM      4  O   UNL     1      -0.330   1.163   2.124  0.00  0.00    -0.388 OA
ATOM     28  H   UNL     1      -0.395   2.132   2.135  0.00  0.00    +0.210 HD
ENDBRANCH  10   4
BRANCH   9   7
ATOM      7  N   UNL     1      -2.652   0.428   0.139  0.00  0.00    -0.305 NA
ATOM     27  H   UNL     1      -2.792   0.262   1.136  0.00  0.00    +0.123 HD
BRANCH   7  14
ATOM     14  C   UNL     1      -3.822   1.117  -0.394  0.00  0.00    +0.116 C 
BRANCH  14  15
ATOM      2  F   UNL     1      -8.519  -1.931   0.232  0.00  0.00    -0.205 F 
ATOM     15  C   UNL     1      -5.077   0.303  -0.227  0.00  0.00    -0.033 A 
ATOM     17  C   UNL     1      -5.470  -0.587  -1.227  0.00  0.00    +0.008 A 
ATOM     18  C   UNL     1      -5.848   0.438   0.928  0.00  0.00    +0.008 A 
ATOM     21  C   UNL     1      -6.632  -1.341  -1.073  0.00  0.00    +0.038 A 
ATOM     22  C   UNL     1      -7.011  -0.317   1.083  0.00  0.00    +0.038 A 
ATOM     23  C   UNL     1      -7.403  -1.206   0.082  0.00  0.00    +0.123 A 
ENDBRANCH  14  15
ENDBRANCH   7  14
ENDBRANCH   9   7
BRANCH  11  13
ATOM     13  C   UNL     1       2.208   0.643   0.217  0.00  0.00    +0.140 C 
BRANCH  13   8
ATOM      8  N   UNL     1       3.273   1.332  -0.538  0.00  0.00    -0.187 NA
ATOM     29  H   UNL     1       3.112   1.430  -1.548  0.00  0.00    +0.148 HD
BRANCH   8   1
ATOM      1  S   UNL     1       4.877   1.297   0.026  0.00  0.00    +0.058 S 
ATOM      5  O   UNL     1       4.915   1.767   1.398  0.00  0.00    -0.153 OA
ATOM      6  O   UNL     1       5.742   1.894  -0.973  0.00  0.00    -0.153 OA
BRANCH   1  16
ATOM     16  C   UNL     1       5.219  -0.438   0.035  0.00  0.00    +0.105 A 
ATOM     19  C   UNL     1       5.756  -1.049  -1.098  0.00  0.00    +0.028 A 
ATOM     20  C   UNL     1       4.953  -1.195   1.176  0.00  0.00    +0.028 A 
ATOM     24  C   UNL     1       6.026  -2.417  -1.091  0.00  0.00    +0.002 A 
ATOM     25  C   UNL     1       5.223  -2.563   1.184  0.00  0.00    +0.002 A 
ATOM     26  C   UNL     1       5.759  -3.174   0.050  0.00  0.00    +0.000 A 
ENDBRANCH   1  16
ENDBRANCH   8   1
ENDBRANCH  13   8
ENDBRANCH  11  13
TORSDOF 8
