REMARK  Name = 11941507
REMARK  4 active torsions:
REMARK  status: ('A' for Active; 'I' for Inactive)
REMARK    1  A    between atoms: S_2  and  C_20
REMARK    2  A    between atoms: S_2  and  C_23
REMARK    3  A    between atoms: N_7  and  C_9
REMARK    4  A    between atoms: C_17  and  C_20
REMARK                            x       y       z     vdW  Elec       q    Type
REMARK                         _______ _______ _______ _____ _____    ______ ____
ROOT
ATOM      1 CL   UNL     1       6.132   0.009  -1.944  0.00  0.00    -0.083 Cl
ATOM      3  O   UNL     1       0.055   2.970   0.795  0.00  0.00    -0.273 OA
ATOM      4  O   UNL     1       1.296  -2.007   1.992  0.00  0.00    -0.270 OA
ATOM      6  N   UNL     1       0.001  -0.306   1.146  0.00  0.00    -0.284 N 
ATOM      8  N   UNL     1       1.906   1.754   0.262  0.00  0.00    -0.283 N 
ATOM      9  C   UNL     1      -1.814   0.929   0.264  0.00  0.00    +0.104 C 
ATOM     10  C   UNL     1      -0.305   0.681   0.127  0.00  0.00    +0.183 C 
ATOM     11  C   UNL     1      -2.098   0.595   1.730  0.00  0.00    +0.043 C 
ATOM     12  C   UNL     1      -1.136  -0.545   2.024  0.00  0.00    +0.111 C 
ATOM     13  C   UNL     1       0.548   1.891   0.462  0.00  0.00    +0.240 C 
ATOM     14  C   UNL     1       1.146  -1.070   1.208  0.00  0.00    +0.249 C 
ATOM     15  C   UNL     1       2.267  -0.726   0.296  0.00  0.00    +0.058 A 
ATOM     16  C   UNL     1       2.638   0.586  -0.044  0.00  0.00    +0.047 A 
ATOM     18  C   UNL     1       3.087  -1.799  -0.097  0.00  0.00    +0.016 A 
ATOM     19  C   UNL     1       3.857   0.795  -0.713  0.00  0.00    +0.044 A 
ATOM     21  C   UNL     1       4.269  -1.576  -0.802  0.00  0.00    +0.021 A 
ATOM     22  C   UNL     1       4.661  -0.277  -1.099  0.00  0.00    +0.043 A 
ATOM     25  H   UNL     1       2.435   2.624   0.257  0.00  0.00    +0.155 HD
ENDROOT
BRANCH   9   7
ATOM      5  O   UNL     1      -4.436   1.421  -0.859  0.00  0.00    -0.275 OA
ATOM      7  N   UNL     1      -2.561   0.067  -0.623  0.00  0.00    -0.309 N 
ATOM     17  C   UNL     1      -3.817   0.389  -1.112  0.00  0.00    +0.223 C 
ATOM     24  H   UNL     1      -2.164  -0.842  -0.843  0.00  0.00    +0.149 HD
BRANCH  17  20
ATOM     20  C   UNL     1      -4.394  -0.685  -2.005  0.00  0.00    +0.164 C 
BRANCH  20   2
ATOM      2  S   UNL     1      -5.961  -1.253  -1.301  0.00  0.00    -0.155 S 
ATOM     23  C   UNL     1      -5.342  -1.843   0.292  0.00  0.00    +0.085 C 
ENDBRANCH  20   2
ENDBRANCH  17  20
ENDBRANCH   9   7
TORSDOF 3
