REMARK  Name = 75367037
REMARK  8 active torsions:
REMARK  status: ('A' for Active; 'I' for Inactive)
REMARK    1  A    between atoms: O_3  and  C_12
REMARK    2  A    between atoms: N_6  and  C_18
REMARK    3  A    between atoms: N_7  and  C_16
REMARK    4  A    between atoms: C_10  and  C_15
REMARK    5  A    between atoms: C_11  and  C_16
REMARK    6  A    between atoms: C_15  and  C_17
REMARK    7  A    between atoms: C_18  and  C_21
REMARK    8  A    between atoms: C_25  and  C_26
REMARK                            x       y       z     vdW  Elec       q    Type
REMARK                         _______ _______ _______ _____ _____    ______ ____
ROOT
ATOM      2  O   UNL     1       3.107   0.962  -0.781  0.00  0.00    -0.369 OA
ATOM     10  C   UNL     1       2.624   1.944   0.140  0.00  0.00    +0.125 C 
ATOM     11  C   UNL     1       4.237   0.205  -0.328  0.00  0.00    +0.164 C 
ATOM     12  C   UNL     1       5.399   1.122   0.076  0.00  0.00    +0.145 C 
ATOM     13  C   UNL     1       3.721   2.951   0.479  0.00  0.00    +0.034 C 
ATOM     14  C   UNL     1       4.958   2.238   1.018  0.00  0.00    +0.036 C 
ENDROOT
BRANCH  12   3
ATOM      3  O   UNL     1       5.935   1.731  -1.102  0.00  0.00    -0.389 OA
ATOM     32  H   UNL     1       6.699   2.269  -0.833  0.00  0.00    +0.210 HD
ENDBRANCH  12   3
BRANCH  10  15
ATOM     15  C   UNL     1       1.434   2.636  -0.512  0.00  0.00    +0.090 C 
BRANCH  15  17
ATOM      4  O   UNL     1      -1.283   0.329  -1.042  0.00  0.00    -0.358 OA
ATOM      9  N   UNL     1      -0.090   0.932  -1.421  0.00  0.00    -0.083 NA
ATOM     17  C   UNL     1       0.189   1.793  -0.439  0.00  0.00    +0.086 A 
ATOM     21  C   UNL     1      -1.685   0.840   0.149  0.00  0.00    +0.151 A 
ATOM     22  C   UNL     1      -0.783   1.777   0.577  0.00  0.00    +0.072 A 
BRANCH  21  18
ATOM     18  C   UNL     1      -2.938   0.310   0.700  0.00  0.00    +0.161 C 
BRANCH  18   6
ATOM      6  N   UNL     1      -4.129   0.841   0.040  0.00  0.00    -0.293 NA
ATOM      8  N   UNL     1      -6.828   1.896   0.035  0.00  0.00    -0.314 NA
ATOM     19  C   UNL     1      -4.412   2.208   0.495  0.00  0.00    +0.100 C 
ATOM     20  C   UNL     1      -5.287  -0.031   0.273  0.00  0.00    +0.100 C 
ATOM     23  C   UNL     1      -5.666   2.758  -0.190  0.00  0.00    +0.096 C 
ATOM     24  C   UNL     1      -6.536   0.532  -0.411  0.00  0.00    +0.096 C 
ATOM     34  H   UNL     1      -7.628   2.260  -0.483  0.00  0.00    +0.122 HD
ENDBRANCH  18   6
ENDBRANCH  21  18
ENDBRANCH  15  17
ENDBRANCH  10  15
BRANCH  11  16
ATOM     16  C   UNL     1       3.837  -0.772   0.776  0.00  0.00    +0.138 C 
BRANCH  16   7
ATOM      5  O   UNL     1       1.251  -0.961   2.010  0.00  0.00    -0.270 OA
ATOM      7  N   UNL     1       2.749  -1.602   0.358  0.00  0.00    -0.309 N 
ATOM     25  C   UNL     1       1.522  -1.632   1.018  0.00  0.00    +0.247 C 
ATOM     33  H   UNL     1       2.916  -2.229  -0.423  0.00  0.00    +0.149 HD
BRANCH  25  26
ATOM      1  F   UNL     1       1.392  -2.330  -1.717  0.00  0.00    -0.205 F 
ATOM     26  C   UNL     1       0.504  -2.567   0.474  0.00  0.00    +0.072 A 
ATOM     27  C   UNL     1       0.490  -2.874  -0.887  0.00  0.00    +0.135 A 
ATOM     28  C   UNL     1      -0.439  -3.140   1.327  0.00  0.00    +0.016 A 
ATOM     29  C   UNL     1      -0.467  -3.752  -1.394  0.00  0.00    +0.039 A 
ATOM     30  C   UNL     1      -1.396  -4.019   0.820  0.00  0.00    +0.001 A 
ATOM     31  C   UNL     1      -1.410  -4.325  -0.540  0.00  0.00    +0.003 A 
ENDBRANCH  25  26
ENDBRANCH  16   7
ENDBRANCH  11  16
TORSDOF 8
