REMARK  Name = 45361422
REMARK  16 active torsions:
REMARK  status: ('A' for Active; 'I' for Inactive)
REMARK    1  A    between atoms: O_1  and  C_10
REMARK    2  A    between atoms: O_4  and  C_30
REMARK    3  A    between atoms: O_4  and  C_35
REMARK    4  A    between atoms: N_5  and  C_14
REMARK    5  A    between atoms: N_6  and  C_25
REMARK    6  A    between atoms: C_7  and  C_17
REMARK    7  A    between atoms: C_9  and  C_19
REMARK    8  A    between atoms: C_13  and  C_18
REMARK    9  A    between atoms: C_18  and  C_20
REMARK   10  A    between atoms: C_18  and  C_21
REMARK   11  A    between atoms: C_22  and  C_23
REMARK   12  A    between atoms: C_23  and  C_24
REMARK   13  A    between atoms: C_24  and  C_26
REMARK   14  A    between atoms: C_24  and  C_27
REMARK   15  A    between atoms: C_24  and  C_28
REMARK   16  A    between atoms: C_25  and  C_29
REMARK                            x       y       z     vdW  Elec       q    Type
REMARK                         _______ _______ _______ _____ _____    ______ ____
ROOT
ATOM      7  C   UNL     1      -0.705   0.040   1.121  0.00  0.00    -0.027 C 
ATOM      8  C   UNL     1      -0.916  -0.686  -0.249  0.00  0.00    +0.028 C 
ATOM      9  C   UNL     1      -2.430  -1.046  -0.464  0.00  0.00    +0.012 C 
ATOM     10  C   UNL     1       0.082  -1.868  -0.421  0.00  0.00    +0.122 C 
ATOM     11  C   UNL     1       0.773   0.479   1.249  0.00  0.00    +0.007 C 
ATOM     12  C   UNL     1      -1.579   1.314   1.156  0.00  0.00    +0.009 C 
ATOM     13  C   UNL     1       1.551  -1.444  -0.189  0.00  0.00    +0.029 C 
ATOM     14  C   UNL     1      -3.308   0.233  -0.352  0.00  0.00    +0.076 C 
ATOM     15  C   UNL     1       1.751  -0.681   1.121  0.00  0.00    +0.007 C 
ATOM     16  C   UNL     1      -3.057   1.032   0.927  0.00  0.00    +0.023 C 
ATOM     17  C   UNL     1      -1.064  -0.859   2.331  0.00  0.00    +0.011 C 
ATOM     19  C   UNL     1      -2.714  -1.738  -1.808  0.00  0.00    +0.010 C 
ENDROOT
BRANCH  14   5
ATOM      3  O   UNL     1      -5.412   1.884  -1.464  0.00  0.00    -0.276 OA
ATOM      5  N   UNL     1      -4.720  -0.078  -0.429  0.00  0.00    -0.312 N 
ATOM     22  C   UNL     1      -5.654   0.779  -0.982  0.00  0.00    +0.214 C 
ATOM     36  H   UNL     1      -5.031  -0.955  -0.023  0.00  0.00    +0.149 HD
BRANCH  22  23
ATOM     23  C   UNL     1      -7.068   0.225  -0.934  0.00  0.00    +0.102 C 
BRANCH  23  24
ATOM     24  C   UNL     1      -7.843   0.540   0.367  0.00  0.00    -0.029 C 
ATOM     26  C   UNL     1      -9.255  -0.069   0.333  0.00  0.00    +0.011 C 
ATOM     27  C   UNL     1      -7.071  -0.085   1.546  0.00  0.00    +0.011 C 
ATOM     28  C   UNL     1      -7.950   2.055   0.606  0.00  0.00    +0.011 C 
ENDBRANCH  23  24
ENDBRANCH  22  23
ENDBRANCH  14   5
BRANCH  10   1
ATOM      1  O   UNL     1       0.007  -2.365  -1.758  0.00  0.00    -0.391 OA
ATOM     37  H   UNL     1       0.235  -1.639  -2.364  0.00  0.00    +0.210 HD
ENDBRANCH  10   1
BRANCH  13  18
ATOM     18  C   UNL     1       2.504  -2.645  -0.233  0.00  0.00    +0.077 C 
ATOM     20  C   UNL     1       2.119  -3.660   0.838  0.00  0.00    +0.017 C 
BRANCH  18  21
ATOM      2  O   UNL     1       4.668  -2.569   0.851  0.00  0.00    -0.276 OA
ATOM      6  N   UNL     1       4.325  -1.260  -1.034  0.00  0.00    -0.311 N 
ATOM     21  C   UNL     1       3.944  -2.172  -0.060  0.00  0.00    +0.216 C 
ATOM     38  H   UNL     1       3.685  -1.024  -1.784  0.00  0.00    +0.149 HD
BRANCH   6  25
ATOM     25  C   UNL     1       5.642  -0.670  -1.078  0.00  0.00    +0.143 C 
BRANCH  25  29
ATOM     29  C   UNL     1       5.726   0.580  -0.249  0.00  0.00    +0.011 A 
ATOM     30  C   UNL     1       5.162   1.773  -0.700  0.00  0.00    +0.125 A 
ATOM     31  C   UNL     1       6.377   0.538   0.984  0.00  0.00    +0.009 A 
ATOM     32  C   UNL     1       5.250   2.925   0.082  0.00  0.00    +0.046 A 
ATOM     33  C   UNL     1       6.464   1.690   1.766  0.00  0.00    +0.001 A 
ATOM     34  C   UNL     1       5.901   2.883   1.315  0.00  0.00    +0.004 A 
BRANCH  30   4
ATOM      4  O   UNL     1       4.524   1.832  -1.902  0.00  0.00    -0.495 OA
ATOM     35  C   UNL     1       3.977   3.093  -2.284  0.00  0.00    +0.277 C 
ENDBRANCH  30   4
ENDBRANCH  25  29
ENDBRANCH   6  25
ENDBRANCH  18  21
ENDBRANCH  13  18
TORSDOF 9
