REMARK  Name = 45784186
REMARK  3 active torsions:
REMARK  status: ('A' for Active; 'I' for Inactive)
REMARK    1  A    between atoms: N_2  and  C_4
REMARK    2  A    between atoms: C_5  and  C_14
REMARK    3  A    between atoms: C_19  and  C_21
REMARK                            x       y       z     vdW  Elec       q    Type
REMARK                         _______ _______ _______ _____ _____    ______ ____
ROOT
ATOM      2  N   UNL     1      -2.499   0.763   0.037  0.00  0.00    -0.299 NA
ATOM      5  C   UNL     1      -0.233   1.272   0.364  0.00  0.00    +0.090 C 
ATOM      6  C   UNL     1      -1.284   0.182   0.613  0.00  0.00    +0.097 C 
ATOM      7  C   UNL     1      -2.067   1.363  -1.226  0.00  0.00    +0.085 C 
ATOM     10  C   UNL     1      -0.768   2.061  -0.844  0.00  0.00    +0.029 C 
ENDROOT
BRANCH   5  14
ATOM      1  O   UNL     1       2.089   1.146   1.093  0.00  0.00    -0.439 OA
ATOM      3  N   UNL     1       1.599  -0.130  -0.716  0.00  0.00    -0.213 NA
ATOM     14  C   UNL     1       1.162   0.716   0.192  0.00  0.00    +0.201 A 
ATOM     15  C   UNL     1       2.927  -0.278  -0.397  0.00  0.00    +0.110 A 
ATOM     16  C   UNL     1       3.231   0.501   0.710  0.00  0.00    +0.155 A 
ATOM     17  C   UNL     1       3.942  -1.046  -0.984  0.00  0.00    +0.035 A 
ATOM     18  C   UNL     1       4.487   0.586   1.298  0.00  0.00    +0.049 A 
ATOM     19  C   UNL     1       5.224  -0.987  -0.418  0.00  0.00    -0.048 A 
ATOM     20  C   UNL     1       5.488  -0.187   0.700  0.00  0.00    +0.007 A 
ATOM     21  C   UNL     1       6.327  -1.794  -1.021  0.00  0.00    +0.044 C 
ENDBRANCH   5  14
BRANCH   2   4
ATOM      4  C   UNL     1      -3.557  -0.228  -0.150  0.00  0.00    +0.057 C 
ATOM      8  C   UNL     1      -3.964  -0.817   1.205  0.00  0.00    +0.019 C 
ATOM      9  C   UNL     1      -4.755   0.417  -0.856  0.00  0.00    +0.019 C 
ATOM     11  C   UNL     1      -5.122  -1.802   1.058  0.00  0.00    +0.002 C 
ATOM     12  C   UNL     1      -5.912  -0.570  -1.001  0.00  0.00    +0.002 C 
ATOM     13  C   UNL     1      -6.314  -1.168   0.345  0.00  0.00    +0.000 C 
ENDBRANCH   2   4
TORSDOF 2
