REMARK  Name = 45783351
REMARK  11 active torsions:
REMARK  status: ('A' for Active; 'I' for Inactive)
REMARK    1  A    between atoms: O_2  and  C_21
REMARK    2  A    between atoms: O_2  and  C_23
REMARK    3  A    between atoms: O_3  and  C_24
REMARK    4  A    between atoms: O_3  and  C_25
REMARK    5  A    between atoms: N_4  and  C_12
REMARK    6  A    between atoms: C_8  and  C_14
REMARK    7  A    between atoms: C_12  and  C_13
REMARK    8  A    between atoms: C_13  and  C_15
REMARK    9  A    between atoms: C_13  and  C_16
REMARK   10  A    between atoms: C_17  and  C_18
REMARK   11  A    between atoms: C_23  and  C_24
REMARK                            x       y       z     vdW  Elec       q    Type
REMARK                         _______ _______ _______ _____ _____    ______ ____
ROOT
ATOM      1  O   UNL     1      -2.520   1.635   1.262  0.00  0.00    -0.336 OA
ATOM      5  N   UNL     1      -1.039   0.060   0.675  0.00  0.00    -0.190 NA
ATOM      6  N   UNL     1      -1.290   2.290   1.120  0.00  0.00    -0.056 NA
ATOM     14  C   UNL     1      -2.284   0.326   0.983  0.00  0.00    +0.245 A 
ATOM     17  C   UNL     1      -0.468   1.295   0.773  0.00  0.00    +0.202 A 
ENDROOT
BRANCH  17  18
ATOM      7  N   UNL     1       3.650   1.904   0.021  0.00  0.00    -0.221 NA
ATOM     18  C   UNL     1       0.928   1.501   0.518  0.00  0.00    +0.029 A 
ATOM     19  C   UNL     1       1.739   0.429   0.161  0.00  0.00    +0.079 A 
ATOM     20  C   UNL     1       1.477   2.774   0.626  0.00  0.00    +0.031 A 
ATOM     21  C   UNL     1       3.081   0.681  -0.074  0.00  0.00    +0.215 A 
ATOM     22  C   UNL     1       2.830   2.921   0.370  0.00  0.00    +0.115 A 
BRANCH  21   2
ATOM      2  O   UNL     1       3.900  -0.359  -0.427  0.00  0.00    -0.474 OA
BRANCH   2  23
ATOM     23  C   UNL     1       5.269  -0.045  -0.658  0.00  0.00    +0.258 C 
BRANCH  23  24
ATOM     24  C   UNL     1       6.015  -1.317  -1.011  0.00  0.00    +0.200 C 
BRANCH  24   3
ATOM      3  O   UNL     1       5.921  -2.228   0.077  0.00  0.00    -0.380 OA
ATOM     25  C   UNL     1       6.587  -3.451  -0.208  0.00  0.00    +0.194 C 
ENDBRANCH  24   3
ENDBRANCH  23  24
ENDBRANCH   2  23
ENDBRANCH  21   2
ENDBRANCH  17  18
BRANCH  14   8
ATOM      4  N   UNL     1      -3.720  -1.328  -0.198  0.00  0.00    -0.291 NA
ATOM      8  C   UNL     1      -3.473  -0.607   1.067  0.00  0.00    +0.146 C 
ATOM      9  C   UNL     1      -3.285  -1.716   2.119  0.00  0.00    +0.030 C 
ATOM     10  C   UNL     1      -4.334  -2.605   0.167  0.00  0.00    +0.085 C 
ATOM     11  C   UNL     1      -3.504  -3.021   1.366  0.00  0.00    +0.017 C 
BRANCH   4  12
ATOM     12  C   UNL     1      -4.540  -0.574  -1.138  0.00  0.00    +0.088 C 
BRANCH  12  13
ATOM     13  C   UNL     1      -3.719   0.444  -1.948  0.00  0.00    -0.003 C 
ATOM     15  C   UNL     1      -2.637  -0.286  -2.749  0.00  0.00    +0.008 C 
ATOM     16  C   UNL     1      -4.586   1.277  -2.894  0.00  0.00    +0.008 C 
ENDBRANCH  12  13
ENDBRANCH   4  12
ENDBRANCH  14   8
TORSDOF 8
