REMARK  Name = 28991035
REMARK  7 active torsions:
REMARK  status: ('A' for Active; 'I' for Inactive)
REMARK    1  A    between atoms: S_1  and  N_7
REMARK    2  A    between atoms: S_1  and  C_21
REMARK    3  A    between atoms: N_6  and  C_15
REMARK    4  A    between atoms: N_7  and  C_16
REMARK    5  A    between atoms: C_9  and  C_15
REMARK    6  A    between atoms: C_10  and  C_16
REMARK    7  A    between atoms: C_26  and  C_27
REMARK                            x       y       z     vdW  Elec       q    Type
REMARK                         _______ _______ _______ _____ _____    ______ ____
ROOT
ATOM      5  N   UNL     1       1.016  -3.147   0.398  0.00  0.00    -0.298 NA
ATOM      8  C   UNL     1       1.068  -1.815  -1.836  0.00  0.00    -0.003 C 
ATOM      9  C   UNL     1       2.061  -1.217  -0.814  0.00  0.00    +0.020 C 
ATOM     10  C   UNL     1      -0.363  -2.742   0.014  0.00  0.00    +0.072 C 
ATOM     11  C   UNL     1      -0.346  -1.823  -1.228  0.00  0.00    +0.024 C 
ATOM     12  C   UNL     1       1.884  -1.952   0.534  0.00  0.00    +0.089 C 
ATOM     13  C   UNL     1       1.480  -3.284  -2.053  0.00  0.00    +0.019 C 
ATOM     14  C   UNL     1       1.562  -3.994  -0.690  0.00  0.00    +0.085 C 
ENDROOT
BRANCH   9  15
ATOM     15  C   UNL     1       1.923   0.295  -0.653  0.00  0.00    +0.089 C 
BRANCH  15   6
ATOM      2  O   UNL     1       4.857   2.775   1.037  0.00  0.00    -0.377 OA
ATOM      6  N   UNL     1       2.943   0.819   0.252  0.00  0.00    -0.298 NA
ATOM     17  C   UNL     1       4.234   0.952  -0.438  0.00  0.00    +0.112 C 
ATOM     18  C   UNL     1       2.533   2.116   0.806  0.00  0.00    +0.112 C 
ATOM     19  C   UNL     1       5.279   1.511   0.523  0.00  0.00    +0.175 C 
ATOM     20  C   UNL     1       3.619   2.649   1.737  0.00  0.00    +0.175 C 
ENDBRANCH  15   6
ENDBRANCH   9  15
BRANCH  10  16
ATOM     16  C   UNL     1      -1.132  -2.111   1.177  0.00  0.00    +0.124 C 
BRANCH  16   7
ATOM      7  N   UNL     1      -2.518  -1.874   0.811  0.00  0.00    -0.188 NA
ATOM     28  H   UNL     1      -3.043  -2.680   0.450  0.00  0.00    +0.148 HD
BRANCH   7   1
ATOM      1  S   UNL     1      -3.402  -0.589   1.519  0.00  0.00    +0.058 S 
ATOM      3  O   UNL     1      -2.802  -0.251   2.796  0.00  0.00    -0.153 OA
ATOM      4  O   UNL     1      -4.823  -0.870   1.433  0.00  0.00    -0.153 OA
BRANCH   1  21
ATOM     21  C   UNL     1      -3.068   0.732   0.393  0.00  0.00    +0.105 A 
ATOM     22  C   UNL     1      -3.906   0.943  -0.702  0.00  0.00    +0.029 A 
ATOM     23  C   UNL     1      -1.965   1.560   0.597  0.00  0.00    +0.029 A 
ATOM     24  C   UNL     1      -3.641   1.983  -1.592  0.00  0.00    +0.005 A 
ATOM     25  C   UNL     1      -1.700   2.600  -0.293  0.00  0.00    +0.005 A 
ATOM     26  C   UNL     1      -2.538   2.812  -1.388  0.00  0.00    -0.050 A 
ATOM     27  C   UNL     1      -2.255   3.925  -2.340  0.00  0.00    +0.044 C 
ENDBRANCH   1  21
ENDBRANCH   7   1
ENDBRANCH  16   7
ENDBRANCH  10  16
TORSDOF 6
