REMARK  Name = 45783404
REMARK  10 active torsions:
REMARK  status: ('A' for Active; 'I' for Inactive)
REMARK    1  A    between atoms: S_1  and  C_23
REMARK    2  A    between atoms: S_1  and  C_27
REMARK    3  A    between atoms: O_5  and  C_31
REMARK    4  A    between atoms: O_5  and  C_32
REMARK    5  A    between atoms: N_6  and  C_15
REMARK    6  A    between atoms: N_9  and  C_29
REMARK    7  A    between atoms: C_11  and  C_16
REMARK    8  A    between atoms: C_15  and  C_17
REMARK    9  A    between atoms: C_20  and  C_24
REMARK   10  A    between atoms: C_29  and  C_31
REMARK                            x       y       z     vdW  Elec       q    Type
REMARK                         _______ _______ _______ _____ _____    ______ ____
ROOT
ATOM      2  O   UNL     1      -0.885   0.119   2.681  0.00  0.00    -0.336 OA
ATOM      7  N   UNL     1      -0.828  -1.241   0.902  0.00  0.00    -0.190 NA
ATOM      8  N   UNL     1       0.414  -0.402   2.631  0.00  0.00    -0.056 NA
ATOM     16  C   UNL     1      -1.550  -0.426   1.629  0.00  0.00    +0.245 A 
ATOM     20  C   UNL     1       0.369  -1.194   1.555  0.00  0.00    +0.205 A 
ENDROOT
BRANCH  20  24
ATOM      9  N   UNL     1       0.764  -1.832  -1.184  0.00  0.00    -0.326 N 
ATOM     10  N   UNL     1       2.766  -2.986  -0.675  0.00  0.00    -0.240 NA
ATOM     24  C   UNL     1       1.501  -1.953   1.108  0.00  0.00    +0.062 A 
ATOM     25  C   UNL     1       1.709  -2.273  -0.224  0.00  0.00    +0.130 A 
ATOM     26  C   UNL     1       2.438  -2.393   2.037  0.00  0.00    +0.016 A 
ATOM     28  C   UNL     1       3.538  -3.129   1.611  0.00  0.00    +0.020 A 
ATOM     30  C   UNL     1       3.655  -3.396   0.257  0.00  0.00    +0.113 A 
ATOM     33  H   UNL     1       0.204  -1.027  -0.923  0.00  0.00    +0.148 HD
BRANCH   9  29
ATOM     29  C   UNL     1       0.893  -2.112  -2.576  0.00  0.00    +0.131 C 
BRANCH  29  31
ATOM     31  C   UNL     1      -0.255  -1.478  -3.344  0.00  0.00    +0.178 C 
BRANCH  31   5
ATOM      5  O   UNL     1      -1.486  -2.032  -2.897  0.00  0.00    -0.381 OA
ATOM     32  C   UNL     1      -2.591  -1.472  -3.593  0.00  0.00    +0.194 C 
ENDBRANCH  31   5
ENDBRANCH  29  31
ENDBRANCH   9  29
ENDBRANCH  20  24
BRANCH  16  11
ATOM      6  N   UNL     1      -3.265   0.590   0.139  0.00  0.00    -0.287 NA
ATOM     11  C   UNL     1      -2.998  -0.014   1.459  0.00  0.00    +0.146 C 
ATOM     12  C   UNL     1      -3.969  -1.206   1.548  0.00  0.00    +0.030 C 
ATOM     13  C   UNL     1      -4.780  -1.154   0.261  0.00  0.00    +0.017 C 
ATOM     14  C   UNL     1      -4.662   0.291  -0.177  0.00  0.00    +0.085 C 
BRANCH   6  15
ATOM     15  C   UNL     1      -2.986   2.020   0.094  0.00  0.00    +0.120 C 
BRANCH  15  17
ATOM     17  C   UNL     1      -1.515   2.300  -0.063  0.00  0.00    -0.033 A 
ATOM     18  C   UNL     1      -0.843   3.057   0.895  0.00  0.00    +0.007 A 
ATOM     19  C   UNL     1      -0.825   1.801  -1.168  0.00  0.00    +0.007 A 
ATOM     21  C   UNL     1       0.520   3.317   0.749  0.00  0.00    +0.027 A 
ATOM     22  C   UNL     1       0.538   2.060  -1.314  0.00  0.00    +0.027 A 
ATOM     23  C   UNL     1       1.210   2.818  -0.355  0.00  0.00    +0.088 A 
BRANCH  23   1
ATOM      1  S   UNL     1       2.917   3.140  -0.536  0.00  0.00    -0.006 S 
ATOM      3  O   UNL     1       3.269   3.039  -1.946  0.00  0.00    -0.170 OA
ATOM      4  O   UNL     1       3.223   4.358   0.201  0.00  0.00    -0.170 OA
ATOM     27  C   UNL     1       3.713   1.784   0.295  0.00  0.00    +0.200 C 
ENDBRANCH  23   1
ENDBRANCH  15  17
ENDBRANCH   6  15
ENDBRANCH  16  11
TORSDOF 8
