REMARK  Name = 56775848
REMARK  2 active torsions:
REMARK  status: ('A' for Active; 'I' for Inactive)
REMARK    1  A    between atoms: C_6  and  C_8
REMARK    2  A    between atoms: C_11  and  C_13
REMARK                            x       y       z     vdW  Elec       q    Type
REMARK                         _______ _______ _______ _____ _____    ______ ____
ROOT
ATOM      4  N   UNL     1      -0.271  -0.319   0.128  0.00  0.00    -0.341 N 
ATOM      5  N   UNL     1      -1.256   1.553  -0.547  0.00  0.00    -0.238 NA
ATOM      8  C   UNL     1      -1.451   0.333  -0.100  0.00  0.00    +0.127 A 
ATOM     11  C   UNL     1       0.741   0.541  -0.194  0.00  0.00    +0.066 A 
ATOM     12  C   UNL     1       0.108   1.690  -0.608  0.00  0.00    +0.139 A 
ATOM     20  H   UNL     1      -0.174  -1.262   0.482  0.00  0.00    +0.167 HD
ENDROOT
BRANCH  11  13
ATOM      1 CL   UNL     1       6.504  -0.860   0.279  0.00  0.00    -0.084 Cl
ATOM     13  C   UNL     1       2.135   0.202  -0.080  0.00  0.00    -0.000 A 
ATOM     14  C   UNL     1       3.074   1.196   0.195  0.00  0.00    +0.011 A 
ATOM     15  C   UNL     1       2.547  -1.121  -0.243  0.00  0.00    +0.011 A 
ATOM     16  C   UNL     1       4.425   0.868   0.306  0.00  0.00    +0.020 A 
ATOM     17  C   UNL     1       3.898  -1.449  -0.132  0.00  0.00    +0.020 A 
ATOM     18  C   UNL     1       4.837  -0.455   0.142  0.00  0.00    +0.041 A 
ENDBRANCH  11  13
BRANCH   8   6
ATOM      2  O   UNL     1      -4.858  -1.103  -0.870  0.00  0.00    -0.377 OA
ATOM      3  N   UNL     1      -3.556   0.368   1.195  0.00  0.00    -0.303 NA
ATOM      6  C   UNL     1      -2.786  -0.339   0.156  0.00  0.00    +0.146 C 
ATOM      7  C   UNL     1      -3.617  -0.443  -1.132  0.00  0.00    +0.186 C 
ATOM      9  C   UNL     1      -4.851  -0.282   1.408  0.00  0.00    +0.109 C 
ATOM     10  C   UNL     1      -5.620  -0.380   0.098  0.00  0.00    +0.175 C 
ATOM     19  H   UNL     1      -3.721   1.327   0.887  0.00  0.00    +0.123 HD
ENDBRANCH   8   6
TORSDOF 2
