REMARK  Name = 25389536
REMARK  13 active torsions:
REMARK  status: ('A' for Active; 'I' for Inactive)
REMARK    1  A    between atoms: O_1  and  C_17
REMARK    2  A    between atoms: O_1  and  C_22
REMARK    3  A    between atoms: O_3  and  C_26
REMARK    4  A    between atoms: O_3  and  C_31
REMARK    5  A    between atoms: O_4  and  C_28
REMARK    6  A    between atoms: O_4  and  C_32
REMARK    7  A    between atoms: N_6  and  C_20
REMARK    8  A    between atoms: N_8  and  C_25
REMARK    9  A    between atoms: C_10  and  C_16
REMARK   10  A    between atoms: C_11  and  C_17
REMARK   11  A    between atoms: C_19  and  C_21
REMARK   12  A    between atoms: C_25  and  C_29
REMARK   13  A    between atoms: C_29  and  C_30
REMARK                            x       y       z     vdW  Elec       q    Type
REMARK                         _______ _______ _______ _____ _____    ______ ____
ROOT
ATOM      5  N   UNL     1      -3.992  -2.040   0.522  0.00  0.00    -0.296 NA
ATOM      9  C   UNL     1      -2.423  -2.336  -1.536  0.00  0.00    +0.002 C 
ATOM     10  C   UNL     1      -1.758  -2.915  -0.257  0.00  0.00    +0.055 C 
ATOM     11  C   UNL     1      -3.858  -0.750  -0.204  0.00  0.00    +0.095 C 
ATOM     12  C   UNL     1      -2.775  -0.852  -1.300  0.00  0.00    +0.026 C 
ATOM     13  C   UNL     1      -3.755  -3.093  -1.726  0.00  0.00    +0.019 C 
ATOM     14  C   UNL     1      -2.656  -2.523   0.951  0.00  0.00    +0.094 C 
ATOM     15  C   UNL     1      -4.563  -3.034  -0.418  0.00  0.00    +0.085 C 
ENDROOT
BRANCH  10  16
ATOM      6  N   UNL     1       0.550  -3.455   0.651  0.00  0.00    -0.270 N 
ATOM      7  N   UNL     1       1.808  -2.997   0.767  0.00  0.00    -0.171 NA
ATOM     16  C   UNL     1      -0.288  -2.605  -0.008  0.00  0.00    +0.044 A 
ATOM     18  C   UNL     1       0.474  -1.514  -0.347  0.00  0.00    +0.053 A 
ATOM     19  C   UNL     1       1.755  -1.811   0.156  0.00  0.00    +0.093 A 
ATOM     20  C   UNL     1       0.214  -4.744   1.210  0.00  0.00    +0.172 C 
BRANCH  19  21
ATOM     21  C   UNL     1       2.929  -0.982   0.064  0.00  0.00    +0.006 A 
ATOM     23  C   UNL     1       2.802   0.406   0.027  0.00  0.00    +0.059 A 
ATOM     24  C   UNL     1       4.194  -1.568   0.011  0.00  0.00    +0.014 A 
ATOM     26  C   UNL     1       3.939   1.209  -0.062  0.00  0.00    +0.162 A 
ATOM     27  C   UNL     1       5.331  -0.765  -0.078  0.00  0.00    +0.050 A 
ATOM     28  C   UNL     1       5.204   0.623  -0.115  0.00  0.00    +0.162 A 
BRANCH  26   3
ATOM      3  O   UNL     1       3.802   2.564  -0.097  0.00  0.00    -0.491 OA
ATOM     31  C   UNL     1       2.475   3.083  -0.038  0.00  0.00    +0.277 C 
ENDBRANCH  26   3
BRANCH  28   4
ATOM      4  O   UNL     1       6.322   1.397  -0.202  0.00  0.00    -0.491 OA
ATOM     32  C   UNL     1       7.576   0.719  -0.251  0.00  0.00    +0.277 C 
ENDBRANCH  28   4
ENDBRANCH  19  21
ENDBRANCH  10  16
BRANCH  11  17
ATOM     17  C   UNL     1      -3.605   0.427   0.740  0.00  0.00    +0.252 C 
BRANCH  17   1
ATOM      1  O   UNL     1      -3.601   1.619  -0.023  0.00  0.00    -0.449 OA
BRANCH   1  22
ATOM      2  O   UNL     1      -3.202   2.844   1.879  0.00  0.00    -0.226 OA
ATOM      8  N   UNL     1      -3.408   3.864  -0.195  0.00  0.00    -0.281 N 
ATOM     22  C   UNL     1      -3.386   2.788   0.667  0.00  0.00    +0.400 C 
ATOM     33  H   UNL     1      -3.567   3.682  -1.181  0.00  0.00    +0.152 HD
BRANCH   8  25
ATOM     25  C   UNL     1      -3.213   5.232   0.225  0.00  0.00    +0.107 C 
BRANCH  25  29
ATOM     29  C   UNL     1      -1.747   5.647   0.190  0.00  0.00    +0.015 C 
ATOM     30  C   UNL     1      -1.145   5.560  -1.205  0.00  0.00    +0.005 C 
ENDBRANCH  25  29
ENDBRANCH   8  25
ENDBRANCH   1  22
ENDBRANCH  17   1
ENDBRANCH  11  17
TORSDOF 9
