REMARK  Name = 11911856
REMARK  8 active torsions:
REMARK  status: ('A' for Active; 'I' for Inactive)
REMARK    1  A    between atoms: S_1  and  N_6
REMARK    2  A    between atoms: S_1  and  C_18
REMARK    3  A    between atoms: N_6  and  C_13
REMARK    4  A    between atoms: N_7  and  C_14
REMARK    5  A    between atoms: N_10  and  C_36
REMARK    6  A    between atoms: N_10  and  C_37
REMARK    7  A    between atoms: N_10  and  C_38
REMARK    8  A    between atoms: C_22  and  C_27
REMARK                            x       y       z     vdW  Elec       q    Type
REMARK                         _______ _______ _______ _____ _____    ______ ____
ROOT
ATOM      2  O   UNL     1      -0.294   2.083   1.424  0.00  0.00    -0.370 OA
ATOM      3  O   UNL     1       2.137   0.291   2.225  0.00  0.00    -0.370 OA
ATOM     11  C   UNL     1       1.722   0.897   0.990  0.00  0.00    +0.170 C 
ATOM     12  C   UNL     1       0.208   0.827   0.939  0.00  0.00    +0.171 C 
ATOM     13  C   UNL     1       2.023   2.376   1.006  0.00  0.00    +0.133 C 
ATOM     14  C   UNL     1      -0.143  -0.284   1.900  0.00  0.00    +0.130 C 
ATOM     15  C   UNL     1       0.809   2.957   1.704  0.00  0.00    +0.183 C 
ATOM     16  C   UNL     1       0.985  -0.217   2.913  0.00  0.00    +0.185 C 
ENDROOT
BRANCH  14   7
ATOM      7  N   UNL     1      -0.125  -1.557   1.214  0.00  0.00    -0.306 N 
ATOM      8  N   UNL     1      -2.334  -1.310   0.462  0.00  0.00    -0.214 NA
ATOM      9  N   UNL     1      -1.050  -3.271  -0.095  0.00  0.00    -0.223 NA
ATOM     17  C   UNL     1      -1.201  -2.061   0.506  0.00  0.00    +0.216 A 
ATOM     22  C   UNL     1      -3.364  -1.831  -0.236  0.00  0.00    +0.076 A 
ATOM     25  C   UNL     1      -2.119  -3.732  -0.776  0.00  0.00    +0.116 A 
ATOM     26  C   UNL     1      -3.313  -3.049  -0.882  0.00  0.00    +0.048 A 
ATOM     40  H   UNL     1       0.731  -2.100   1.195  0.00  0.00    +0.149 HD
BRANCH  22  27
ATOM     27  C   UNL     1      -4.555  -1.017  -0.270  0.00  0.00    +0.001 A 
ATOM     32  C   UNL     1      -5.812  -1.617  -0.375  0.00  0.00    +0.012 A 
ATOM     33  C   UNL     1      -4.456   0.374  -0.201  0.00  0.00    +0.012 A 
ATOM     34  C   UNL     1      -6.963  -0.831  -0.410  0.00  0.00    +0.024 A 
ATOM     35  C   UNL     1      -5.607   1.161  -0.236  0.00  0.00    +0.024 A 
ATOM     36  C   UNL     1      -6.860   0.559  -0.340  0.00  0.00    +0.029 A 
BRANCH  36  10
ATOM     10  N   UNL     1      -8.025   1.355  -0.375  0.00  0.00    -0.336 N 
ATOM     37  C   UNL     1      -8.065   2.626   0.319  0.00  0.00    +0.129 C 
ATOM     38  C   UNL     1      -9.200   0.904  -1.093  0.00  0.00    +0.129 C 
ENDBRANCH  36  10
ENDBRANCH  22  27
ENDBRANCH  14   7
BRANCH  13   6
ATOM      6  N   UNL     1       2.089   2.887  -0.385  0.00  0.00    -0.182 NA
ATOM     39  H   UNL     1       1.239   2.778  -0.952  0.00  0.00    +0.148 HD
BRANCH   6   1
ATOM      1  S   UNL     1       3.591   3.015  -1.167  0.00  0.00    +0.059 S 
ATOM      4  O   UNL     1       4.496   3.800  -0.350  0.00  0.00    -0.153 OA
ATOM      5  O   UNL     1       3.365   3.370  -2.555  0.00  0.00    -0.153 OA
BRANCH   1  18
ATOM     18  C   UNL     1       4.155   1.339  -1.149  0.00  0.00    +0.106 A 
ATOM     19  C   UNL     1       4.909   0.892  -0.078  0.00  0.00    +0.037 A 
ATOM     20  C   UNL     1       3.833   0.509  -2.204  0.00  0.00    +0.029 A 
ATOM     21  C   UNL     1       5.366  -0.436  -0.050  0.00  0.00    -0.016 A 
ATOM     23  C   UNL     1       4.277  -0.814  -2.192  0.00  0.00    +0.010 A 
ATOM     24  C   UNL     1       5.045  -1.302  -1.122  0.00  0.00    -0.018 A 
ATOM     28  C   UNL     1       6.133  -0.924   1.021  0.00  0.00    +0.008 A 
ATOM     29  C   UNL     1       5.501  -2.630  -1.093  0.00  0.00    +0.008 A 
ATOM     30  C   UNL     1       6.578  -2.246   1.033  0.00  0.00    +0.001 A 
ATOM     31  C   UNL     1       6.263  -3.097  -0.022  0.00  0.00    +0.001 A 
ENDBRANCH   1  18
ENDBRANCH   6   1
ENDBRANCH  13   6
TORSDOF 6
