REMARK  Name = 40779167
REMARK  8 active torsions:
REMARK  status: ('A' for Active; 'I' for Inactive)
REMARK    1  A    between atoms: O_2  and  C_21
REMARK    2  A    between atoms: O_2  and  C_27
REMARK    3  A    between atoms: N_4  and  C_18
REMARK    4  A    between atoms: N_5  and  C_15
REMARK    5  A    between atoms: C_8  and  C_14
REMARK    6  A    between atoms: C_9  and  C_15
REMARK    7  A    between atoms: C_17  and  C_20
REMARK    8  A    between atoms: C_19  and  C_21
REMARK                            x       y       z     vdW  Elec       q    Type
REMARK                         _______ _______ _______ _____ _____    ______ ____
ROOT
ATOM      3  N   UNL     1      -1.984  -2.561   0.677  0.00  0.00    -0.297 NA
ATOM      7  C   UNL     1      -0.627  -2.023  -1.480  0.00  0.00    +0.002 C 
ATOM      8  C   UNL     1       0.330  -2.394  -0.313  0.00  0.00    +0.055 C 
ATOM      9  C   UNL     1      -2.438  -1.268   0.100  0.00  0.00    +0.074 C 
ATOM     10  C   UNL     1      -1.511  -0.832  -1.055  0.00  0.00    +0.024 C 
ATOM     11  C   UNL     1      -1.564  -3.232  -1.688  0.00  0.00    +0.019 C 
ATOM     12  C   UNL     1      -0.532  -2.501   0.977  0.00  0.00    +0.094 C 
ATOM     13  C   UNL     1      -2.203  -3.615  -0.342  0.00  0.00    +0.085 C 
ENDROOT
BRANCH   8  14
ATOM      4  N   UNL     1       2.738  -2.039   0.405  0.00  0.00    -0.270 N 
ATOM      6  N   UNL     1       3.719  -1.125   0.508  0.00  0.00    -0.171 NA
ATOM     14  C   UNL     1       1.575  -1.543  -0.107  0.00  0.00    +0.044 A 
ATOM     16  C   UNL     1       1.811  -0.213  -0.355  0.00  0.00    +0.053 A 
ATOM     17  C   UNL     1       3.147  -0.012   0.042  0.00  0.00    +0.093 A 
ATOM     18  C   UNL     1       2.992  -3.397   0.827  0.00  0.00    +0.172 C 
BRANCH  17  20
ATOM     20  C   UNL     1       3.885   1.222  -0.013  0.00  0.00    +0.002 A 
ATOM     22  C   UNL     1       3.218   2.440   0.120  0.00  0.00    +0.010 A 
ATOM     23  C   UNL     1       5.267   1.202  -0.199  0.00  0.00    +0.010 A 
ATOM     24  C   UNL     1       3.932   3.637   0.066  0.00  0.00    +0.001 A 
ATOM     25  C   UNL     1       5.982   2.398  -0.253  0.00  0.00    +0.001 A 
ATOM     26  C   UNL     1       5.314   3.616  -0.120  0.00  0.00    +0.000 A 
ENDBRANCH  17  20
ENDBRANCH   8  14
BRANCH   9  15
ATOM     15  C   UNL     1      -2.581  -0.174   1.160  0.00  0.00    +0.123 C 
BRANCH  15   5
ATOM      1  O   UNL     1      -5.377   0.536   0.950  0.00  0.00    -0.273 OA
ATOM      5  N   UNL     1      -3.129   1.019   0.592  0.00  0.00    -0.312 N 
ATOM     19  C   UNL     1      -4.496   1.282   0.531  0.00  0.00    +0.239 C 
ATOM     28  H   UNL     1      -2.481   1.704   0.212  0.00  0.00    +0.149 HD
BRANCH  19  21
ATOM     21  C   UNL     1      -4.793   2.616  -0.119  0.00  0.00    +0.255 C 
BRANCH  21   2
ATOM      2  O   UNL     1      -6.184   2.856  -0.152  0.00  0.00    -0.374 OA
ATOM     27  C   UNL     1      -6.494   4.107  -0.760  0.00  0.00    +0.194 C 
ENDBRANCH  21   2
ENDBRANCH  19  21
ENDBRANCH  15   5
ENDBRANCH   9  15
TORSDOF 6
