REMARK  Name = 71693844
REMARK  6 active torsions:
REMARK  status: ('A' for Active; 'I' for Inactive)
REMARK    1  A    between atoms: O_1  and  C_8
REMARK    2  A    between atoms: O_2  and  C_10
REMARK    3  A    between atoms: N_4  and  C_7
REMARK    4  A    between atoms: C_6  and  C_11
REMARK    5  A    between atoms: C_14  and  C_18
REMARK    6  A    between atoms: C_15  and  C_19
REMARK                            x       y       z     vdW  Elec       q    Type
REMARK                         _______ _______ _______ _____ _____    ______ ____
ROOT
ATOM      6  C   UNL     1       1.358   0.786   1.067  0.00  0.00    +0.044 C 
ATOM      7  C   UNL     1       0.481   1.367  -0.065  0.00  0.00    +0.112 C 
ATOM      8  C   UNL     1       0.716   2.874   0.041  0.00  0.00    +0.164 C 
ATOM      9  C   UNL     1       2.451   1.851   1.344  0.00  0.00    +0.044 C 
ATOM     10  C   UNL     1       2.208   2.971   0.334  0.00  0.00    +0.145 C 
ENDROOT
BRANCH   6  11
ATOM     11  C   UNL     1       1.897  -0.593   0.749  0.00  0.00    -0.042 A 
ATOM     12  C   UNL     1       2.707  -0.785  -0.370  0.00  0.00    +0.007 A 
ATOM     13  C   UNL     1       1.583  -1.672   1.576  0.00  0.00    +0.004 A 
ATOM     15  C   UNL     1       3.204  -2.055  -0.662  0.00  0.00    -0.050 A 
ATOM     16  C   UNL     1       2.079  -2.942   1.283  0.00  0.00    +0.001 A 
ATOM     17  C   UNL     1       2.890  -3.134   0.164  0.00  0.00    +0.003 A 
ATOM     19  C   UNL     1       4.070  -2.260  -1.859  0.00  0.00    +0.044 C 
ENDBRANCH   6  11
BRANCH   7   4
ATOM      3  O   UNL     1      -0.882  -0.882  -1.217  0.00  0.00    -0.270 OA
ATOM      4  N   UNL     1      -0.909   1.027   0.100  0.00  0.00    -0.305 N 
ATOM     14  C   UNL     1      -1.483  -0.086  -0.500  0.00  0.00    +0.246 C 
ATOM     24  H   UNL     1      -1.472   1.650   0.669  0.00  0.00    +0.149 HD
BRANCH  14  18
ATOM      5  N   UNL     1      -4.851   0.057   1.180  0.00  0.00    -0.263 NA
ATOM     18  C   UNL     1      -2.934  -0.284  -0.253  0.00  0.00    +0.055 A 
ATOM     20  C   UNL     1      -3.731  -0.962  -1.169  0.00  0.00    +0.016 A 
ATOM     21  C   UNL     1      -3.537   0.202   0.896  0.00  0.00    +0.123 A 
ATOM     22  C   UNL     1      -5.087  -1.131  -0.912  0.00  0.00    +0.020 A 
ATOM     23  C   UNL     1      -5.593  -0.607   0.266  0.00  0.00    +0.111 A 
ENDBRANCH  14  18
ENDBRANCH   7   4
BRANCH   8   1
ATOM      1  O   UNL     1       0.385   3.554  -1.155  0.00  0.00    -0.387 OA
ATOM     25  H   UNL     1       0.648   4.483  -1.045  0.00  0.00    +0.210 HD
ENDBRANCH   8   1
BRANCH  10   2
ATOM      2  O   UNL     1       2.977   2.706  -0.835  0.00  0.00    -0.389 OA
ATOM     26  H   UNL     1       3.915   2.741  -0.583  0.00  0.00    +0.210 HD
ENDBRANCH  10   2
TORSDOF 5
