REMARK  Name = 45783702
REMARK  6 active torsions:
REMARK  status: ('A' for Active; 'I' for Inactive)
REMARK    1  A    between atoms: O_2  and  C_24
REMARK    2  A    between atoms: O_2  and  C_25
REMARK    3  A    between atoms: N_3  and  C_12
REMARK    4  A    between atoms: C_8  and  C_13
REMARK    5  A    between atoms: C_12  and  C_14
REMARK    6  A    between atoms: C_15  and  C_18
REMARK                            x       y       z     vdW  Elec       q    Type
REMARK                         _______ _______ _______ _____ _____    ______ ____
ROOT
ATOM      1  O   UNL     1      -1.016  -0.402   2.008  0.00  0.00    -0.336 OA
ATOM      4  N   UNL     1      -0.278  -1.149   0.029  0.00  0.00    -0.190 NA
ATOM      5  N   UNL     1       0.358  -0.131   1.977  0.00  0.00    -0.056 NA
ATOM     13  C   UNL     1      -1.308  -1.002   0.824  0.00  0.00    +0.245 A 
ATOM     15  C   UNL     1       0.721  -0.600   0.779  0.00  0.00    +0.204 A 
ENDROOT
BRANCH  15  18
ATOM      7  N   UNL     1       4.369   0.116   0.686  0.00  0.00    -0.221 NA
ATOM     18  C   UNL     1       2.073  -0.537   0.304  0.00  0.00    +0.041 A 
ATOM     21  C   UNL     1       2.415  -1.036  -0.948  0.00  0.00    +0.018 A 
ATOM     22  C   UNL     1       3.078   0.024   1.075  0.00  0.00    +0.126 A 
ATOM     23  C   UNL     1       3.733  -0.961  -1.384  0.00  0.00    +0.068 A 
ATOM     24  C   UNL     1       4.664  -0.381  -0.537  0.00  0.00    +0.214 A 
BRANCH  24   2
ATOM      2  O   UNL     1       5.970  -0.294  -0.943  0.00  0.00    -0.480 OA
ATOM     25  C   UNL     1       6.884   0.310  -0.036  0.00  0.00    +0.279 C 
ENDBRANCH  24   2
ENDBRANCH  15  18
BRANCH  13   8
ATOM      3  N   UNL     1      -3.334  -0.788  -0.605  0.00  0.00    -0.287 NA
ATOM      8  C   UNL     1      -2.753  -1.399   0.607  0.00  0.00    +0.146 C 
ATOM      9  C   UNL     1      -2.928  -2.915   0.402  0.00  0.00    +0.030 C 
ATOM     10  C   UNL     1      -3.670  -3.055  -0.919  0.00  0.00    +0.017 C 
ATOM     11  C   UNL     1      -4.358  -1.716  -1.085  0.00  0.00    +0.085 C 
BRANCH   3  12
ATOM     12  C   UNL     1      -3.870   0.548  -0.373  0.00  0.00    +0.121 C 
BRANCH  12  14
ATOM      6  N   UNL     1      -1.630   3.349   0.839  0.00  0.00    -0.263 NA
ATOM     14  C   UNL     1      -2.785   1.591  -0.354  0.00  0.00    -0.015 A 
ATOM     16  C   UNL     1      -1.951   1.779  -1.452  0.00  0.00    +0.008 A 
ATOM     17  C   UNL     1      -2.585   2.395   0.757  0.00  0.00    +0.115 A 
ATOM     19  C   UNL     1      -0.958   2.751  -1.405  0.00  0.00    +0.020 A 
ATOM     20  C   UNL     1      -0.840   3.502  -0.247  0.00  0.00    +0.111 A 
ENDBRANCH  12  14
ENDBRANCH   3  12
ENDBRANCH  13   8
TORSDOF 5
