REMARK  Name = 56776123
REMARK  3 active torsions:
REMARK  status: ('A' for Active; 'I' for Inactive)
REMARK    1  A    between atoms: N_8  and  C_29
REMARK    2  A    between atoms: C_11  and  C_16
REMARK    3  A    between atoms: C_16  and  C_18
REMARK                            x       y       z     vdW  Elec       q    Type
REMARK                         _______ _______ _______ _____ _____    ______ ____
ROOT
ATOM      1  O   UNL     1      -1.208  -1.084   0.018  0.00  0.00    -0.492 OA
ATOM      3  O   UNL     1      -0.072   3.493   1.671  0.00  0.00    -0.274 OA
ATOM      5  N   UNL     1       1.323   2.680   0.007  0.00  0.00    -0.300 N 
ATOM      7  N   UNL     1      -1.724   1.919  -0.616  0.00  0.00    -0.304 NA
ATOM     10  C   UNL     1       2.344   0.835  -1.340  0.00  0.00    +0.010 C 
ATOM     11  C   UNL     1       3.656   1.035  -0.535  0.00  0.00    +0.004 C 
ATOM     12  C   UNL     1       3.357   1.544   0.882  0.00  0.00    +0.023 C 
ATOM     13  C   UNL     1       1.572   2.177  -1.354  0.00  0.00    +0.111 C 
ATOM     14  C   UNL     1       1.466  -0.320  -0.798  0.00  0.00    +0.008 C 
ATOM     15  C   UNL     1       2.518   2.817   0.845  0.00  0.00    +0.108 C 
ATOM     17  C   UNL     1       0.362  -0.752  -1.774  0.00  0.00    +0.041 C 
ATOM     19  C   UNL     1       0.096   3.131   0.500  0.00  0.00    +0.229 C 
ATOM     20  C   UNL     1      -0.635  -1.718  -1.131  0.00  0.00    +0.229 C 
ATOM     21  C   UNL     1      -1.077   3.219  -0.456  0.00  0.00    +0.178 C 
ATOM     26  C   UNL     1      -2.385   1.441   0.602  0.00  0.00    +0.120 C 
ATOM     27  C   UNL     1      -2.576  -1.045   0.036  0.00  0.00    +0.125 A 
ATOM     28  C   UNL     1      -3.191   0.183   0.344  0.00  0.00    +0.010 A 
ATOM     29  C   UNL     1      -5.359  -0.905   0.167  0.00  0.00    +0.030 A 
ATOM     30  C   UNL     1      -4.592   0.238   0.395  0.00  0.00    +0.031 A 
ATOM     31  C   UNL     1      -3.347  -2.195  -0.169  0.00  0.00    +0.048 A 
ATOM     34  C   UNL     1      -4.737  -2.121  -0.109  0.00  0.00    +0.027 A 
ATOM     37  H   UNL     1      -1.034   1.234  -0.899  0.00  0.00    +0.123 HD
ENDROOT
BRANCH  29   8
ATOM      8  N   UNL     1      -6.756  -0.833   0.225  0.00  0.00    -0.327 N 
ATOM      9  N   UNL     1      -9.608  -0.784   0.113  0.00  0.00    -0.313 NA
ATOM     32  C   UNL     1      -7.441   0.069  -0.711  0.00  0.00    +0.120 C 
ATOM     33  C   UNL     1      -7.528  -2.000   0.663  0.00  0.00    +0.120 C 
ATOM     35  C   UNL     1      -8.835   0.419  -0.194  0.00  0.00    +0.100 C 
ATOM     36  C   UNL     1      -8.921  -1.577   1.130  0.00  0.00    +0.100 C 
ATOM     38  H   UNL     1     -10.527  -0.513   0.461  0.00  0.00    +0.122 HD
ENDBRANCH  29   8
BRANCH  11  16
ATOM     16  C   UNL     1       4.544  -0.208  -0.490  0.00  0.00    +0.100 C 
BRANCH  16  18
ATOM      2  O   UNL     1       6.251   1.377  -0.051  0.00  0.00    -0.276 OA
ATOM      4  O   UNL     1       8.633  -2.872   0.806  0.00  0.00    -0.377 OA
ATOM      6  N   UNL     1       6.896  -0.853  -0.114  0.00  0.00    -0.297 N 
ATOM     18  C   UNL     1       5.970   0.185  -0.200  0.00  0.00    +0.216 C 
ATOM     22  C   UNL     1       8.301  -0.559   0.169  0.00  0.00    +0.136 C 
ATOM     23  C   UNL     1       6.623  -2.263  -0.409  0.00  0.00    +0.136 C 
ATOM     24  C   UNL     1       8.842  -1.519   1.219  0.00  0.00    +0.179 C 
ATOM     25  C   UNL     1       7.238  -3.155   0.662  0.00  0.00    +0.179 C 
ENDBRANCH  16  18
ENDBRANCH  11  16
TORSDOF 3
