REMARK  Name = 51137485
REMARK  8 active torsions:
REMARK  status: ('A' for Active; 'I' for Inactive)
REMARK    1  A    between atoms: O_2  and  C_24
REMARK    2  A    between atoms: O_3  and  C_27
REMARK    3  A    between atoms: O_3  and  C_28
REMARK    4  A    between atoms: N_5  and  C_12
REMARK    5  A    between atoms: C_8  and  C_13
REMARK    6  A    between atoms: C_12  and  C_14
REMARK    7  A    between atoms: C_17  and  C_20
REMARK    8  A    between atoms: C_21  and  C_24
REMARK                            x       y       z     vdW  Elec       q    Type
REMARK                         _______ _______ _______ _____ _____    ______ ____
ROOT
ATOM      5  N   UNL     1      -1.774  -0.888  -0.285  0.00  0.00    -0.297 NA
ATOM      8  C   UNL     1       0.124  -2.139   0.290  0.00  0.00    +0.092 C 
ATOM      9  C   UNL     1      -0.438  -1.450   1.546  0.00  0.00    +0.029 C 
ATOM     10  C   UNL     1      -0.544  -1.412  -0.884  0.00  0.00    +0.097 C 
ATOM     11  C   UNL     1      -1.364  -0.363   1.018  0.00  0.00    +0.085 C 
ENDROOT
BRANCH   8  13
ATOM      1  O   UNL     1       2.257  -0.941   0.173  0.00  0.00    -0.420 OA
ATOM      6  N   UNL     1       2.458  -3.168   0.126  0.00  0.00    -0.112 NA
ATOM      7  N   UNL     1       3.727  -2.623   0.053  0.00  0.00    -0.107 NA
ATOM     13  C   UNL     1       1.633  -2.150   0.194  0.00  0.00    +0.222 A 
ATOM     17  C   UNL     1       3.561  -1.322   0.084  0.00  0.00    +0.248 A 
BRANCH  17  20
ATOM     20  C   UNL     1       4.523  -0.259   0.039  0.00  0.00    +0.039 A 
ATOM     22  C   UNL     1       5.883  -0.553  -0.052  0.00  0.00    +0.017 A 
ATOM     23  C   UNL     1       4.098   1.069   0.086  0.00  0.00    +0.017 A 
ATOM     25  C   UNL     1       6.819   0.480  -0.096  0.00  0.00    +0.046 A 
ATOM     26  C   UNL     1       5.034   2.102   0.042  0.00  0.00    +0.046 A 
ATOM     27  C   UNL     1       6.394   1.808  -0.049  0.00  0.00    +0.120 A 
BRANCH  27   3
ATOM      3  O   UNL     1       7.307   2.817  -0.095  0.00  0.00    -0.495 OA
ATOM     28  C   UNL     1       8.681   2.445  -0.191  0.00  0.00    +0.277 C 
ENDBRANCH  27   3
ENDBRANCH  17  20
ENDBRANCH   8  13
BRANCH   5  12
ATOM     12  C   UNL     1      -2.408   0.125  -1.116  0.00  0.00    +0.119 C 
BRANCH  12  14
ATOM     14  C   UNL     1      -3.850   0.338  -0.736  0.00  0.00    -0.033 A 
ATOM     15  C   UNL     1      -4.816  -0.591  -1.121  0.00  0.00    +0.006 A 
ATOM     16  C   UNL     1      -4.218   1.465  -0.001  0.00  0.00    +0.006 A 
ATOM     18  C   UNL     1      -6.152  -0.393  -0.769  0.00  0.00    +0.015 A 
ATOM     19  C   UNL     1      -5.553   1.663   0.350  0.00  0.00    +0.015 A 
ATOM     21  C   UNL     1      -6.520   0.734  -0.034  0.00  0.00    +0.059 A 
BRANCH  21  24
ATOM      4  O   UNL     1      -8.848   0.184   0.047  0.00  0.00    -0.245 OA
ATOM     24  C   UNL     1      -7.912   0.940   0.333  0.00  0.00    +0.337 C 
BRANCH  24   2
ATOM      2  O   UNL     1      -8.099   2.083   1.047  0.00  0.00    -0.477 OA
ATOM     29  H   UNL     1      -9.040   2.213   1.289  0.00  0.00    +0.295 HD
ENDBRANCH  24   2
ENDBRANCH  21  24
ENDBRANCH  12  14
ENDBRANCH   5  12
TORSDOF 7
