REMARK  Name = 9419192
REMARK  5 active torsions:
REMARK  status: ('A' for Active; 'I' for Inactive)
REMARK    1  A    between atoms: O_7  and  C_27
REMARK    2  A    between atoms: O_7  and  C_31
REMARK    3  A    between atoms: N_9  and  C_20
REMARK    4  A    between atoms: N_10  and  C_15
REMARK    5  A    between atoms: C_21  and  C_24
REMARK                            x       y       z     vdW  Elec       q    Type
REMARK                         _______ _______ _______ _____ _____    ______ ____
ROOT
ATOM      4  O   UNL     1      -0.827   1.423  -1.179  0.00  0.00    -0.273 OA
ATOM      5  O   UNL     1      -1.042  -2.418   1.422  0.00  0.00    -0.252 OA
ATOM      8  N   UNL     1       0.694  -1.129   0.578  0.00  0.00    -0.273 N 
ATOM      9  N   UNL     1      -1.398  -0.452   0.149  0.00  0.00    -0.193 N 
ATOM     13  C   UNL     1       0.888   0.041  -0.233  0.00  0.00    +0.166 C 
ATOM     14  C   UNL     1       1.670  -0.297  -1.498  0.00  0.00    +0.054 C 
ATOM     15  C   UNL     1       2.948  -1.094  -1.183  0.00  0.00    +0.077 C 
ATOM     16  C   UNL     1       2.647  -2.309  -0.288  0.00  0.00    +0.041 C 
ATOM     17  C   UNL     1       1.845  -1.929   0.958  0.00  0.00    +0.112 C 
ATOM     18  C   UNL     1      -0.552   0.437  -0.507  0.00  0.00    +0.248 C 
ATOM     19  C   UNL     1      -0.649  -1.434   0.806  0.00  0.00    +0.316 C 
ENDROOT
BRANCH   9  20
ATOM     20  C   UNL     1      -2.828  -0.389   0.134  0.00  0.00    +0.046 A 
ATOM     22  C   UNL     1      -3.495   0.140  -0.973  0.00  0.00    +0.027 A 
ATOM     23  C   UNL     1      -3.562  -0.855   1.227  0.00  0.00    +0.027 A 
ATOM     25  C   UNL     1      -4.889   0.202  -0.987  0.00  0.00    +0.048 A 
ATOM     26  C   UNL     1      -4.956  -0.793   1.213  0.00  0.00    +0.048 A 
ATOM     27  C   UNL     1      -5.619  -0.264   0.106  0.00  0.00    +0.130 A 
BRANCH  27   7
ATOM      7  O   UNL     1      -6.979  -0.205   0.091  0.00  0.00    -0.406 OA
BRANCH   7  31
ATOM      1  F   UNL     1      -8.775   1.054   0.624  0.00  0.00    -0.133 F 
ATOM      2  F   UNL     1      -6.829   2.040   0.502  0.00  0.00    -0.133 F 
ATOM      3  F   UNL     1      -7.852   1.356  -1.334  0.00  0.00    -0.133 F 
ATOM     31  C   UNL     1      -7.596   1.070  -0.039  0.00  0.00    +0.575 C 
ENDBRANCH   7  31
ENDBRANCH  27   7
ENDBRANCH   9  20
BRANCH  15  10
ATOM      6  O   UNL     1       5.792  -1.353  -1.475  0.00  0.00    -0.268 OA
ATOM     10  N   UNL     1       3.957  -0.250  -0.585  0.00  0.00    -0.307 N 
ATOM     21  C   UNL     1       5.313  -0.457  -0.786  0.00  0.00    +0.264 C 
ATOM     32  H   UNL     1       3.661   0.489   0.046  0.00  0.00    +0.149 HD
BRANCH  21  24
ATOM     11  N   UNL     1       5.619   1.410   0.661  0.00  0.00    -0.247 NA
ATOM     12  N   UNL     1       8.405   1.204   0.419  0.00  0.00    -0.259 NA
ATOM     24  C   UNL     1       6.223   0.482  -0.080  0.00  0.00    +0.143 A 
ATOM     28  C   UNL     1       7.570   0.359  -0.216  0.00  0.00    +0.143 A 
ATOM     29  C   UNL     1       6.455   2.255   1.297  0.00  0.00    +0.131 A 
ATOM     30  C   UNL     1       7.823   2.154   1.178  0.00  0.00    +0.130 A 
ENDBRANCH  21  24
ENDBRANCH  15  10
TORSDOF 5
