REMARK  Name = 75537075
REMARK  5 active torsions:
REMARK  status: ('A' for Active; 'I' for Inactive)
REMARK    1  A    between atoms: N_3  and  C_14
REMARK    2  A    between atoms: N_4  and  C_15
REMARK    3  A    between atoms: N_5  and  C_20
REMARK    4  A    between atoms: C_14  and  C_16
REMARK    5  A    between atoms: C_15  and  C_17
REMARK                            x       y       z     vdW  Elec       q    Type
REMARK                         _______ _______ _______ _____ _____    ______ ____
ROOT
ATOM      1  O   UNL     1       2.331   2.802  -0.001  0.00  0.00    -0.252 OA
ATOM      2  N   UNL     1       0.264   1.704  -0.196  0.00  0.00    -0.278 N 
ATOM      3  N   UNL     1      -2.238   0.665   0.561  0.00  0.00    -0.292 NA
ATOM      4  N   UNL     1       2.068   0.749  -1.132  0.00  0.00    -0.278 N 
ATOM      8  C   UNL     1      -0.260   0.552  -0.898  0.00  0.00    +0.109 C 
ATOM      9  C   UNL     1      -1.209  -0.236   0.004  0.00  0.00    +0.109 C 
ATOM     10  C   UNL     1       0.993  -0.208  -1.331  0.00  0.00    +0.133 C 
ATOM     11  C   UNL     1      -0.649   2.576   0.514  0.00  0.00    +0.125 C 
ATOM     12  C   UNL     1      -1.619   1.744   1.357  0.00  0.00    +0.104 C 
ATOM     13  C   UNL     1       1.640   1.873  -0.396  0.00  0.00    +0.306 C 
ENDROOT
BRANCH   3  14
ATOM     14  C   UNL     1      -3.188  -0.090   1.378  0.00  0.00    +0.158 C 
BRANCH  14  16
ATOM      5  N   UNL     1      -5.213  -0.238  -0.101  0.00  0.00    -0.336 N 
ATOM      6  N   UNL     1      -4.158  -2.148   0.316  0.00  0.00    -0.239 NA
ATOM     16  C   UNL     1      -4.171  -0.852   0.537  0.00  0.00    +0.124 A 
ATOM     19  C   UNL     1      -5.908  -1.204  -0.771  0.00  0.00    +0.106 A 
ATOM     20  C   UNL     1      -5.534   1.169  -0.081  0.00  0.00    +0.150 C 
ATOM     21  C   UNL     1      -5.239  -2.374  -0.499  0.00  0.00    +0.130 A 
ENDBRANCH  14  16
ENDBRANCH   3  14
BRANCH   4  15
ATOM     15  C   UNL     1       3.430   0.465  -1.526  0.00  0.00    +0.164 C 
BRANCH  15  17
ATOM      7  N   UNL     1       4.318  -1.688  -0.838  0.00  0.00    -0.258 NA
ATOM     17  C   UNL     1       4.141  -0.387  -0.516  0.00  0.00    +0.059 A 
ATOM     18  C   UNL     1       4.575   0.185   0.669  0.00  0.00    +0.025 A 
ATOM     22  C   UNL     1       5.232  -0.631   1.583  0.00  0.00    +0.003 A 
ATOM     23  C   UNL     1       4.961  -2.451   0.075  0.00  0.00    +0.111 A 
ATOM     24  C   UNL     1       5.433  -1.976   1.288  0.00  0.00    +0.020 A 
ENDBRANCH  15  17
ENDBRANCH   4  15
TORSDOF 4
