REMARK  Name = 51137970
REMARK  8 active torsions:
REMARK  status: ('A' for Active; 'I' for Inactive)
REMARK    1  A    between atoms: N_4  and  C_21
REMARK    2  A    between atoms: C_5  and  C_7
REMARK    3  A    between atoms: C_6  and  C_16
REMARK    4  A    between atoms: C_7  and  C_12
REMARK    5  A    between atoms: C_12  and  C_17
REMARK    6  A    between atoms: C_12  and  C_18
REMARK    7  A    between atoms: C_21  and  C_22
REMARK    8  A    between atoms: C_22  and  C_23
REMARK                            x       y       z     vdW  Elec       q    Type
REMARK                         _______ _______ _______ _____ _____    ______ ____
ROOT
ATOM      2  N   UNL     1      -0.524  -0.324  -0.666  0.00  0.00    -0.299 NA
ATOM      3  N   UNL     1       3.848   2.146  -0.123  0.00  0.00    -0.360 N 
ATOM      5  C   UNL     1       0.329  -1.199   0.149  0.00  0.00    +0.085 C 
ATOM      6  C   UNL     1      -0.720   1.012  -0.122  0.00  0.00    +0.145 C 
ATOM      8  C   UNL     1       1.787  -0.755   0.306  0.00  0.00    -0.021 A 
ATOM      9  C   UNL     1       2.281   0.553   0.031  0.00  0.00    +0.008 A 
ATOM     10  C   UNL     1       0.239   2.021  -0.750  0.00  0.00    +0.065 C 
ATOM     11  C   UNL     1       1.674   1.776  -0.421  0.00  0.00    -0.020 A 
ATOM     13  C   UNL     1       3.638   0.834   0.229  0.00  0.00    +0.047 A 
ATOM     14  C   UNL     1       2.724  -1.678   0.837  0.00  0.00    +0.006 A 
ATOM     15  C   UNL     1       2.674   2.723  -0.510  0.00  0.00    +0.087 A 
ATOM     19  C   UNL     1       4.554  -0.102   0.710  0.00  0.00    +0.026 A 
ATOM     20  C   UNL     1       4.069  -1.365   1.024  0.00  0.00    +0.002 A 
ATOM     24  H   UNL     1      -0.191  -0.284  -1.629  0.00  0.00    +0.123 HD
ATOM     25  H   UNL     1       4.740   2.618  -0.084  0.00  0.00    +0.165 HD
ENDROOT
BRANCH   6  16
ATOM      1  O   UNL     1      -2.497   1.450  -1.654  0.00  0.00    -0.274 OA
ATOM      4  N   UNL     1      -2.904   1.644   0.630  0.00  0.00    -0.314 N 
ATOM     16  C   UNL     1      -2.126   1.381  -0.485  0.00  0.00    +0.230 C 
ATOM     26  H   UNL     1      -2.501   1.555   1.558  0.00  0.00    +0.149 HD
BRANCH   4  21
ATOM     21  C   UNL     1      -4.290   2.043   0.551  0.00  0.00    +0.104 C 
BRANCH  21  22
ATOM     22  C   UNL     1      -5.239   0.851   0.564  0.00  0.00    +0.015 C 
ATOM     23  C   UNL     1      -5.126   0.023   1.837  0.00  0.00    +0.005 C 
ENDBRANCH  21  22
ENDBRANCH   4  21
ENDBRANCH   6  16
BRANCH   5   7
ATOM      7  C   UNL     1       0.202  -2.586  -0.506  0.00  0.00    +0.026 C 
BRANCH   7  12
ATOM     12  C   UNL     1      -1.120  -3.285  -0.173  0.00  0.00    -0.015 C 
ATOM     17  C   UNL     1      -1.132  -4.673  -0.818  0.00  0.00    +0.007 C 
ATOM     18  C   UNL     1      -2.340  -2.489  -0.637  0.00  0.00    +0.007 C 
ENDBRANCH   7  12
ENDBRANCH   5   7
TORSDOF 5
