REMARK  Name = 7674781
REMARK  2 active torsions:
REMARK  status: ('A' for Active; 'I' for Inactive)
REMARK    1  A    between atoms: C_14  and  C_19
REMARK    2  A    between atoms: C_16  and  C_20
REMARK                            x       y       z     vdW  Elec       q    Type
REMARK                         _______ _______ _______ _____ _____    ______ ____
ROOT
ATOM      1  O   UNL     1       3.888   1.943  -2.128  0.00  0.00    -0.268 OA
ATOM      2  O   UNL     1       3.656  -2.346   0.534  0.00  0.00    -0.268 OA
ATOM      3  N   UNL     1       2.371   1.618  -0.373  0.00  0.00    -0.311 N 
ATOM      4  N   UNL     1       2.183  -0.857   1.573  0.00  0.00    -0.295 N 
ATOM      7  C   UNL     1       3.171   1.367   2.053  0.00  0.00    +0.027 C 
ATOM      8  C   UNL     1       0.776   1.192   1.521  0.00  0.00    +0.054 C 
ATOM      9  C   UNL     1       1.794   1.906   2.409  0.00  0.00    +0.018 C 
ATOM     10  C   UNL     1       3.471   1.727   0.597  0.00  0.00    +0.130 C 
ATOM     11  C   UNL     1       3.239  -0.150   2.296  0.00  0.00    +0.113 C 
ATOM     12  C   UNL     1       0.830  -0.328   1.792  0.00  0.00    +0.117 C 
ATOM     13  C   UNL     1       1.029   1.469   0.035  0.00  0.00    +0.034 A 
ATOM     14  C   UNL     1       0.030   1.538  -0.886  0.00  0.00    +0.002 A 
ATOM     15  C   UNL     1       2.736   1.796  -1.720  0.00  0.00    +0.252 A 
ATOM     16  C   UNL     1       2.522  -1.906   0.715  0.00  0.00    +0.266 C 
ATOM     17  C   UNL     1       0.372   1.717  -2.286  0.00  0.00    +0.015 A 
ATOM     18  C   UNL     1       1.633   1.823  -2.705  0.00  0.00    +0.071 A 
ENDROOT
BRANCH  14  19
ATOM     19  C   UNL     1      -1.347   1.421  -0.488  0.00  0.00    -0.016 A 
ATOM     21  C   UNL     1      -1.946   0.165  -0.433  0.00  0.00    +0.017 A 
ATOM     22  C   UNL     1      -2.069   2.561  -0.161  0.00  0.00    +0.009 A 
ATOM     23  C   UNL     1      -3.289   0.034  -0.046  0.00  0.00    -0.017 A 
ATOM     24  C   UNL     1      -3.405   2.449   0.226  0.00  0.00    +0.009 A 
ATOM     25  C   UNL     1      -4.030   1.193   0.289  0.00  0.00    -0.018 A 
ATOM     27  C   UNL     1      -3.914  -1.222   0.017  0.00  0.00    +0.008 A 
ATOM     28  C   UNL     1      -5.373   1.061   0.676  0.00  0.00    +0.008 A 
ATOM     30  C   UNL     1      -5.250  -1.334   0.404  0.00  0.00    +0.001 A 
ATOM     31  C   UNL     1      -5.978  -0.195   0.732  0.00  0.00    +0.001 A 
ENDBRANCH  14  19
BRANCH  16  20
ATOM      5  N   UNL     1       1.198  -2.007  -1.272  0.00  0.00    -0.247 NA
ATOM      6  N   UNL     1      -0.230  -4.205  -0.275  0.00  0.00    -0.259 NA
ATOM     20  C   UNL     1       1.451  -2.539  -0.064  0.00  0.00    +0.144 A 
ATOM     26  C   UNL     1       0.756  -3.616   0.430  0.00  0.00    +0.143 A 
ATOM     29  C   UNL     1       0.212  -2.597  -1.977  0.00  0.00    +0.131 A 
ATOM     32  C   UNL     1      -0.489  -3.677  -1.487  0.00  0.00    +0.130 A 
ENDBRANCH  16  20
TORSDOF 2
