REMARK  Name = 56775475
REMARK  6 active torsions:
REMARK  status: ('A' for Active; 'I' for Inactive)
REMARK    1  A    between atoms: N_4  and  C_6
REMARK    2  A    between atoms: N_4  and  C_11
REMARK    3  A    between atoms: C_6  and  C_9
REMARK    4  A    between atoms: C_9  and  C_10
REMARK    5  A    between atoms: C_11  and  C_12
REMARK    6  A    between atoms: C_14  and  C_17
REMARK                            x       y       z     vdW  Elec       q    Type
REMARK                         _______ _______ _______ _____ _____    ______ ____
ROOT
ATOM      2  O   UNL     1      -2.993  -3.465   1.220  0.00  0.00    -0.376 OA
ATOM      6  C   UNL     1      -1.940  -2.051   0.018  0.00  0.00    +0.072 C 
ATOM      7  C   UNL     1      -1.679  -2.865   1.280  0.00  0.00    +0.184 C 
ATOM      8  C   UNL     1      -3.269  -2.795  -0.031  0.00  0.00    +0.184 C 
ENDROOT
BRANCH   6   4
ATOM      4  N   UNL     1      -2.190  -0.667   0.397  0.00  0.00    -0.302 NA
ATOM     26  H   UNL     1      -1.395  -0.179   0.805  0.00  0.00    +0.123 HD
BRANCH   4  11
ATOM     11  C   UNL     1      -2.688   0.079  -0.757  0.00  0.00    +0.117 C 
BRANCH  11  12
ATOM     12  C   UNL     1      -3.506   1.272  -0.343  0.00  0.00    -0.034 A 
ATOM     15  C   UNL     1      -4.883   1.145  -0.160  0.00  0.00    +0.005 A 
ATOM     16  C   UNL     1      -2.887   2.506  -0.142  0.00  0.00    +0.005 A 
ATOM     18  C   UNL     1      -5.641   2.252   0.224  0.00  0.00    +0.000 A 
ATOM     19  C   UNL     1      -3.645   3.612   0.243  0.00  0.00    +0.000 A 
ATOM     20  C   UNL     1      -5.022   3.485   0.425  0.00  0.00    +0.000 A 
ENDBRANCH  11  12
ENDBRANCH   4  11
ENDBRANCH   6   4
BRANCH   6   9
ATOM      9  C   UNL     1      -0.971  -2.181  -1.165  0.00  0.00    +0.085 C 
BRANCH   9  10
ATOM      3  O   UNL     1       2.415  -2.081  -0.034  0.00  0.00    -0.354 OA
ATOM      5  N   UNL     1       1.229  -2.754  -0.303  0.00  0.00    -0.083 NA
ATOM     10  C   UNL     1       0.400  -1.817  -0.772  0.00  0.00    +0.086 A 
ATOM     13  C   UNL     1       1.001  -0.548  -0.822  0.00  0.00    +0.076 A 
ATOM     14  C   UNL     1       2.267  -0.769  -0.348  0.00  0.00    +0.167 A 
BRANCH  14  17
ATOM      1  F   UNL     1       6.738   2.442   0.515  0.00  0.00    -0.205 F 
ATOM     17  C   UNL     1       3.425   0.063  -0.123  0.00  0.00    +0.020 A 
ATOM     21  C   UNL     1       3.372   1.425  -0.417  0.00  0.00    +0.014 A 
ATOM     22  C   UNL     1       4.596  -0.496   0.387  0.00  0.00    +0.014 A 
ATOM     23  C   UNL     1       4.491   2.229  -0.202  0.00  0.00    +0.039 A 
ATOM     24  C   UNL     1       5.716   0.308   0.602  0.00  0.00    +0.039 A 
ATOM     25  C   UNL     1       5.663   1.670   0.308  0.00  0.00    +0.123 A 
ENDBRANCH  14  17
ENDBRANCH   9  10
ENDBRANCH   6   9
TORSDOF 6
