REMARK  Name = 71693203
REMARK  16 active torsions:
REMARK  status: ('A' for Active; 'I' for Inactive)
REMARK    1  A    between atoms: O_2  and  C_30
REMARK    2  A    between atoms: N_4  and  C_14
REMARK    3  A    between atoms: C_7  and  C_11
REMARK    4  A    between atoms: C_8  and  C_14
REMARK    5  A    between atoms: C_10  and  C_15
REMARK    6  A    between atoms: C_11  and  C_16
REMARK    7  A    between atoms: C_11  and  C_17
REMARK    8  A    between atoms: C_12  and  C_18
REMARK    9  A    between atoms: C_15  and  C_19
REMARK   10  A    between atoms: C_20  and  C_22
REMARK   11  A    between atoms: C_21  and  C_22
REMARK   12  A    between atoms: C_21  and  C_25
REMARK   13  A    between atoms: C_21  and  C_26
REMARK   14  A    between atoms: C_21  and  C_27
REMARK   15  A    between atoms: C_25  and  C_30
REMARK   16  A    between atoms: C_28  and  C_33
REMARK                            x       y       z     vdW  Elec       q    Type
REMARK                         _______ _______ _______ _____ _____    ______ ____
ROOT
ATOM      7  C   UNL     1       0.683   1.987  -1.041  0.00  0.00    +0.000 C 
ATOM      8  C   UNL     1       1.763   2.983  -0.550  0.00  0.00    +0.032 C 
ATOM      9  C   UNL     1      -0.708   2.422  -0.556  0.00  0.00    +0.012 C 
ATOM     10  C   UNL     1      -0.789   2.511   0.980  0.00  0.00    +0.022 C 
ATOM     12  C   UNL     1       0.395   3.256   1.563  0.00  0.00    -0.073 C 
ATOM     13  C   UNL     1       1.522   3.469   0.860  0.00  0.00    -0.022 C 
ATOM     18  C   UNL     1       0.237   3.790   2.960  0.00  0.00    +0.039 C 
ENDROOT
BRANCH   7  11
ATOM     11  C   UNL     1       0.682   1.856  -2.567  0.00  0.00    -0.013 C 
ATOM     16  C   UNL     1      -0.093   3.007  -3.200  0.00  0.00    +0.007 C 
ATOM     17  C   UNL     1       0.093   0.512  -2.986  0.00  0.00    +0.007 C 
ENDBRANCH   7  11
BRANCH   8  14
ATOM     14  C   UNL     1       3.165   2.371  -0.646  0.00  0.00    +0.112 C 
BRANCH  14   4
ATOM      1  O   UNL     1       3.773  -0.356  -1.337  0.00  0.00    -0.276 OA
ATOM      4  N   UNL     1       3.300   1.269   0.254  0.00  0.00    -0.315 N 
ATOM     20  C   UNL     1       3.598  -0.026  -0.166  0.00  0.00    +0.214 C 
ATOM     34  H   UNL     1       3.231   1.448   1.252  0.00  0.00    +0.149 HD
BRANCH  20  22
ATOM     22  C   UNL     1       3.696  -1.029   0.972  0.00  0.00    +0.102 C 
BRANCH  22  21
ATOM     21  C   UNL     1       3.948  -2.493   0.530  0.00  0.00    -0.017 C 
ATOM     26  C   UNL     1       5.274  -2.598  -0.253  0.00  0.00    +0.012 C 
ATOM     27  C   UNL     1       4.093  -3.355   1.801  0.00  0.00    +0.012 C 
BRANCH  21  25
ATOM     25  C   UNL     1       2.819  -3.052  -0.368  0.00  0.00    +0.127 C 
BRANCH  25  30
ATOM      3  O   UNL     1       0.939  -3.962   0.858  0.00  0.00    -0.251 OA
ATOM     30  C   UNL     1       1.440  -3.022   0.254  0.00  0.00    +0.305 C 
BRANCH  30   2
ATOM      2  O   UNL     1       0.802  -1.840   0.067  0.00  0.00    -0.481 OA
ATOM     36  H   UNL     1      -0.093  -1.840   0.468  0.00  0.00    +0.295 HD
ENDBRANCH  30   2
ENDBRANCH  25  30
ENDBRANCH  21  25
ENDBRANCH  22  21
ENDBRANCH  20  22
ENDBRANCH  14   4
ENDBRANCH   8  14
BRANCH  10  15
ATOM     15  C   UNL     1      -0.925   1.119   1.607  0.00  0.00    +0.082 C 
BRANCH  15  19
ATOM      5  N   UNL     1      -3.386   0.691   1.467  0.00  0.00    -0.342 N 
ATOM      6  N   UNL     1      -2.104  -0.586   0.176  0.00  0.00    -0.232 NA
ATOM     19  C   UNL     1      -2.116   0.386   1.061  0.00  0.00    +0.109 A 
ATOM     23  C   UNL     1      -4.250  -0.139   0.800  0.00  0.00    +0.066 A 
ATOM     24  C   UNL     1      -3.425  -0.926   0.001  0.00  0.00    +0.092 A 
ATOM     28  C   UNL     1      -4.004  -1.902  -0.828  0.00  0.00    -0.023 A 
ATOM     29  C   UNL     1      -5.639  -0.266   0.826  0.00  0.00    +0.028 A 
ATOM     31  C   UNL     1      -5.397  -2.047  -0.818  0.00  0.00    +0.005 A 
ATOM     32  C   UNL     1      -6.198  -1.242  -0.005  0.00  0.00    +0.002 A 
ATOM     33  C   UNL     1      -3.191  -2.787  -1.716  0.00  0.00    +0.046 C 
ATOM     35  H   UNL     1      -3.644   1.401   2.139  0.00  0.00    +0.167 HD
ENDBRANCH  15  19
ENDBRANCH  10  15
TORSDOF 10
