REMARK  Name = 28963143
REMARK  13 active torsions:
REMARK  status: ('A' for Active; 'I' for Inactive)
REMARK    1  A    between atoms: O_1  and  C_10
REMARK    2  A    between atoms: N_4  and  C_14
REMARK    3  A    between atoms: N_5  and  C_23
REMARK    4  A    between atoms: N_5  and  C_24
REMARK    5  A    between atoms: N_6  and  C_25
REMARK    6  A    between atoms: C_7  and  C_17
REMARK    7  A    between atoms: C_9  and  C_19
REMARK    8  A    between atoms: C_12  and  C_18
REMARK    9  A    between atoms: C_18  and  C_20
REMARK   10  A    between atoms: C_18  and  C_21
REMARK   11  A    between atoms: C_23  and  C_26
REMARK   12  A    between atoms: C_24  and  C_27
REMARK   13  A    between atoms: C_25  and  C_28
REMARK                            x       y       z     vdW  Elec       q    Type
REMARK                         _______ _______ _______ _____ _____    ______ ____
ROOT
ATOM      7  C   UNL     1       0.408   1.755   0.028  0.00  0.00    -0.027 C 
ATOM      8  C   UNL     1       0.485   0.198  -0.111  0.00  0.00    +0.028 C 
ATOM      9  C   UNL     1       1.877  -0.243  -0.691  0.00  0.00    +0.012 C 
ATOM     10  C   UNL     1      -0.759  -0.363  -0.859  0.00  0.00    +0.122 C 
ATOM     11  C   UNL     1      -0.927   2.147   0.705  0.00  0.00    +0.007 C 
ATOM     12  C   UNL     1      -2.092   0.117  -0.239  0.00  0.00    +0.029 C 
ATOM     13  C   UNL     1       1.558   2.237   0.941  0.00  0.00    +0.009 C 
ATOM     14  C   UNL     1       3.029   0.311   0.194  0.00  0.00    +0.078 C 
ATOM     15  C   UNL     1      -2.148   1.632  -0.046  0.00  0.00    +0.007 C 
ATOM     16  C   UNL     1       2.933   1.816   0.443  0.00  0.00    +0.023 C 
ATOM     17  C   UNL     1       0.504   2.479  -1.339  0.00  0.00    +0.011 C 
ATOM     19  C   UNL     1       2.032  -1.767  -0.828  0.00  0.00    +0.010 C 
ENDROOT
BRANCH  14   4
ATOM      3  O   UNL     1       5.483  -0.186   1.628  0.00  0.00    -0.253 OA
ATOM      4  N   UNL     1       4.328   0.021  -0.375  0.00  0.00    -0.296 N 
ATOM      6  N   UNL     1       6.573  -0.459  -0.402  0.00  0.00    -0.300 N 
ATOM     22  C   UNL     1       5.462  -0.205   0.398  0.00  0.00    +0.300 C 
ATOM     29  H   UNL     1       4.434   0.063  -1.384  0.00  0.00    +0.151 HD
ATOM     31  H   UNL     1       6.457  -0.468  -1.411  0.00  0.00    +0.150 HD
BRANCH   6  25
ATOM     25  C   UNL     1       7.883  -0.729   0.141  0.00  0.00    +0.102 C 
ATOM     28  C   UNL     1       8.007  -2.166   0.604  0.00  0.00    +0.024 C 
ENDBRANCH   6  25
ENDBRANCH  14   4
BRANCH  10   1
ATOM      1  O   UNL     1      -0.761  -1.789  -0.777  0.00  0.00    -0.391 OA
ATOM     30  H   UNL     1      -0.798  -2.038   0.163  0.00  0.00    +0.210 HD
ENDBRANCH  10   1
BRANCH  12  18
ATOM     18  C   UNL     1      -3.301  -0.339  -1.066  0.00  0.00    +0.078 C 
ATOM     20  C   UNL     1      -3.199   0.239  -2.478  0.00  0.00    +0.017 C 
BRANCH  18  21
ATOM      2  O   UNL     1      -5.070   1.218  -0.643  0.00  0.00    -0.275 OA
ATOM      5  N   UNL     1      -5.180  -0.767   0.541  0.00  0.00    -0.302 N 
ATOM     21  C   UNL     1      -4.595   0.108  -0.381  0.00  0.00    +0.219 C 
BRANCH   5  23
ATOM     23  C   UNL     1      -6.403  -0.362   1.227  0.00  0.00    +0.104 C 
ATOM     26  C   UNL     1      -6.098   0.364   2.521  0.00  0.00    +0.024 C 
ENDBRANCH   5  23
BRANCH   5  24
ATOM     24  C   UNL     1      -4.705  -2.106   0.880  0.00  0.00    +0.104 C 
ATOM     27  C   UNL     1      -5.324  -3.159  -0.015  0.00  0.00    +0.024 C 
ENDBRANCH   5  24
ENDBRANCH  18  21
ENDBRANCH  12  18
TORSDOF 7
