REMARK  Name = 75536992
REMARK  4 active torsions:
REMARK  status: ('A' for Active; 'I' for Inactive)
REMARK    1  A    between atoms: N_8  and  C_16
REMARK    2  A    between atoms: C_16  and  C_18
REMARK    3  A    between atoms: C_17  and  C_19
REMARK    4  A    between atoms: C_28  and  C_30
REMARK                            x       y       z     vdW  Elec       q    Type
REMARK                         _______ _______ _______ _____ _____    ______ ____
ROOT
ATOM      5  O   UNL     1       3.661  -2.683   0.951  0.00  0.00    -0.252 OA
ATOM      6  O   UNL     1      -2.879  -3.152  -1.462  0.00  0.00    -0.270 OA
ATOM      7  N   UNL     1       1.414  -2.123   0.557  0.00  0.00    -0.278 N 
ATOM      8  N   UNL     1       2.764  -0.557   1.438  0.00  0.00    -0.279 N 
ATOM      9  N   UNL     1      -0.979  -1.939  -0.846  0.00  0.00    -0.294 N 
ATOM     10  C   UNL     1       0.536  -1.000   0.839  0.00  0.00    +0.112 C 
ATOM     11  C   UNL     1       1.496   0.121   1.232  0.00  0.00    +0.133 C 
ATOM     12  C   UNL     1      -0.339  -0.696  -0.373  0.00  0.00    +0.132 C 
ATOM     13  C   UNL     1       0.865  -3.346  -0.004  0.00  0.00    +0.128 C 
ATOM     14  C   UNL     1      -0.041  -3.018  -1.189  0.00  0.00    +0.127 C 
ATOM     15  C   UNL     1       2.729  -1.890   0.981  0.00  0.00    +0.306 C 
ATOM     17  C   UNL     1      -2.349  -2.131  -1.026  0.00  0.00    +0.247 C 
ENDROOT
BRANCH  17  19
ATOM     19  C   UNL     1      -3.255  -1.034  -0.659  0.00  0.00    +0.037 A 
ATOM     22  C   UNL     1      -3.600  -0.068  -1.604  0.00  0.00    +0.013 A 
ATOM     23  C   UNL     1      -3.770  -0.959   0.635  0.00  0.00    +0.013 A 
ATOM     26  C   UNL     1      -4.460   0.974  -1.254  0.00  0.00    +0.013 A 
ATOM     27  C   UNL     1      -4.629   0.082   0.985  0.00  0.00    +0.013 A 
ATOM     28  C   UNL     1      -4.974   1.049   0.040  0.00  0.00    +0.055 A 
BRANCH  28  30
ATOM      2  F   UNL     1      -7.125   1.741   0.826  0.00  0.00    -0.166 F 
ATOM      3  F   UNL     1      -5.423   2.941   1.432  0.00  0.00    -0.166 F 
ATOM      4  F   UNL     1      -6.128   3.019  -0.623  0.00  0.00    -0.166 F 
ATOM     30  C   UNL     1      -5.893   2.162   0.413  0.00  0.00    +0.417 C 
ENDBRANCH  28  30
ENDBRANCH  17  19
BRANCH   8  16
ATOM     16  C   UNL     1       3.932   0.137   1.930  0.00  0.00    +0.144 C 
BRANCH  16  18
ATOM      1  F   UNL     1       6.604   2.930  -2.164  0.00  0.00    -0.205 F 
ATOM     18  C   UNL     1       4.645   0.882   0.839  0.00  0.00    -0.030 A 
ATOM     20  C   UNL     1       5.651   0.252   0.106  0.00  0.00    +0.008 A 
ATOM     21  C   UNL     1       4.301   2.204   0.556  0.00  0.00    +0.008 A 
ATOM     24  C   UNL     1       6.313   0.943  -0.908  0.00  0.00    +0.038 A 
ATOM     25  C   UNL     1       4.963   2.896  -0.458  0.00  0.00    +0.038 A 
ATOM     29  C   UNL     1       5.969   2.265  -1.190  0.00  0.00    +0.123 A 
ENDBRANCH  16  18
ENDBRANCH   8  16
TORSDOF 4
