REMARK  Name = 40777131
REMARK  8 active torsions:
REMARK  status: ('A' for Active; 'I' for Inactive)
REMARK    1  A    between atoms: N_4  and  C_15
REMARK    2  A    between atoms: N_7  and  C_23
REMARK    3  A    between atoms: C_9  and  C_16
REMARK    4  A    between atoms: C_10  and  C_15
REMARK    5  A    between atoms: C_18  and  C_21
REMARK    6  A    between atoms: C_20  and  C_22
REMARK    7  A    between atoms: C_23  and  C_26
REMARK    8  A    between atoms: C_23  and  C_27
REMARK                            x       y       z     vdW  Elec       q    Type
REMARK                         _______ _______ _______ _____ _____    ______ ____
ROOT
ATOM      3  N   UNL     1      -1.456  -2.108   1.578  0.00  0.00    -0.297 NA
ATOM      8  C   UNL     1      -0.804  -2.477  -0.916  0.00  0.00    +0.002 C 
ATOM      9  C   UNL     1       0.449  -2.105  -0.075  0.00  0.00    +0.055 C 
ATOM     10  C   UNL     1      -2.363  -1.328   0.695  0.00  0.00    +0.074 C 
ATOM     11  C   UNL     1      -1.867  -1.368  -0.766  0.00  0.00    +0.024 C 
ATOM     12  C   UNL     1      -1.395  -3.759  -0.290  0.00  0.00    +0.019 C 
ATOM     13  C   UNL     1      -0.047  -1.705   1.344  0.00  0.00    +0.094 C 
ATOM     14  C   UNL     1      -1.594  -3.540   1.220  0.00  0.00    +0.085 C 
ENDROOT
BRANCH   9  16
ATOM      5  N   UNL     1       1.120  -0.574  -1.861  0.00  0.00    -0.237 NA
ATOM      6  N   UNL     1       3.142   0.733  -1.740  0.00  0.00    -0.232 NA
ATOM     16  C   UNL     1       1.426  -1.090  -0.652  0.00  0.00    +0.050 A 
ATOM     17  C   UNL     1       2.555  -0.749   0.064  0.00  0.00    +0.052 A 
ATOM     18  C   UNL     1       3.385   0.177  -0.535  0.00  0.00    +0.076 A 
ATOM     20  C   UNL     1       2.009   0.318  -2.338  0.00  0.00    +0.127 A 
ATOM     22  C   UNL     1       1.707   0.910  -3.674  0.00  0.00    +0.088 C 
BRANCH  18  21
ATOM      1 BR   UNL     1       3.067   2.734   1.360  0.00  0.00    -0.050 Br
ATOM     21  C   UNL     1       4.599   0.616   0.111  0.00  0.00    +0.014 A 
ATOM     24  C   UNL     1       4.625   1.717   0.967  0.00  0.00    +0.027 A 
ATOM     25  C   UNL     1       5.770  -0.096  -0.145  0.00  0.00    +0.011 A 
ATOM     28  C   UNL     1       5.822   2.105   1.569  0.00  0.00    +0.016 A 
ATOM     29  C   UNL     1       6.968   0.292   0.456  0.00  0.00    +0.001 A 
ATOM     30  C   UNL     1       6.994   1.392   1.313  0.00  0.00    +0.001 A 
ENDBRANCH  18  21
ENDBRANCH   9  16
BRANCH  10  15
ATOM     15  C   UNL     1      -2.566   0.106   1.189  0.00  0.00    +0.124 C 
BRANCH  15   4
ATOM      2  O   UNL     1      -5.418   0.218   1.613  0.00  0.00    -0.253 OA
ATOM      4  N   UNL     1      -3.531   0.791   0.385  0.00  0.00    -0.298 N 
ATOM      7  N   UNL     1      -5.613   1.540  -0.284  0.00  0.00    -0.297 N 
ATOM     19  C   UNL     1      -4.904   0.798   0.657  0.00  0.00    +0.300 C 
ATOM     31  H   UNL     1      -3.203   1.296  -0.433  0.00  0.00    +0.150 HD
ATOM     32  H   UNL     1      -5.090   2.044  -0.994  0.00  0.00    +0.150 HD
BRANCH   7  23
ATOM     23  C   UNL     1      -7.046   1.706  -0.231  0.00  0.00    +0.068 C 
ATOM     26  C   UNL     1      -7.617   1.832  -1.638  0.00  0.00    +0.027 C 
ATOM     27  C   UNL     1      -7.414   2.913   0.624  0.00  0.00    +0.027 C 
ENDBRANCH   7  23
ENDBRANCH  15   4
ENDBRANCH  10  15
TORSDOF 5
