REMARK  Name = 26762363
REMARK  10 active torsions:
REMARK  status: ('A' for Active; 'I' for Inactive)
REMARK    1  A    between atoms: N_6  and  C_12
REMARK    2  A    between atoms: N_7  and  C_24
REMARK    3  A    between atoms: N_8  and  C_27
REMARK    4  A    between atoms: N_8  and  C_31
REMARK    5  A    between atoms: N_8  and  C_32
REMARK    6  A    between atoms: C_11  and  C_17
REMARK    7  A    between atoms: C_17  and  C_18
REMARK    8  A    between atoms: C_18  and  C_20
REMARK    9  A    between atoms: C_19  and  C_21
REMARK   10  A    between atoms: C_24  and  C_28
REMARK                            x       y       z     vdW  Elec       q    Type
REMARK                         _______ _______ _______ _____ _____    ______ ____
ROOT
ATOM      1  O   UNL     1      -0.789  -1.546  -4.012  0.00  0.00    -0.274 OA
ATOM      4  N   UNL     1      -0.910  -0.967  -0.525  0.00  0.00    -0.285 NA
ATOM      5  N   UNL     1      -1.973  -2.660  -2.391  0.00  0.00    -0.313 N 
ATOM     10  C   UNL     1      -1.065  -0.453  -1.889  0.00  0.00    +0.145 C 
ATOM     11  C   UNL     1      -2.138  -1.640  -0.099  0.00  0.00    +0.075 C 
ATOM     12  C   UNL     1       0.511   0.886  -0.654  0.00  0.00    +0.089 C 
ATOM     13  C   UNL     1       0.188   0.389  -2.068  0.00  0.00    +0.052 C 
ATOM     14  C   UNL     1      -0.509   0.200   0.260  0.00  0.00    +0.107 C 
ATOM     15  C   UNL     1      -2.295  -2.881  -0.990  0.00  0.00    +0.123 C 
ATOM     16  C   UNL     1      -1.216  -1.602  -2.860  0.00  0.00    +0.230 C 
ATOM     35  H   UNL     1      -2.162  -3.420  -3.037  0.00  0.00    +0.149 HD
ENDROOT
BRANCH  12   6
ATOM      2  O   UNL     1       2.832   2.533  -1.034  0.00  0.00    -0.270 OA
ATOM      6  N   UNL     1       1.867   0.562  -0.285  0.00  0.00    -0.307 N 
ATOM     19  C   UNL     1       2.928   1.427  -0.510  0.00  0.00    +0.244 C 
ATOM     36  H   UNL     1       2.037  -0.380   0.051  0.00  0.00    +0.149 HD
BRANCH  19  21
ATOM     21  C   UNL     1       4.267   0.934  -0.096  0.00  0.00    +0.037 A 
ATOM     22  C   UNL     1       5.412   1.403  -0.740  0.00  0.00    +0.015 A 
ATOM     23  C   UNL     1       4.379   0.002   0.936  0.00  0.00    +0.015 A 
ATOM     25  C   UNL     1       6.670   0.940  -0.352  0.00  0.00    +0.024 A 
ATOM     26  C   UNL     1       5.636  -0.461   1.323  0.00  0.00    +0.024 A 
ATOM     27  C   UNL     1       6.782   0.007   0.679  0.00  0.00    +0.029 A 
BRANCH  27   8
ATOM      8  N   UNL     1       8.052  -0.461   1.072  0.00  0.00    -0.336 N 
ATOM     31  C   UNL     1       9.249   0.019   0.410  0.00  0.00    +0.129 C 
ATOM     32  C   UNL     1       8.179  -1.424   2.148  0.00  0.00    +0.129 C 
ENDBRANCH  27   8
ENDBRANCH  19  21
ENDBRANCH  12   6
BRANCH  11  17
ATOM     17  C   UNL     1      -2.110  -2.065   1.371  0.00  0.00    +0.029 C 
BRANCH  17  18
ATOM     18  C   UNL     1      -3.413  -2.744   1.771  0.00  0.00    +0.097 C 
BRANCH  18  20
ATOM      3  O   UNL     1      -5.551  -2.113   0.827  0.00  0.00    -0.276 OA
ATOM      7  N   UNL     1      -4.512  -0.679   2.328  0.00  0.00    -0.311 N 
ATOM     20  C   UNL     1      -4.614  -1.838   1.572  0.00  0.00    +0.213 C 
ATOM     37  H   UNL     1      -3.717  -0.541   2.944  0.00  0.00    +0.149 HD
BRANCH   7  24
ATOM     24  C   UNL     1      -5.530   0.345   2.311  0.00  0.00    +0.141 C 
BRANCH  24  28
ATOM      9  N   UNL     1      -5.827   2.286  -0.921  0.00  0.00    -0.263 NA
ATOM     28  C   UNL     1      -5.273   1.375   1.249  0.00  0.00    -0.012 A 
ATOM     29  C   UNL     1      -4.288   2.343   1.412  0.00  0.00    +0.008 A 
ATOM     30  C   UNL     1      -6.008   1.389   0.074  0.00  0.00    +0.115 A 
ATOM     33  C   UNL     1      -4.072   3.283   0.411  0.00  0.00    +0.020 A 
ATOM     34  C   UNL     1      -4.861   3.212  -0.726  0.00  0.00    +0.111 A 
ENDBRANCH  24  28
ENDBRANCH   7  24
ENDBRANCH  18  20
ENDBRANCH  17  18
ENDBRANCH  11  17
TORSDOF 8
