REMARK  Name = 26745086
REMARK  9 active torsions:
REMARK  status: ('A' for Active; 'I' for Inactive)
REMARK    1  A    between atoms: O_3  and  C_24
REMARK    2  A    between atoms: C_11  and  C_13
REMARK    3  A    between atoms: C_11  and  C_19
REMARK    4  A    between atoms: C_11  and  C_20
REMARK    5  A    between atoms: C_11  and  C_21
REMARK    6  A    between atoms: C_12  and  C_22
REMARK    7  A    between atoms: C_13  and  C_16
REMARK    8  A    between atoms: C_19  and  C_24
REMARK    9  A    between atoms: C_25  and  C_26
REMARK                            x       y       z     vdW  Elec       q    Type
REMARK                         _______ _______ _______ _____ _____    ______ ____
ROOT
ATOM      1  O   UNL     1      -2.435   1.294   1.175  0.00  0.00    -0.276 OA
ATOM      5  N   UNL     1      -1.148  -0.318   0.089  0.00  0.00    -0.284 N 
ATOM      6  N   UNL     1      -0.172  -3.532  -1.534  0.00  0.00    -0.347 N 
ATOM      7  N   UNL     1       0.408  -4.148   0.534  0.00  0.00    -0.240 NA
ATOM     12  C   UNL     1      -0.203  -0.464   1.250  0.00  0.00    +0.171 C 
ATOM     14  C   UNL     1      -0.079  -1.952   1.698  0.00  0.00    +0.089 C 
ATOM     15  C   UNL     1      -0.866  -1.112  -1.139  0.00  0.00    +0.163 C 
ATOM     16  C   UNL     1      -2.182   0.625   0.170  0.00  0.00    +0.217 C 
ATOM     17  C   UNL     1      -0.376  -2.445  -0.738  0.00  0.00    +0.056 A 
ATOM     18  C   UNL     1      -0.010  -2.848   0.523  0.00  0.00    +0.066 A 
ATOM     23  C   UNL     1       0.299  -4.533  -0.722  0.00  0.00    +0.197 A 
ATOM     31  H   UNL     1      -0.335  -3.594  -2.531  0.00  0.00    +0.167 HD
ENDROOT
BRANCH  12  22
ATOM      2  O   UNL     1       1.121   1.604   1.271  0.00  0.00    -0.336 OA
ATOM      8  N   UNL     1       2.232  -0.179   0.494  0.00  0.00    -0.190 NA
ATOM      9  N   UNL     1       2.404   2.058   0.941  0.00  0.00    -0.056 NA
ATOM     22  C   UNL     1       1.104   0.277   0.978  0.00  0.00    +0.249 A 
ATOM     25  C   UNL     1       2.999   0.950   0.490  0.00  0.00    +0.202 A 
BRANCH  25  26
ATOM     10  N   UNL     1       7.005   0.908  -0.865  0.00  0.00    -0.263 NA
ATOM     26  C   UNL     1       4.357   0.936   0.031  0.00  0.00    +0.025 A 
ATOM     27  C   UNL     1       4.927  -0.247  -0.427  0.00  0.00    +0.031 A 
ATOM     28  C   UNL     1       5.110   2.105   0.041  0.00  0.00    +0.031 A 
ATOM     29  C   UNL     1       6.243  -0.208  -0.860  0.00  0.00    +0.111 A 
ATOM     30  C   UNL     1       6.417   2.039  -0.414  0.00  0.00    +0.111 A 
ENDBRANCH  25  26
ENDBRANCH  12  22
BRANCH  16  13
ATOM     13  C   UNL     1      -3.024   0.809  -1.068  0.00  0.00    +0.103 C 
BRANCH  13  11
ATOM     11  C   UNL     1      -4.085   1.916  -0.911  0.00  0.00    -0.017 C 
ATOM     20  C   UNL     1      -4.872   2.003  -2.235  0.00  0.00    +0.012 C 
ATOM     21  C   UNL     1      -3.398   3.280  -0.686  0.00  0.00    +0.012 C 
BRANCH  11  19
ATOM     19  C   UNL     1      -5.051   1.664   0.272  0.00  0.00    +0.127 C 
BRANCH  19  24
ATOM      4  O   UNL     1      -6.163  -0.381  -0.389  0.00  0.00    -0.251 OA
ATOM     24  C   UNL     1      -5.491   0.226   0.434  0.00  0.00    +0.305 C 
BRANCH  24   3
ATOM      3  O   UNL     1      -5.070  -0.326   1.599  0.00  0.00    -0.481 OA
ATOM     32  H   UNL     1      -5.364  -1.257   1.690  0.00  0.00    +0.295 HD
ENDBRANCH  24   3
ENDBRANCH  19  24
ENDBRANCH  11  19
ENDBRANCH  13  11
ENDBRANCH  16  13
TORSDOF 7
