REMARK  Name = 7050310
REMARK  7 active torsions:
REMARK  status: ('A' for Active; 'I' for Inactive)
REMARK    1  A    between atoms: N_6  and  C_17
REMARK    2  A    between atoms: N_7  and  C_12
REMARK    3  A    between atoms: C_18  and  C_24
REMARK    4  A    between atoms: C_21  and  C_25
REMARK    5  A    between atoms: C_25  and  C_27
REMARK    6  A    between atoms: C_25  and  C_28
REMARK    7  A    between atoms: C_26  and  C_29
REMARK                            x       y       z     vdW  Elec       q    Type
REMARK                         _______ _______ _______ _____ _____    ______ ____
ROOT
ATOM      2  O   UNL     1      -1.298   1.761  -1.040  0.00  0.00    -0.273 OA
ATOM      3  O   UNL     1      -1.735  -2.152   1.421  0.00  0.00    -0.252 OA
ATOM      5  N   UNL     1       0.073  -0.926   0.638  0.00  0.00    -0.273 N 
ATOM      6  N   UNL     1      -1.977  -0.128   0.216  0.00  0.00    -0.193 N 
ATOM     10  C   UNL     1       0.335   0.261  -0.129  0.00  0.00    +0.166 C 
ATOM     11  C   UNL     1       1.111  -0.072  -1.399  0.00  0.00    +0.054 C 
ATOM     12  C   UNL     1       2.344  -0.945  -1.102  0.00  0.00    +0.077 C 
ATOM     13  C   UNL     1       1.972  -2.173  -0.253  0.00  0.00    +0.041 C 
ATOM     14  C   UNL     1       1.177  -1.797   1.000  0.00  0.00    +0.112 C 
ATOM     15  C   UNL     1      -1.080   0.739  -0.401  0.00  0.00    +0.248 C 
ATOM     16  C   UNL     1      -1.287  -1.169   0.844  0.00  0.00    +0.316 C 
ENDROOT
BRANCH   6  17
ATOM     17  C   UNL     1      -3.402   0.010   0.191  0.00  0.00    +0.045 A 
ATOM     19  C   UNL     1      -4.170  -0.457   1.261  0.00  0.00    +0.024 A 
ATOM     20  C   UNL     1      -4.031   0.611  -0.902  0.00  0.00    +0.024 A 
ATOM     21  C   UNL     1      -6.183   0.278   0.145  0.00  0.00    -0.045 A 
ATOM     22  C   UNL     1      -5.558  -0.323   1.238  0.00  0.00    +0.006 A 
ATOM     23  C   UNL     1      -5.419   0.745  -0.925  0.00  0.00    +0.006 A 
BRANCH  21  25
ATOM     25  C   UNL     1      -7.667   0.421   0.120  0.00  0.00    +0.013 C 
ATOM     27  C   UNL     1      -8.314  -0.354  -1.044  0.00  0.00    +0.012 C 
ATOM     28  C   UNL     1      -8.116   1.894   0.079  0.00  0.00    +0.012 C 
ENDBRANCH  21  25
ENDBRANCH   6  17
BRANCH  12   7
ATOM      4  O   UNL     1       5.116  -1.366  -1.401  0.00  0.00    -0.270 OA
ATOM      7  N   UNL     1       3.388  -0.175  -0.465  0.00  0.00    -0.308 N 
ATOM     18  C   UNL     1       4.739  -0.450  -0.667  0.00  0.00    +0.254 C 
ATOM     30  H   UNL     1       3.125   0.565   0.178  0.00  0.00    +0.149 HD
BRANCH  18  24
ATOM      1  S   UNL     1       5.095   1.700   0.988  0.00  0.00    +0.041 S 
ATOM      8  N   UNL     1       7.582   1.454   0.814  0.00  0.00    -0.146 NA
ATOM      9  N   UNL     1       6.645   2.198   1.379  0.00  0.00    -0.110 NA
ATOM     24  C   UNL     1       5.682   0.441   0.023  0.00  0.00    +0.117 A 
ATOM     26  C   UNL     1       7.031   0.448   0.037  0.00  0.00    +0.081 A 
ATOM     29  C   UNL     1       7.948  -0.473  -0.665  0.00  0.00    +0.069 C 
ENDBRANCH  18  24
ENDBRANCH  12   7
TORSDOF 4
