REMARK  Name = 11886048
REMARK  7 active torsions:
REMARK  status: ('A' for Active; 'I' for Inactive)
REMARK    1  A    between atoms: O_3  and  C_14
REMARK    2  A    between atoms: O_3  and  C_18
REMARK    3  A    between atoms: N_6  and  C_13
REMARK    4  A    between atoms: N_10  and  C_22
REMARK    5  A    between atoms: C_17  and  C_19
REMARK    6  A    between atoms: C_30  and  C_31
REMARK    7  A    between atoms: C_31  and  C_32
REMARK                            x       y       z     vdW  Elec       q    Type
REMARK                         _______ _______ _______ _____ _____    ______ ____
ROOT
ATOM      1  O   UNL     1      -0.490  -0.182  -1.236  0.00  0.00    -0.368 OA
ATOM      2  O   UNL     1      -2.356  -2.224   0.145  0.00  0.00    -0.368 OA
ATOM     11  C   UNL     1      -2.186  -0.798   0.310  0.00  0.00    +0.177 C 
ATOM     12  C   UNL     1      -0.707  -0.511   0.145  0.00  0.00    +0.192 C 
ATOM     13  C   UNL     1      -2.845  -0.072  -0.847  0.00  0.00    +0.168 C 
ATOM     14  C   UNL     1      -0.070  -1.830   0.512  0.00  0.00    +0.235 C 
ATOM     15  C   UNL     1      -1.752  -0.071  -1.910  0.00  0.00    +0.190 C 
ATOM     16  C   UNL     1      -1.066  -2.826  -0.033  0.00  0.00    +0.207 C 
ENDROOT
BRANCH  13   6
ATOM      6  N   UNL     1      -3.351   1.248  -0.465  0.00  0.00    -0.217 N 
ATOM      7  N   UNL     1      -2.559   2.324  -0.531  0.00  0.00    -0.043 NA
ATOM      8  N   UNL     1      -4.587   2.893   0.201  0.00  0.00    -0.108 NA
ATOM      9  N   UNL     1      -3.322   3.330  -0.121  0.00  0.00    -0.023 NA
ATOM     17  C   UNL     1      -4.582   1.599  -0.020  0.00  0.00    +0.182 A 
BRANCH  17  19
ATOM     19  C   UNL     1      -5.677   0.683   0.168  0.00  0.00    +0.021 A 
ATOM     20  C   UNL     1      -6.566   0.432  -0.879  0.00  0.00    +0.011 A 
ATOM     21  C   UNL     1      -5.854   0.045   1.397  0.00  0.00    +0.011 A 
ATOM     23  C   UNL     1      -7.628  -0.454  -0.697  0.00  0.00    +0.001 A 
ATOM     24  C   UNL     1      -6.916  -0.841   1.578  0.00  0.00    +0.001 A 
ATOM     25  C   UNL     1      -7.803  -1.090   0.531  0.00  0.00    +0.000 A 
ENDBRANCH  17  19
ENDBRANCH  13   6
BRANCH  14   3
ATOM      3  O   UNL     1       1.215  -2.008  -0.040  0.00  0.00    -0.442 OA
BRANCH   3  18
ATOM      4  O   UNL     1       1.982  -0.216   1.156  0.00  0.00    -0.226 OA
ATOM     10  N   UNL     1       3.384  -1.434  -0.269  0.00  0.00    -0.251 N 
ATOM     18  C   UNL     1       2.194  -1.122   0.360  0.00  0.00    +0.405 C 
ATOM     33  H   UNL     1       3.363  -2.230  -0.901  0.00  0.00    +0.158 HD
BRANCH  10  22
ATOM     22  C   UNL     1       4.632  -0.782  -0.142  0.00  0.00    +0.036 A 
ATOM     26  C   UNL     1       5.719  -1.250  -0.863  0.00  0.00    +0.024 A 
ATOM     27  C   UNL     1       4.744   0.313   0.700  0.00  0.00    +0.024 A 
ATOM     28  C   UNL     1       6.950  -0.607  -0.739  0.00  0.00    +0.013 A 
ATOM     29  C   UNL     1       5.976   0.956   0.824  0.00  0.00    +0.013 A 
ATOM     30  C   UNL     1       7.079   0.496   0.104  0.00  0.00    +0.017 A 
BRANCH  30  31
ATOM      5  O   UNL     1       8.507   2.157   0.979  0.00  0.00    -0.292 OA
ATOM     31  C   UNL     1       8.362   1.168   0.233  0.00  0.00    +0.160 C 
ATOM     32  C   UNL     1       9.572   0.671  -0.551  0.00  0.00    +0.091 C 
ENDBRANCH  30  31
ENDBRANCH  10  22
ENDBRANCH   3  18
ENDBRANCH  14   3
TORSDOF 6
