REMARK  Name = 11866302
REMARK  10 active torsions:
REMARK  status: ('A' for Active; 'I' for Inactive)
REMARK    1  A    between atoms: O_2  and  C_11
REMARK    2  A    between atoms: O_3  and  C_12
REMARK    3  A    between atoms: N_7  and  C_13
REMARK    4  A    between atoms: N_8  and  C_18
REMARK    5  A    between atoms: N_9  and  C_23
REMARK    6  A    between atoms: C_15  and  C_17
REMARK    7  A    between atoms: C_18  and  C_20
REMARK    8  A    between atoms: C_18  and  C_21
REMARK    9  A    between atoms: C_20  and  C_22
REMARK   10  A    between atoms: C_31  and  C_32
REMARK                            x       y       z     vdW  Elec       q    Type
REMARK                         _______ _______ _______ _____ _____    ______ ____
ROOT
ATOM     11  C   UNL     1      -0.711  -2.684  -0.782  0.00  0.00    +0.167 C 
ATOM     12  C   UNL     1       0.448  -3.648  -0.498  0.00  0.00    +0.149 C 
ATOM     13  C   UNL     1      -0.896  -1.671   0.363  0.00  0.00    +0.129 C 
ATOM     14  C   UNL     1       1.767  -2.904  -0.227  0.00  0.00    +0.074 C 
ATOM     15  C   UNL     1       1.588  -1.650   0.582  0.00  0.00    +0.015 C 
ATOM     16  C   UNL     1       0.401  -1.092   0.860  0.00  0.00    +0.006 C 
ENDROOT
BRANCH  13   7
ATOM      5  O   UNL     1      -3.746  -1.601   0.639  0.00  0.00    -0.252 OA
ATOM      7  N   UNL     1      -1.773  -0.591  -0.019  0.00  0.00    -0.290 N 
ATOM      9  N   UNL     1      -3.747   0.547  -0.308  0.00  0.00    -0.269 N 
ATOM     19  C   UNL     1      -3.162  -0.636   0.151  0.00  0.00    +0.304 C 
ATOM     33  H   UNL     1      -1.373   0.220  -0.481  0.00  0.00    +0.151 HD
ATOM     37  H   UNL     1      -3.117   1.251  -0.686  0.00  0.00    +0.156 HD
BRANCH   9  23
ATOM     23  C   UNL     1      -5.118   0.893  -0.312  0.00  0.00    +0.035 A 
ATOM     25  C   UNL     1      -5.524   2.129  -0.815  0.00  0.00    +0.023 A 
ATOM     26  C   UNL     1      -6.065  -0.002   0.186  0.00  0.00    +0.023 A 
ATOM     29  C   UNL     1      -6.876   2.471  -0.820  0.00  0.00    +0.005 A 
ATOM     30  C   UNL     1      -7.418   0.339   0.181  0.00  0.00    +0.005 A 
ATOM     31  C   UNL     1      -7.823   1.576  -0.322  0.00  0.00    -0.050 A 
ATOM     32  C   UNL     1      -9.269   1.941  -0.328  0.00  0.00    +0.044 C 
ENDBRANCH   9  23
ENDBRANCH  13   7
BRANCH  15  17
ATOM      4  O   UNL     1       3.541  -1.599   1.887  0.00  0.00    -0.271 OA
ATOM      8  N   UNL     1       2.938   0.303   0.681  0.00  0.00    -0.300 N 
ATOM     17  C   UNL     1       2.785  -1.000   1.122  0.00  0.00    +0.241 C 
ATOM     36  H   UNL     1       2.232   0.709   0.073  0.00  0.00    +0.150 HD
BRANCH   8  18
ATOM     18  C   UNL     1       4.042   1.147   1.079  0.00  0.00    +0.164 C 
BRANCH  18  21
ATOM      6  O   UNL     1       2.494   2.168   2.650  0.00  0.00    -0.274 OA
ATOM     10  N   UNL     1       4.697   1.949   3.263  0.00  0.00    -0.328 N 
ATOM     21  C   UNL     1       3.642   1.819   2.385  0.00  0.00    +0.231 C 
ATOM     38  H   UNL     1       4.563   2.367   4.178  0.00  0.00    +0.145 HD
ATOM     39  H   UNL     1       5.639   1.653   3.033  0.00  0.00    +0.145 HD
ENDBRANCH  18  21
BRANCH  18  20
ATOM     20  C   UNL     1       4.381   2.201   0.018  0.00  0.00    +0.074 C 
BRANCH  20  22
ATOM      1  S   UNL     1       6.722   2.324  -1.488  0.00  0.00    -0.102 S 
ATOM     22  C   UNL     1       5.201   1.630  -1.116  0.00  0.00    -0.008 A 
ATOM     24  C   UNL     1       4.896   0.575  -1.948  0.00  0.00    +0.011 A 
ATOM     27  C   UNL     1       5.925   0.333  -2.903  0.00  0.00    +0.008 A 
ATOM     28  C   UNL     1       6.976   1.212  -2.765  0.00  0.00    +0.045 A 
ENDBRANCH  20  22
ENDBRANCH  18  20
ENDBRANCH   8  18
ENDBRANCH  15  17
BRANCH  11   2
ATOM      2  O   UNL     1      -0.440  -1.987  -2.001  0.00  0.00    -0.387 OA
ATOM     34  H   UNL     1      -0.357  -2.652  -2.706  0.00  0.00    +0.210 HD
ENDBRANCH  11   2
BRANCH  12   3
ATOM      3  O   UNL     1       0.126  -4.492   0.606  0.00  0.00    -0.389 OA
ATOM     35  H   UNL     1       0.862  -5.115   0.725  0.00  0.00    +0.210 HD
ENDBRANCH  12   3
TORSDOF 9
