REMARK  Name = 51137081
REMARK  5 active torsions:
REMARK  status: ('A' for Active; 'I' for Inactive)
REMARK    1  A    between atoms: N_2  and  C_8
REMARK    2  A    between atoms: C_4  and  C_10
REMARK    3  A    between atoms: C_8  and  C_9
REMARK    4  A    between atoms: C_9  and  C_11
REMARK    5  A    between atoms: C_9  and  C_12
REMARK                            x       y       z     vdW  Elec       q    Type
REMARK                         _______ _______ _______ _____ _____    ______ ____
ROOT
ATOM      2  N   UNL     1      -2.851   0.587  -0.373  0.00  0.00    -0.301 NA
ATOM      4  C   UNL     1      -0.668   1.187   0.237  0.00  0.00    +0.060 C 
ATOM      5  C   UNL     1      -1.689   0.045   0.334  0.00  0.00    +0.094 C 
ATOM      6  C   UNL     1      -1.091   1.983  -1.010  0.00  0.00    +0.027 C 
ATOM      7  C   UNL     1      -2.300   1.239  -1.561  0.00  0.00    +0.085 C 
ENDROOT
BRANCH   4  10
ATOM      1  S   UNL     1       1.829   1.208   1.460  0.00  0.00    -0.072 S 
ATOM      3  N   UNL     1       1.262  -0.105  -0.686  0.00  0.00    -0.244 NA
ATOM     10  C   UNL     1       0.762   0.699   0.223  0.00  0.00    +0.084 A 
ATOM     13  C   UNL     1       3.092   0.282   0.739  0.00  0.00    +0.039 A 
ATOM     14  C   UNL     1       2.598  -0.353  -0.404  0.00  0.00    +0.078 A 
ATOM     15  C   UNL     1       4.424   0.129   1.155  0.00  0.00    +0.017 A 
ATOM     16  C   UNL     1       3.470  -1.170  -1.155  0.00  0.00    +0.029 A 
ATOM     17  C   UNL     1       5.266  -0.686   0.394  0.00  0.00    +0.001 A 
ATOM     18  C   UNL     1       4.797  -1.328  -0.747  0.00  0.00    +0.002 A 
ENDBRANCH   4  10
BRANCH   2   8
ATOM      8  C   UNL     1      -3.827  -0.440  -0.707  0.00  0.00    +0.087 C 
BRANCH   8   9
ATOM      9  C   UNL     1      -4.459  -1.077   0.542  0.00  0.00    -0.003 C 
ATOM     11  C   UNL     1      -5.173  -0.002   1.365  0.00  0.00    +0.008 C 
ATOM     12  C   UNL     1      -5.443  -2.198   0.195  0.00  0.00    +0.008 C 
ENDBRANCH   8   9
ENDBRANCH   2   8
TORSDOF 3
