REMARK  Name = 71693171
REMARK  12 active torsions:
REMARK  status: ('A' for Active; 'I' for Inactive)
REMARK    1  A    between atoms: O_2  and  C_31
REMARK    2  A    between atoms: O_2  and  C_34
REMARK    3  A    between atoms: N_4  and  C_16
REMARK    4  A    between atoms: C_9  and  C_13
REMARK    5  A    between atoms: C_10  and  C_16
REMARK    6  A    between atoms: C_12  and  C_17
REMARK    7  A    between atoms: C_13  and  C_18
REMARK    8  A    between atoms: C_13  and  C_19
REMARK    9  A    between atoms: C_14  and  C_20
REMARK   10  A    between atoms: C_17  and  C_21
REMARK   11  A    between atoms: C_22  and  C_27
REMARK   12  A    between atoms: C_28  and  C_31
REMARK                            x       y       z     vdW  Elec       q    Type
REMARK                         _______ _______ _______ _____ _____    ______ ____
ROOT
ATOM      9  C   UNL     1       1.702   1.954  -0.813  0.00  0.00    +0.000 C 
ATOM     10  C   UNL     1       2.906   2.644  -0.125  0.00  0.00    +0.032 C 
ATOM     11  C   UNL     1       0.393   2.320  -0.097  0.00  0.00    +0.012 C 
ATOM     12  C   UNL     1       0.406   1.911   1.388  0.00  0.00    +0.022 C 
ATOM     14  C   UNL     1       1.692   2.325   2.074  0.00  0.00    -0.073 C 
ATOM     15  C   UNL     1       2.795   2.663   1.381  0.00  0.00    -0.022 C 
ATOM     20  C   UNL     1       1.668   2.388   3.576  0.00  0.00    +0.039 C 
ENDROOT
BRANCH   9  13
ATOM     13  C   UNL     1       1.604   2.327  -2.296  0.00  0.00    -0.013 C 
ATOM     18  C   UNL     1       0.920   3.680  -2.460  0.00  0.00    +0.007 C 
ATOM     19  C   UNL     1       0.855   1.245  -3.068  0.00  0.00    +0.007 C 
ENDBRANCH   9  13
BRANCH  10  16
ATOM     16  C   UNL     1       4.228   1.984  -0.531  0.00  0.00    +0.112 C 
BRANCH  16   4
ATOM      1  O   UNL     1       4.507  -0.400  -2.107  0.00  0.00    -0.268 OA
ATOM      4  N   UNL     1       4.296   0.642  -0.044  0.00  0.00    -0.309 N 
ATOM     22  C   UNL     1       4.433  -0.464  -0.883  0.00  0.00    +0.264 C 
ATOM     35  H   UNL     1       4.283   0.489   0.960  0.00  0.00    +0.149 HD
BRANCH  22  27
ATOM      7  N   UNL     1       4.356  -1.804   1.121  0.00  0.00    -0.247 NA
ATOM      8  N   UNL     1       4.623  -4.168  -0.365  0.00  0.00    -0.259 NA
ATOM     27  C   UNL     1       4.462  -1.794  -0.223  0.00  0.00    +0.143 A 
ATOM     30  C   UNL     1       4.593  -2.955  -0.952  0.00  0.00    +0.143 A 
ATOM     32  C   UNL     1       4.386  -3.016   1.708  0.00  0.00    +0.131 A 
ATOM     33  C   UNL     1       4.517  -4.177   0.979  0.00  0.00    +0.130 A 
ENDBRANCH  22  27
ENDBRANCH  16   4
ENDBRANCH  10  16
BRANCH  12  17
ATOM     17  C   UNL     1       0.159   0.407   1.548  0.00  0.00    +0.082 C 
BRANCH  17  21
ATOM      5  N   UNL     1      -2.337   0.249   1.491  0.00  0.00    -0.342 N 
ATOM      6  N   UNL     1      -1.268  -0.638  -0.245  0.00  0.00    -0.232 NA
ATOM     21  C   UNL     1      -1.131  -0.009   0.901  0.00  0.00    +0.109 A 
ATOM     23  C   UNL     1      -3.318  -0.246   0.670  0.00  0.00    +0.067 A 
ATOM     24  C   UNL     1      -2.626  -0.794  -0.406  0.00  0.00    +0.089 A 
ATOM     25  C   UNL     1      -4.709  -0.260   0.774  0.00  0.00    +0.042 A 
ATOM     26  C   UNL     1      -3.348  -1.397  -1.449  0.00  0.00    +0.030 A 
ATOM     28  C   UNL     1      -5.412  -0.864  -0.273  0.00  0.00    +0.061 A 
ATOM     29  C   UNL     1      -4.746  -1.423  -1.366  0.00  0.00    +0.017 A 
ATOM     36  H   UNL     1      -2.482   0.721   2.374  0.00  0.00    +0.167 HD
BRANCH  28  31
ATOM      3  O   UNL     1      -7.556  -1.803  -0.730  0.00  0.00    -0.245 OA
ATOM     31  C   UNL     1      -6.866  -0.910  -0.221  0.00  0.00    +0.339 C 
BRANCH  31   2
ATOM      2  O   UNL     1      -7.378   0.158   0.462  0.00  0.00    -0.464 OA
ATOM     34  C   UNL     1      -8.803   0.226   0.582  0.00  0.00    +0.280 C 
ENDBRANCH  31   2
ENDBRANCH  28  31
ENDBRANCH  17  21
ENDBRANCH  12  17
TORSDOF 8
