REMARK  Name = 75536881
REMARK  3 active torsions:
REMARK  status: ('A' for Active; 'I' for Inactive)
REMARK    1  A    between atoms: O_2  and  C_6
REMARK    2  A    between atoms: O_2  and  C_13
REMARK    3  A    between atoms: C_11  and  C_12
REMARK                            x       y       z     vdW  Elec       q    Type
REMARK                         _______ _______ _______ _____ _____    ______ ____
ROOT
ATOM      1  O   UNL     1       3.632  -0.487   0.256  0.00  0.00    -0.376 OA
ATOM      3  O   UNL     1      -0.781  -2.602  -0.837  0.00  0.00    -0.270 OA
ATOM      4  N   UNL     1       0.665  -1.155   0.309  0.00  0.00    -0.293 N 
ATOM      6  C   UNL     1       1.685   1.080   0.059  0.00  0.00    +0.161 C 
ATOM      7  C   UNL     1       0.907   0.136   0.974  0.00  0.00    +0.142 C 
ATOM      8  C   UNL     1       1.811  -2.062   0.209  0.00  0.00    +0.136 C 
ATOM      9  C   UNL     1       3.200   0.857   0.083  0.00  0.00    +0.193 C 
ATOM     10  C   UNL     1       2.974  -1.447  -0.563  0.00  0.00    +0.179 C 
ATOM     11  C   UNL     1      -0.560  -1.543  -0.250  0.00  0.00    +0.248 C 
ENDROOT
BRANCH  11  12
ATOM      5  N   UNL     1      -3.620   0.150   1.102  0.00  0.00    -0.263 NA
ATOM     12  C   UNL     1      -1.695  -0.619  -0.142  0.00  0.00    +0.055 A 
ATOM     14  C   UNL     1      -1.937   0.337  -1.122  0.00  0.00    +0.016 A 
ATOM     15  C   UNL     1      -2.559  -0.671   0.941  0.00  0.00    +0.123 A 
ATOM     16  C   UNL     1      -3.020   1.200  -0.992  0.00  0.00    +0.020 A 
ATOM     17  C   UNL     1      -3.824   1.067   0.129  0.00  0.00    +0.111 A 
ENDBRANCH  11  12
BRANCH   6   2
ATOM      2  O   UNL     1       1.410   2.426   0.446  0.00  0.00    -0.376 OA
ATOM     13  C   UNL     1       1.711   3.334  -0.602  0.00  0.00    +0.194 C 
ENDBRANCH   6   2
TORSDOF 2
