REMARK  Name = 38027174
REMARK  12 active torsions:
REMARK  status: ('A' for Active; 'I' for Inactive)
REMARK    1  A    between atoms: N_3  and  C_13
REMARK    2  A    between atoms: N_4  and  C_20
REMARK    3  A    between atoms: N_4  and  C_21
REMARK    4  A    between atoms: C_6  and  C_10
REMARK    5  A    between atoms: C_7  and  C_13
REMARK    6  A    between atoms: C_9  and  C_14
REMARK    7  A    between atoms: C_10  and  C_15
REMARK    8  A    between atoms: C_10  and  C_16
REMARK    9  A    between atoms: C_11  and  C_17
REMARK   10  A    between atoms: C_14  and  C_18
REMARK   11  A    between atoms: C_19  and  C_22
REMARK   12  A    between atoms: C_20  and  C_23
REMARK                            x       y       z     vdW  Elec       q    Type
REMARK                         _______ _______ _______ _____ _____    ______ ____
ROOT
ATOM      6  C   UNL     1       1.283   2.044  -0.944  0.00  0.00    +0.000 C 
ATOM      7  C   UNL     1       2.690   2.401  -0.402  0.00  0.00    +0.032 C 
ATOM      8  C   UNL     1       0.198   2.784  -0.147  0.00  0.00    +0.012 C 
ATOM      9  C   UNL     1       0.244   2.444   1.355  0.00  0.00    +0.023 C 
ATOM     11  C   UNL     1       1.654   2.514   1.905  0.00  0.00    -0.073 C 
ATOM     12  C   UNL     1       2.735   2.507   1.104  0.00  0.00    -0.022 C 
ATOM     17  C   UNL     1       1.794   2.639   3.397  0.00  0.00    +0.039 C 
ENDROOT
BRANCH   6  10
ATOM     10  C   UNL     1       1.147   2.372  -2.434  0.00  0.00    -0.013 C 
ATOM     15  C   UNL     1       0.844   3.854  -2.627  0.00  0.00    +0.007 C 
ATOM     16  C   UNL     1       0.061   1.510  -3.071  0.00  0.00    +0.007 C 
ENDBRANCH   6  10
BRANCH   7  13
ATOM     13  C   UNL     1       3.738   1.386  -0.874  0.00  0.00    +0.112 C 
BRANCH  13   3
ATOM      2  O   UNL     1       3.206  -1.041  -2.313  0.00  0.00    -0.270 OA
ATOM      3  N   UNL     1       3.486   0.097  -0.310  0.00  0.00    -0.311 N 
ATOM     19  C   UNL     1       3.236  -1.034  -1.085  0.00  0.00    +0.246 C 
ATOM     33  H   UNL     1       3.579   0.004   0.697  0.00  0.00    +0.149 HD
BRANCH  19  22
ATOM      5  N   UNL     1       3.026  -4.711  -0.294  0.00  0.00    -0.263 NA
ATOM     22  C   UNL     1       2.966  -2.295  -0.346  0.00  0.00    +0.055 A 
ATOM     24  C   UNL     1       2.425  -2.273   0.935  0.00  0.00    +0.016 A 
ATOM     25  C   UNL     1       3.246  -3.529  -0.911  0.00  0.00    +0.123 A 
ATOM     28  C   UNL     1       2.183  -3.469   1.601  0.00  0.00    +0.020 A 
ATOM     31  C   UNL     1       2.498  -4.651   0.949  0.00  0.00    +0.111 A 
ENDBRANCH  19  22
ENDBRANCH  13   3
ENDBRANCH   7  13
BRANCH   9  14
ATOM     14  C   UNL     1      -0.385   1.074   1.631  0.00  0.00    +0.103 C 
BRANCH  14  18
ATOM      1  O   UNL     1      -2.493   2.152   1.257  0.00  0.00    -0.276 OA
ATOM      4  N   UNL     1      -2.550  -0.108   1.772  0.00  0.00    -0.300 N 
ATOM     18  C   UNL     1      -1.899   1.107   1.533  0.00  0.00    +0.216 C 
ATOM     21  C   UNL     1      -1.826  -1.332   2.097  0.00  0.00    +0.132 C 
BRANCH   4  20
ATOM     20  C   UNL     1      -4.003  -0.243   1.716  0.00  0.00    +0.142 C 
BRANCH  20  23
ATOM     23  C   UNL     1      -4.477  -0.653   0.352  0.00  0.00    -0.030 A 
ATOM     26  C   UNL     1      -4.793   0.319  -0.598  0.00  0.00    +0.005 A 
ATOM     27  C   UNL     1      -4.602  -2.005   0.034  0.00  0.00    +0.005 A 
ATOM     29  C   UNL     1      -5.233  -0.061  -1.866  0.00  0.00    +0.000 A 
ATOM     30  C   UNL     1      -5.043  -2.385  -1.234  0.00  0.00    +0.000 A 
ATOM     32  C   UNL     1      -5.358  -1.414  -2.184  0.00  0.00    +0.000 A 
ENDBRANCH  20  23
ENDBRANCH   4  20
ENDBRANCH  14  18
ENDBRANCH   9  14
TORSDOF 8
