REMARK  Name = 26744413
REMARK  7 active torsions:
REMARK  status: ('A' for Active; 'I' for Inactive)
REMARK    1  A    between atoms: O_2  and  C_11
REMARK    2  A    between atoms: N_5  and  C_13
REMARK    3  A    between atoms: N_8  and  C_21
REMARK    4  A    between atoms: C_9  and  C_14
REMARK    5  A    between atoms: C_13  and  C_15
REMARK    6  A    between atoms: C_18  and  C_22
REMARK    7  A    between atoms: C_27  and  C_29
REMARK                            x       y       z     vdW  Elec       q    Type
REMARK                         _______ _______ _______ _____ _____    ______ ____
ROOT
ATOM      5  N   UNL     1       3.325   0.621   0.537  0.00  0.00    -0.285 NA
ATOM      9  C   UNL     1       3.306  -0.391  -0.539  0.00  0.00    +0.149 C 
ATOM     10  C   UNL     1       4.314  -1.464  -0.088  0.00  0.00    +0.061 C 
ATOM     11  C   UNL     1       4.881  -0.945   1.228  0.00  0.00    +0.130 C 
ATOM     12  C   UNL     1       4.651   0.552   1.147  0.00  0.00    +0.116 C 
ENDROOT
BRANCH   9  14
ATOM      3  O   UNL     1       1.668  -1.411  -2.040  0.00  0.00    -0.336 OA
ATOM      6  N   UNL     1       0.914  -1.070   0.041  0.00  0.00    -0.190 NA
ATOM      7  N   UNL     1       0.347  -1.875  -2.024  0.00  0.00    -0.056 NA
ATOM     14  C   UNL     1       1.922  -0.954  -0.785  0.00  0.00    +0.245 A 
ATOM     18  C   UNL     1      -0.030  -1.640  -0.763  0.00  0.00    +0.202 A 
BRANCH  18  22
ATOM      1  F   UNL     1      -5.110  -2.895   1.125  0.00  0.00    -0.205 F 
ATOM     22  C   UNL     1      -1.339  -1.963  -0.277  0.00  0.00    +0.023 A 
ATOM     23  C   UNL     1      -1.676  -1.696   1.051  0.00  0.00    +0.014 A 
ATOM     24  C   UNL     1      -2.277  -2.545  -1.130  0.00  0.00    +0.014 A 
ATOM     25  C   UNL     1      -2.950  -2.011   1.524  0.00  0.00    +0.039 A 
ATOM     26  C   UNL     1      -3.551  -2.859  -0.657  0.00  0.00    +0.039 A 
ATOM     28  C   UNL     1      -3.887  -2.593   0.670  0.00  0.00    +0.123 A 
ENDBRANCH  18  22
ENDBRANCH   9  14
BRANCH  11   2
ATOM      2  O   UNL     1       6.255  -1.260   1.341  0.00  0.00    -0.390 OA
ATOM     30  H   UNL     1       6.336  -2.229   1.311  0.00  0.00    +0.210 HD
ENDBRANCH  11   2
BRANCH   5  13
ATOM     13  C   UNL     1       3.005   1.963   0.070  0.00  0.00    +0.120 C 
BRANCH  13  15
ATOM     15  C   UNL     1       1.522   2.158  -0.104  0.00  0.00    -0.033 A 
ATOM     16  C   UNL     1       1.006   2.516  -1.350  0.00  0.00    +0.007 A 
ATOM     17  C   UNL     1       0.663   1.981   0.981  0.00  0.00    +0.007 A 
ATOM     19  C   UNL     1      -0.367   2.697  -1.510  0.00  0.00    +0.023 A 
ATOM     20  C   UNL     1      -0.710   2.163   0.821  0.00  0.00    +0.023 A 
ATOM     21  C   UNL     1      -1.226   2.521  -0.425  0.00  0.00    +0.033 A 
BRANCH  21   8
ATOM      4  O   UNL     1      -3.475   2.272   1.561  0.00  0.00    -0.276 OA
ATOM      8  N   UNL     1      -2.599   2.703  -0.586  0.00  0.00    -0.286 N 
ATOM     27  C   UNL     1      -3.608   2.571   0.379  0.00  0.00    +0.214 C 
ATOM     29  C   UNL     1      -4.973   2.854  -0.198  0.00  0.00    +0.109 C 
ATOM     31  H   UNL     1      -2.897   2.962  -1.524  0.00  0.00    +0.155 HD
ENDBRANCH  21   8
ENDBRANCH  13  15
ENDBRANCH   5  13
TORSDOF 6
