REMARK  Name = 11885122
REMARK  5 active torsions:
REMARK  status: ('A' for Active; 'I' for Inactive)
REMARK    1  A    between atoms: O_3  and  C_27
REMARK    2  A    between atoms: O_3  and  C_31
REMARK    3  A    between atoms: C_15  and  C_18
REMARK    4  A    between atoms: C_16  and  C_19
REMARK    5  A    between atoms: C_18  and  C_20
REMARK                            x       y       z     vdW  Elec       q    Type
REMARK                         _______ _______ _______ _____ _____    ______ ____
ROOT
ATOM      1  O   UNL     1      -1.674  -1.400   1.834  0.00  0.00    -0.267 OA
ATOM      2  O   UNL     1       3.325   0.462   1.469  0.00  0.00    -0.275 OA
ATOM      4  N   UNL     1       3.049  -1.417   0.131  0.00  0.00    -0.300 N 
ATOM      5  N   UNL     1      -0.030  -2.220   0.397  0.00  0.00    -0.311 N 
ATOM      6  C   UNL     1       2.065  -3.423   1.246  0.00  0.00    +0.027 C 
ATOM      7  C   UNL     1       1.742  -3.088  -1.168  0.00  0.00    +0.054 C 
ATOM      8  C   UNL     1       2.029  -4.140  -0.098  0.00  0.00    +0.018 C 
ATOM      9  C   UNL     1       3.165  -2.348   1.256  0.00  0.00    +0.113 C 
ATOM     10  C   UNL     1       0.679  -2.832   1.530  0.00  0.00    +0.130 C 
ATOM     11  C   UNL     1       2.879  -2.047  -1.187  0.00  0.00    +0.117 C 
ATOM     12  C   UNL     1       0.416  -2.397  -0.914  0.00  0.00    +0.027 A 
ATOM     13  C   UNL     1      -0.312  -1.931  -1.942  0.00  0.00    +0.022 A 
ATOM     14  C   UNL     1      -1.231  -1.546   0.693  0.00  0.00    +0.259 A 
ATOM     15  C   UNL     1       3.183  -0.046   0.354  0.00  0.00    +0.220 C 
ATOM     16  C   UNL     1      -2.006  -1.003  -0.477  0.00  0.00    +0.047 A 
ATOM     17  C   UNL     1      -1.538  -1.220  -1.715  0.00  0.00    +0.015 A 
ENDROOT
BRANCH  16  19
ATOM     19  C   UNL     1      -3.252  -0.241  -0.280  0.00  0.00    -0.012 A 
ATOM     21  C   UNL     1      -4.479  -0.904  -0.248  0.00  0.00    +0.012 A 
ATOM     22  C   UNL     1      -3.205   1.145  -0.126  0.00  0.00    +0.012 A 
ATOM     25  C   UNL     1      -5.658  -0.182  -0.062  0.00  0.00    +0.046 A 
ATOM     26  C   UNL     1      -4.384   1.867   0.060  0.00  0.00    +0.046 A 
ATOM     27  C   UNL     1      -5.611   1.203   0.092  0.00  0.00    +0.120 A 
BRANCH  27   3
ATOM      3  O   UNL     1      -6.761   1.907   0.273  0.00  0.00    -0.495 OA
ATOM     31  C   UNL     1      -6.641   3.321   0.424  0.00  0.00    +0.277 C 
ENDBRANCH  27   3
ENDBRANCH  16  19
BRANCH  15  18
ATOM     18  C   UNL     1       3.139   0.844  -0.862  0.00  0.00    +0.131 C 
BRANCH  18  20
ATOM     20  C   UNL     1       3.336   2.276  -0.474  0.00  0.00    -0.039 A 
ATOM     23  C   UNL     1       2.233   3.065  -0.159  0.00  0.00    +0.004 A 
ATOM     24  C   UNL     1       4.620   2.811  -0.430  0.00  0.00    +0.004 A 
ATOM     28  C   UNL     1       2.416   4.400   0.202  0.00  0.00    +0.000 A 
ATOM     29  C   UNL     1       4.803   4.146  -0.069  0.00  0.00    +0.000 A 
ATOM     30  C   UNL     1       3.701   4.940   0.247  0.00  0.00    +0.000 A 
ENDBRANCH  18  20
ENDBRANCH  15  18
TORSDOF 4
