REMARK  Name = 38029925
REMARK  11 active torsions:
REMARK  status: ('A' for Active; 'I' for Inactive)
REMARK    1  A    between atoms: O_2  and  C_25
REMARK    2  A    between atoms: N_4  and  C_24
REMARK    3  A    between atoms: C_6  and  C_10
REMARK    4  A    between atoms: C_8  and  C_13
REMARK    5  A    between atoms: C_9  and  C_14
REMARK    6  A    between atoms: C_10  and  C_15
REMARK    7  A    between atoms: C_10  and  C_16
REMARK    8  A    between atoms: C_11  and  C_18
REMARK    9  A    between atoms: C_13  and  C_17
REMARK   10  A    between atoms: C_14  and  C_23
REMARK   11  A    between atoms: C_24  and  C_25
REMARK                            x       y       z     vdW  Elec       q    Type
REMARK                         _______ _______ _______ _____ _____    ______ ____
ROOT
ATOM      6  C   UNL     1      -2.801  -0.534   0.815  0.00  0.00    -0.000 C 
ATOM      7  C   UNL     1      -2.315   0.911   0.999  0.00  0.00    +0.012 C 
ATOM      8  C   UNL     1      -1.852   1.544  -0.327  0.00  0.00    +0.023 C 
ATOM      9  C   UNL     1      -3.979  -0.585  -0.191  0.00  0.00    +0.029 C 
ATOM     11  C   UNL     1      -2.846   1.302  -1.444  0.00  0.00    -0.073 C 
ATOM     12  C   UNL     1      -3.798   0.355  -1.360  0.00  0.00    -0.023 C 
ATOM     18  C   UNL     1      -2.751   2.204  -2.643  0.00  0.00    +0.039 C 
ENDROOT
BRANCH   6  10
ATOM     10  C   UNL     1      -3.188  -1.129   2.173  0.00  0.00    -0.013 C 
ATOM     15  C   UNL     1      -1.946  -1.619   2.911  0.00  0.00    +0.007 C 
ATOM     16  C   UNL     1      -3.944  -0.101   3.008  0.00  0.00    +0.007 C 
ENDBRANCH   6  10
BRANCH   8  13
ATOM     13  C   UNL     1      -0.456   1.047  -0.718  0.00  0.00    +0.103 C 
BRANCH  13  17
ATOM      1  O   UNL     1       0.230   2.514   1.012  0.00  0.00    -0.276 OA
ATOM      3  N   UNL     1       1.912   1.343  -0.081  0.00  0.00    -0.299 N 
ATOM      4  N   UNL     1       4.494   0.109   0.042  0.00  0.00    -0.297 NA
ATOM     17  C   UNL     1       0.586   1.706   0.152  0.00  0.00    +0.216 C 
ATOM     19  C   UNL     1       2.980   1.934   0.724  0.00  0.00    +0.123 C 
ATOM     20  C   UNL     1       2.377   0.490  -1.178  0.00  0.00    +0.123 C 
ATOM     21  C   UNL     1       3.978   0.873   1.187  0.00  0.00    +0.103 C 
ATOM     22  C   UNL     1       3.392  -0.542  -0.682  0.00  0.00    +0.103 C 
BRANCH   4  24
ATOM     24  C   UNL     1       5.473  -0.882   0.486  0.00  0.00    +0.112 C 
BRANCH  24  25
ATOM     25  C   UNL     1       6.395  -1.301  -0.645  0.00  0.00    +0.171 C 
BRANCH  25   2
ATOM      2  O   UNL     1       7.348  -2.236  -0.156  0.00  0.00    -0.394 OA
ATOM     26  H   UNL     1       7.924  -2.474  -0.902  0.00  0.00    +0.209 HD
ENDBRANCH  25   2
ENDBRANCH  24  25
ENDBRANCH   4  24
ENDBRANCH  13  17
ENDBRANCH   8  13
BRANCH   9  14
ATOM     14  C   UNL     1      -4.201  -2.009  -0.711  0.00  0.00    +0.126 C 
BRANCH  14  23
ATOM      5  N   UNL     1      -2.075  -2.897  -1.964  0.00  0.00    -0.197 NA
ATOM     23  C   UNL     1      -3.013  -2.498  -1.409  0.00  0.00    +0.063 C 
ENDBRANCH  14  23
ENDBRANCH   9  14
TORSDOF 8
