REMARK  Name = 25390026
REMARK  9 active torsions:
REMARK  status: ('A' for Active; 'I' for Inactive)
REMARK    1  A    between atoms: O_2  and  C_24
REMARK    2  A    between atoms: O_2  and  C_31
REMARK    3  A    between atoms: N_3  and  C_9
REMARK    4  A    between atoms: N_4  and  C_17
REMARK    5  A    between atoms: N_6  and  C_21
REMARK    6  A    between atoms: C_7  and  C_10
REMARK    7  A    between atoms: C_13  and  C_15
REMARK    8  A    between atoms: C_14  and  C_16
REMARK    9  A    between atoms: C_21  and  C_25
REMARK                            x       y       z     vdW  Elec       q    Type
REMARK                         _______ _______ _______ _____ _____    ______ ____
ROOT
ATOM      7  C   UNL     1      -0.157   0.250   0.083  0.00  0.00    +0.047 C 
ATOM      8  C   UNL     1       0.548   1.165  -0.940  0.00  0.00    +0.039 C 
ATOM      9  C   UNL     1       1.949   1.425  -0.374  0.00  0.00    +0.098 C 
ATOM     11  C   UNL     1       0.629   0.502   1.337  0.00  0.00    -0.021 C 
ATOM     12  C   UNL     1       1.777   1.139   1.082  0.00  0.00    -0.009 C 
ENDROOT
BRANCH   7  10
ATOM      4  N   UNL     1      -3.817   0.341   0.222  0.00  0.00    -0.236 N 
ATOM      5  N   UNL     1      -3.606   1.622   0.568  0.00  0.00    -0.171 NA
ATOM     10  C   UNL     1      -1.640   0.518   0.202  0.00  0.00    +0.003 A 
ATOM     13  C   UNL     1      -2.671  -0.364  -0.007  0.00  0.00    +0.046 A 
ATOM     14  C   UNL     1      -2.274   1.724   0.554  0.00  0.00    +0.064 A 
ATOM     15  C   UNL     1      -2.660  -1.788  -0.398  0.00  0.00    +0.066 C 
ATOM     16  C   UNL     1      -1.643   3.013   0.890  0.00  0.00    +0.068 C 
BRANCH   4  17
ATOM     17  C   UNL     1      -5.121  -0.145   0.130  0.00  0.00    +0.066 A 
ATOM     19  C   UNL     1      -5.385  -1.489   0.395  0.00  0.00    +0.031 A 
ATOM     20  C   UNL     1      -6.162   0.713  -0.227  0.00  0.00    +0.031 A 
ATOM     22  C   UNL     1      -6.690  -1.975   0.304  0.00  0.00    +0.048 A 
ATOM     23  C   UNL     1      -7.466   0.227  -0.318  0.00  0.00    +0.048 A 
ATOM     24  C   UNL     1      -7.730  -1.117  -0.053  0.00  0.00    +0.120 A 
BRANCH  24   2
ATOM      2  O   UNL     1      -9.003  -1.590  -0.143  0.00  0.00    -0.495 OA
ATOM     31  C   UNL     1     -10.018  -0.658  -0.513  0.00  0.00    +0.277 C 
ENDBRANCH  24   2
ENDBRANCH   4  17
ENDBRANCH   7  10
BRANCH   9   3
ATOM      1  O   UNL     1       4.780   1.925  -0.631  0.00  0.00    -0.253 OA
ATOM      3  N   UNL     1       2.942   0.535  -0.916  0.00  0.00    -0.293 N 
ATOM      6  N   UNL     1       5.033  -0.182  -1.567  0.00  0.00    -0.295 N 
ATOM     18  C   UNL     1       4.297   0.857  -1.004  0.00  0.00    +0.300 C 
ATOM     32  H   UNL     1       2.657  -0.404  -1.179  0.00  0.00    +0.151 HD
ATOM     33  H   UNL     1       4.551  -1.038  -1.826  0.00  0.00    +0.151 HD
BRANCH   6  21
ATOM     21  C   UNL     1       6.460  -0.109  -1.774  0.00  0.00    +0.141 C 
BRANCH  21  25
ATOM     25  C   UNL     1       7.226  -0.617  -0.587  0.00  0.00    -0.030 A 
ATOM     26  C   UNL     1       7.592   0.259   0.435  0.00  0.00    +0.005 A 
ATOM     27  C   UNL     1       7.572  -1.966  -0.505  0.00  0.00    +0.005 A 
ATOM     28  C   UNL     1       8.304  -0.213   1.538  0.00  0.00    +0.000 A 
ATOM     29  C   UNL     1       8.283  -2.438   0.598  0.00  0.00    +0.000 A 
ATOM     30  C   UNL     1       8.650  -1.562   1.619  0.00  0.00    +0.000 A 
ENDBRANCH  21  25
ENDBRANCH   6  21
ENDBRANCH   9   3
TORSDOF 6
