REMARK  Name = 11943156
REMARK  6 active torsions:
REMARK  status: ('A' for Active; 'I' for Inactive)
REMARK    1  A    between atoms: N_4  and  C_15
REMARK    2  A    between atoms: N_7  and  C_23
REMARK    3  A    between atoms: N_7  and  C_24
REMARK    4  A    between atoms: C_9  and  C_16
REMARK    5  A    between atoms: C_10  and  C_15
REMARK    6  A    between atoms: C_22  and  C_23
REMARK                            x       y       z     vdW  Elec       q    Type
REMARK                         _______ _______ _______ _____ _____    ______ ____
ROOT
ATOM      2  N   UNL     1       0.445   2.540  -0.661  0.00  0.00    -0.297 NA
ATOM      8  C   UNL     1       1.440   0.936   1.130  0.00  0.00    +0.005 C 
ATOM      9  C   UNL     1       2.336   0.998  -0.122  0.00  0.00    +0.092 C 
ATOM     10  C   UNL     1      -0.584   1.554  -0.235  0.00  0.00    +0.078 C 
ATOM     11  C   UNL     1       0.023   0.496   0.713  0.00  0.00    +0.025 C 
ATOM     12  C   UNL     1       1.333   2.373   1.672  0.00  0.00    +0.020 C 
ATOM     13  C   UNL     1       1.635   1.840  -1.203  0.00  0.00    +0.097 C 
ATOM     14  C   UNL     1       0.866   3.306   0.539  0.00  0.00    +0.085 C 
ENDROOT
BRANCH   9  16
ATOM      1  O   UNL     1       1.966  -0.933  -1.466  0.00  0.00    -0.275 OA
ATOM      3  N   UNL     1       3.799  -0.961  -0.061  0.00  0.00    -0.301 N 
ATOM     16  C   UNL     1       2.674  -0.384  -0.620  0.00  0.00    +0.220 C 
ATOM     17  C   UNL     1       4.255  -2.293  -0.430  0.00  0.00    +0.108 C 
ATOM     18  C   UNL     1       4.679  -0.365   0.940  0.00  0.00    +0.108 C 
ATOM     19  C   UNL     1       5.656  -2.391   0.153  0.00  0.00    +0.020 C 
ATOM     20  C   UNL     1       5.568  -1.514   1.395  0.00  0.00    +0.020 C 
ENDBRANCH   9  16
BRANCH  10  15
ATOM     15  C   UNL     1      -1.300   0.909  -1.423  0.00  0.00    +0.164 C 
BRANCH  15   4
ATOM      4  N   UNL     1      -2.398   0.059  -0.996  0.00  0.00    -0.250 N 
ATOM      5  N   UNL     1      -2.187  -1.237  -0.748  0.00  0.00    -0.065 NA
ATOM      6  N   UNL     1      -3.356  -1.754  -0.386  0.00  0.00    -0.133 NA
ATOM     21  C   UNL     1      -3.689   0.420  -0.807  0.00  0.00    +0.135 A 
ATOM     22  C   UNL     1      -4.287  -0.752  -0.417  0.00  0.00    +0.097 A 
BRANCH  22  23
ATOM     23  C   UNL     1      -5.690  -1.004  -0.066  0.00  0.00    +0.139 C 
BRANCH  23   7
ATOM      7  N   UNL     1      -5.899  -0.793   1.372  0.00  0.00    -0.314 NA
ATOM     24  C   UNL     1      -7.283  -1.050   1.728  0.00  0.00    +0.101 C 
ATOM     25  H   UNL     1      -5.670   0.172   1.609  0.00  0.00    +0.122 HD
ENDBRANCH  23   7
ENDBRANCH  22  23
ENDBRANCH  15   4
ENDBRANCH  10  15
TORSDOF 5
