REMARK  Name = 56774302
REMARK  12 active torsions:
REMARK  status: ('A' for Active; 'I' for Inactive)
REMARK    1  A    between atoms: N_3  and  C_7
REMARK    2  A    between atoms: C_5  and  C_10
REMARK    3  A    between atoms: C_5  and  C_11
REMARK    4  A    between atoms: C_6  and  C_9
REMARK    5  A    between atoms: C_9  and  C_12
REMARK    6  A    between atoms: C_13  and  C_15
REMARK    7  A    between atoms: C_15  and  C_18
REMARK    8  A    between atoms: C_15  and  C_19
REMARK    9  A    between atoms: C_16  and  C_17
REMARK   10  A    between atoms: C_17  and  C_20
REMARK   11  A    between atoms: C_17  and  C_21
REMARK   12  A    between atoms: C_17  and  C_22
REMARK                            x       y       z     vdW  Elec       q    Type
REMARK                         _______ _______ _______ _____ _____    ______ ____
ROOT
ATOM      5  C   UNL     1      -1.609  -0.934   0.329  0.00  0.00    -0.013 C 
ATOM      6  C   UNL     1      -0.199  -0.386   0.022  0.00  0.00    +0.004 C 
ATOM      7  C   UNL     1      -2.128  -0.012  -0.794  0.00  0.00    +0.079 C 
ATOM      8  C   UNL     1      -0.894   0.875  -0.532  0.00  0.00    +0.027 C 
ATOM     10  C   UNL     1      -2.089  -0.619   1.729  0.00  0.00    +0.013 C 
ATOM     11  C   UNL     1      -1.827  -2.406   0.030  0.00  0.00    +0.013 C 
ENDROOT
BRANCH   7   3
ATOM      2  O   UNL     1      -4.749  -1.214  -0.747  0.00  0.00    -0.276 OA
ATOM      3  N   UNL     1      -3.409   0.663  -0.525  0.00  0.00    -0.312 N 
ATOM     13  C   UNL     1      -4.624  -0.011  -0.526  0.00  0.00    +0.216 C 
ATOM     23  H   UNL     1      -3.417   1.660  -0.325  0.00  0.00    +0.149 HD
BRANCH  13  15
ATOM     15  C   UNL     1      -5.808   0.906  -0.228  0.00  0.00    +0.069 C 
ATOM     18  C   UNL     1      -7.055   0.409  -0.956  0.00  0.00    +0.017 C 
ATOM     19  C   UNL     1      -6.067   0.997   1.274  0.00  0.00    +0.017 C 
ENDBRANCH  13  15
ENDBRANCH   7   3
BRANCH   6   9
ATOM      9  C   UNL     1       0.720  -0.142   1.196  0.00  0.00    +0.063 C 
BRANCH   9  12
ATOM      1  O   UNL     1       3.764   1.430   0.065  0.00  0.00    -0.359 OA
ATOM      4  N   UNL     1       2.441   1.473   0.487  0.00  0.00    -0.083 NA
ATOM     12  C   UNL     1       2.109   0.199   0.714  0.00  0.00    +0.084 A 
ATOM     14  C   UNL     1       3.172  -0.684   0.454  0.00  0.00    +0.071 A 
ATOM     16  C   UNL     1       4.188   0.141   0.049  0.00  0.00    +0.143 A 
BRANCH  16  17
ATOM     17  C   UNL     1       5.574  -0.088  -0.376  0.00  0.00    +0.023 C 
ATOM     20  C   UNL     1       6.426  -0.785   0.742  0.00  0.00    +0.019 C 
ATOM     21  C   UNL     1       6.404   1.194  -0.763  0.00  0.00    +0.019 C 
ATOM     22  C   UNL     1       5.657  -1.008  -1.644  0.00  0.00    +0.019 C 
ENDBRANCH  16  17
ENDBRANCH   9  12
ENDBRANCH   6   9
TORSDOF 5
