REMARK  Name = 11912424
REMARK  9 active torsions:
REMARK  status: ('A' for Active; 'I' for Inactive)
REMARK    1  A    between atoms: S_1  and  N_7
REMARK    2  A    between atoms: S_1  and  C_17
REMARK    3  A    between atoms: O_4  and  C_18
REMARK    4  A    between atoms: C_9  and  C_14
REMARK    5  A    between atoms: C_10  and  C_15
REMARK    6  A    between atoms: C_14  and  C_16
REMARK    7  A    between atoms: C_15  and  C_18
REMARK    8  A    between atoms: C_19  and  C_21
REMARK    9  A    between atoms: C_20  and  C_22
REMARK                            x       y       z     vdW  Elec       q    Type
REMARK                         _______ _______ _______ _____ _____    ______ ____
ROOT
ATOM      7  N   UNL     1       0.269   0.111   0.636  0.00  0.00    -0.176 NA
ATOM      9  C   UNL     1      -2.180  -0.316   0.632  0.00  0.00    +0.008 C 
ATOM     10  C   UNL     1      -2.373   0.932  -0.264  0.00  0.00    +0.005 C 
ATOM     11  C   UNL     1      -0.922  -0.146   1.500  0.00  0.00    +0.113 C 
ATOM     12  C   UNL     1      -1.104   1.246  -1.071  0.00  0.00    +0.021 C 
ATOM     13  C   UNL     1       0.119   1.358  -0.167  0.00  0.00    +0.110 C 
ENDROOT
BRANCH   7   1
ATOM      1  S   UNL     1       1.787  -0.087   1.406  0.00  0.00    +0.066 S 
ATOM      2  O   UNL     1       1.845  -1.404   2.002  0.00  0.00    -0.153 OA
ATOM      3  O   UNL     1       2.076   1.098   2.184  0.00  0.00    -0.153 OA
BRANCH   1  17
ATOM      5  O   UNL     1       4.401   0.448  -1.418  0.00  0.00    -0.358 OA
ATOM      8  N   UNL     1       3.754  -0.666  -1.939  0.00  0.00    -0.081 NA
ATOM     17  C   UNL     1       2.849  -0.084  -0.005  0.00  0.00    +0.170 A 
ATOM     19  C   UNL     1       3.829   0.784  -0.234  0.00  0.00    +0.161 A 
ATOM     20  C   UNL     1       2.807  -0.966  -1.046  0.00  0.00    +0.107 A 
ATOM     21  C   UNL     1       4.398   1.950   0.455  0.00  0.00    +0.091 C 
ATOM     22  C   UNL     1       1.918  -2.115  -1.288  0.00  0.00    +0.071 C 
ENDBRANCH   1  17
ENDBRANCH   7   1
BRANCH   9  14
ATOM     14  C   UNL     1      -2.125  -1.639  -0.142  0.00  0.00    +0.002 C 
ATOM     16  C   UNL     1      -2.076  -2.822   0.802  0.00  0.00    +0.004 C 
ENDBRANCH   9  14
BRANCH  10  15
ATOM     15  C   UNL     1      -3.587   0.827  -1.188  0.00  0.00    +0.124 C 
BRANCH  15  18
ATOM      6  O   UNL     1      -5.096   1.001   0.719  0.00  0.00    -0.251 OA
ATOM     18  C   UNL     1      -4.856   0.606  -0.412  0.00  0.00    +0.305 C 
BRANCH  18   4
ATOM      4  O   UNL     1      -5.730  -0.116  -1.161  0.00  0.00    -0.481 OA
ATOM     23  H   UNL     1      -6.571  -0.279  -0.684  0.00  0.00    +0.295 HD
ENDBRANCH  18   4
ENDBRANCH  15  18
ENDBRANCH  10  15
TORSDOF 6
