REMARK  Name = 56774569
REMARK  8 active torsions:
REMARK  status: ('A' for Active; 'I' for Inactive)
REMARK    1  A    between atoms: O_2  and  C_9
REMARK    2  A    between atoms: N_5  and  C_11
REMARK    3  A    between atoms: N_6  and  C_20
REMARK    4  A    between atoms: N_7  and  C_22
REMARK    5  A    between atoms: C_8  and  C_9
REMARK    6  A    between atoms: C_9  and  C_12
REMARK    7  A    between atoms: C_11  and  C_15
REMARK    8  A    between atoms: C_22  and  C_23
REMARK                            x       y       z     vdW  Elec       q    Type
REMARK                         _______ _______ _______ _____ _____    ______ ____
ROOT
ATOM     12  C   UNL     1       0.339   0.516  -0.490  0.00  0.00    -0.017 A 
ATOM     16  C   UNL     1      -0.559  -0.377  -1.074  0.00  0.00    +0.008 A 
ATOM     17  C   UNL     1      -0.126   1.510   0.371  0.00  0.00    +0.008 A 
ATOM     18  C   UNL     1      -1.922  -0.276  -0.797  0.00  0.00    +0.024 A 
ATOM     19  C   UNL     1      -1.489   1.611   0.648  0.00  0.00    +0.024 A 
ATOM     20  C   UNL     1      -2.388   0.718   0.064  0.00  0.00    +0.035 A 
ENDROOT
BRANCH  20   6
ATOM      4  O   UNL     1      -4.697  -0.928  -0.917  0.00  0.00    -0.253 OA
ATOM      6  N   UNL     1      -3.751   0.819   0.341  0.00  0.00    -0.269 N 
ATOM      7  N   UNL     1      -6.034   0.448   0.373  0.00  0.00    -0.299 N 
ATOM     21  C   UNL     1      -4.806   0.021  -0.144  0.00  0.00    +0.304 C 
ATOM     25  H   UNL     1      -4.016   1.568   0.977  0.00  0.00    +0.156 HD
ATOM     26  H   UNL     1      -6.045   1.234   1.015  0.00  0.00    +0.150 HD
BRANCH   7  22
ATOM     22  C   UNL     1      -7.290  -0.187   0.047  0.00  0.00    +0.102 C 
ATOM     23  C   UNL     1      -7.500  -1.450   0.856  0.00  0.00    +0.024 C 
ENDBRANCH   7  22
ENDBRANCH  20   6
BRANCH  12   9
ATOM      9  C   UNL     1       1.812   0.407  -0.790  0.00  0.00    +0.167 C 
BRANCH   9   8
ATOM      1  O   UNL     1       2.506  -2.197   0.369  0.00  0.00    -0.369 OA
ATOM      3  O   UNL     1       5.845  -1.192  -0.572  0.00  0.00    -0.273 OA
ATOM      5  N   UNL     1       4.069   0.121   0.164  0.00  0.00    -0.292 N 
ATOM      8  C   UNL     1       2.637   0.187   0.481  0.00  0.00    +0.135 C 
ATOM     10  C   UNL     1       2.205  -1.084   1.203  0.00  0.00    +0.185 C 
ATOM     13  C   UNL     1       4.698  -1.087  -0.133  0.00  0.00    +0.242 C 
ATOM     14  C   UNL     1       3.899  -2.341   0.203  0.00  0.00    +0.255 C 
BRANCH   5  11
ATOM     11  C   UNL     1       4.778   1.382  -0.012  0.00  0.00    +0.105 C 
ATOM     15  C   UNL     1       5.520   1.781   1.247  0.00  0.00    +0.024 C 
ENDBRANCH   5  11
ENDBRANCH   9   8
BRANCH   9   2
ATOM      2  O   UNL     1       2.255   1.596  -1.438  0.00  0.00    -0.385 OA
ATOM     24  H   UNL     1       1.950   2.368  -0.933  0.00  0.00    +0.210 HD
ENDBRANCH   9   2
ENDBRANCH  12   9
TORSDOF 6
