REMARK  Name = 51137146
REMARK  6 active torsions:
REMARK  status: ('A' for Active; 'I' for Inactive)
REMARK    1  A    between atoms: S_1  and  C_25
REMARK    2  A    between atoms: S_1  and  C_27
REMARK    3  A    between atoms: N_6  and  C_9
REMARK    4  A    between atoms: C_10  and  C_18
REMARK    5  A    between atoms: C_19  and  C_22
REMARK    6  A    between atoms: C_27  and  C_28
REMARK                            x       y       z     vdW  Elec       q    Type
REMARK                         _______ _______ _______ _____ _____    ______ ____
ROOT
ATOM      6  N   UNL     1       2.739  -0.998  -0.400  0.00  0.00    -0.299 NA
ATOM     10  C   UNL     1       0.546  -1.715   0.021  0.00  0.00    +0.090 C 
ATOM     11  C   UNL     1       1.579  -0.654   0.425  0.00  0.00    +0.097 C 
ATOM     12  C   UNL     1       2.187  -1.298  -1.721  0.00  0.00    +0.085 C 
ATOM     13  C   UNL     1       0.967  -2.149  -1.394  0.00  0.00    +0.029 C 
ENDROOT
BRANCH  10  18
ATOM      2  O   UNL     1      -1.679  -1.919   0.993  0.00  0.00    -0.439 OA
ATOM      8  N   UNL     1      -1.448  -0.213  -0.480  0.00  0.00    -0.213 NA
ATOM     18  C   UNL     1      -0.879  -1.224   0.138  0.00  0.00    +0.201 A 
ATOM     20  C   UNL     1      -2.735  -0.232   0.001  0.00  0.00    +0.111 A 
ATOM     21  C   UNL     1      -2.880  -1.276   0.903  0.00  0.00    +0.155 A 
ATOM     23  C   UNL     1      -3.839   0.590  -0.269  0.00  0.00    +0.058 A 
ATOM     24  C   UNL     1      -4.056  -1.581   1.577  0.00  0.00    +0.050 A 
ATOM     25  C   UNL     1      -5.044   0.312   0.393  0.00  0.00    +0.090 A 
ATOM     26  C   UNL     1      -5.148  -0.752   1.297  0.00  0.00    +0.030 A 
BRANCH  25   1
ATOM      1  S   UNL     1      -6.441   1.317   0.083  0.00  0.00    -0.003 S 
ATOM      4  O   UNL     1      -7.340   1.235   1.224  0.00  0.00    -0.169 OA
ATOM      5  O   UNL     1      -5.965   2.614  -0.373  0.00  0.00    -0.169 OA
BRANCH   1  27
ATOM     27  C   UNL     1      -7.260   0.522  -1.281  0.00  0.00    +0.168 C 
ATOM     28  C   UNL     1      -8.510   1.269  -1.689  0.00  0.00    +0.028 C 
ENDBRANCH   1  27
ENDBRANCH  25   1
ENDBRANCH  10  18
BRANCH   6   9
ATOM      3  O   UNL     1       8.666   0.637  -0.429  0.00  0.00    -0.276 OA
ATOM      7  N   UNL     1       6.423   1.027   0.033  0.00  0.00    -0.302 N 
ATOM      9  C   UNL     1       3.731   0.073  -0.441  0.00  0.00    +0.060 C 
ATOM     14  C   UNL     1       4.238   0.377   0.975  0.00  0.00    +0.038 C 
ATOM     15  C   UNL     1       4.898  -0.324  -1.355  0.00  0.00    +0.038 C 
ATOM     16  C   UNL     1       5.346   1.429   0.946  0.00  0.00    +0.109 C 
ATOM     17  C   UNL     1       5.992   0.742  -1.337  0.00  0.00    +0.109 C 
ATOM     19  C   UNL     1       7.774   0.943   0.366  0.00  0.00    +0.212 C 
ATOM     22  C   UNL     1       8.137   1.248   1.798  0.00  0.00    +0.109 C 
ENDBRANCH   6   9
TORSDOF 4
