REMARK  Name = 45361527
REMARK  11 active torsions:
REMARK  status: ('A' for Active; 'I' for Inactive)
REMARK    1  A    between atoms: O_1  and  C_10
REMARK    2  A    between atoms: N_4  and  C_14
REMARK    3  A    between atoms: N_5  and  C_24
REMARK    4  A    between atoms: C_7  and  C_17
REMARK    5  A    between atoms: C_9  and  C_19
REMARK    6  A    between atoms: C_13  and  C_18
REMARK    7  A    between atoms: C_18  and  C_20
REMARK    8  A    between atoms: C_18  and  C_21
REMARK    9  A    between atoms: C_22  and  C_23
REMARK   10  A    between atoms: C_23  and  C_25
REMARK   11  A    between atoms: C_24  and  C_26
REMARK                            x       y       z     vdW  Elec       q    Type
REMARK                         _______ _______ _______ _____ _____    ______ ____
ROOT
ATOM      7  C   UNL     1      -0.440  -0.607   1.555  0.00  0.00    -0.027 C 
ATOM      8  C   UNL     1       0.091   0.376   0.459  0.00  0.00    +0.028 C 
ATOM      9  C   UNL     1       1.613   0.695   0.684  0.00  0.00    +0.012 C 
ATOM     10  C   UNL     1      -0.838   1.615   0.315  0.00  0.00    +0.122 C 
ATOM     11  C   UNL     1      -1.906  -0.988   1.240  0.00  0.00    +0.007 C 
ATOM     12  C   UNL     1       0.402  -1.903   1.521  0.00  0.00    +0.009 C 
ATOM     13  C   UNL     1      -2.320   1.227   0.103  0.00  0.00    +0.029 C 
ATOM     14  C   UNL     1       2.439  -0.621   0.723  0.00  0.00    +0.076 C 
ATOM     15  C   UNL     1      -2.826   0.221   1.137  0.00  0.00    +0.007 C 
ATOM     16  C   UNL     1       1.891  -1.654   1.708  0.00  0.00    +0.023 C 
ATOM     17  C   UNL     1      -0.380   0.003   2.979  0.00  0.00    +0.011 C 
ATOM     19  C   UNL     1       2.208   1.635  -0.378  0.00  0.00    +0.010 C 
ENDROOT
BRANCH  14   4
ATOM      3  O   UNL     1       4.717  -2.117  -0.203  0.00  0.00    -0.275 OA
ATOM      4  N   UNL     1       3.829  -0.372   1.044  0.00  0.00    -0.312 N 
ATOM     22  C   UNL     1       4.859  -1.154   0.545  0.00  0.00    +0.218 C 
ATOM     36  H   UNL     1       4.033   0.367   1.710  0.00  0.00    +0.149 HD
BRANCH  22  23
ATOM     23  C   UNL     1       6.209  -0.667   1.037  0.00  0.00    +0.130 C 
BRANCH  23  25
ATOM     25  C   UNL     1       7.136  -0.255  -0.076  0.00  0.00    -0.039 A 
ATOM     27  C   UNL     1       7.993  -1.191  -0.653  0.00  0.00    +0.004 A 
ATOM     28  C   UNL     1       7.137   1.064  -0.530  0.00  0.00    +0.004 A 
ATOM     31  C   UNL     1       8.852  -0.809  -1.684  0.00  0.00    +0.000 A 
ATOM     32  C   UNL     1       7.995   1.446  -1.561  0.00  0.00    +0.000 A 
ATOM     33  C   UNL     1       8.853   0.510  -2.138  0.00  0.00    +0.000 A 
ENDBRANCH  23  25
ENDBRANCH  22  23
ENDBRANCH  14   4
BRANCH  10   1
ATOM      1  O   UNL     1      -0.447   2.374  -0.831  0.00  0.00    -0.391 OA
ATOM     37  H   UNL     1      -0.524   1.801  -1.613  0.00  0.00    +0.210 HD
ENDBRANCH  10   1
BRANCH  13  18
ATOM     18  C   UNL     1      -3.235   2.457   0.095  0.00  0.00    +0.077 C 
ATOM     20  C   UNL     1      -3.117   3.208   1.417  0.00  0.00    +0.017 C 
BRANCH  18  21
ATOM      2  O   UNL     1      -5.595   2.268   0.604  0.00  0.00    -0.276 OA
ATOM      5  N   UNL     1      -4.813   1.362  -1.383  0.00  0.00    -0.311 N 
ATOM     21  C   UNL     1      -4.675   2.032  -0.176  0.00  0.00    +0.216 C 
ATOM     38  H   UNL     1      -4.012   1.253  -1.997  0.00  0.00    +0.149 HD
BRANCH   5  24
ATOM     24  C   UNL     1      -6.082   0.860  -1.857  0.00  0.00    +0.141 C 
BRANCH  24  26
ATOM      6  N   UNL     1      -7.508  -2.050   0.091  0.00  0.00    -0.263 NA
ATOM     26  C   UNL     1      -6.337  -0.546  -1.396  0.00  0.00    -0.012 A 
ATOM     29  C   UNL     1      -5.681  -1.623  -1.982  0.00  0.00    +0.008 A 
ATOM     30  C   UNL     1      -7.233  -0.811  -0.373  0.00  0.00    +0.115 A 
ATOM     34  C   UNL     1      -5.938  -2.914  -1.532  0.00  0.00    +0.020 A 
ATOM     35  C   UNL     1      -6.851  -3.073  -0.502  0.00  0.00    +0.111 A 
ENDBRANCH  24  26
ENDBRANCH   5  24
ENDBRANCH  18  21
ENDBRANCH  13  18
TORSDOF 8
