REMARK  Name = 40779449
REMARK  8 active torsions:
REMARK  status: ('A' for Active; 'I' for Inactive)
REMARK    1  A    between atoms: O_2  and  C_21
REMARK    2  A    between atoms: O_2  and  C_29
REMARK    3  A    between atoms: N_4  and  C_18
REMARK    4  A    between atoms: N_5  and  C_15
REMARK    5  A    between atoms: C_8  and  C_14
REMARK    6  A    between atoms: C_9  and  C_15
REMARK    7  A    between atoms: C_17  and  C_20
REMARK    8  A    between atoms: C_19  and  C_21
REMARK                            x       y       z     vdW  Elec       q    Type
REMARK                         _______ _______ _______ _____ _____    ______ ____
ROOT
ATOM      3  N   UNL     1      -3.581  -2.127   0.682  0.00  0.00    -0.297 NA
ATOM      7  C   UNL     1      -2.122  -2.117  -1.476  0.00  0.00    +0.002 C 
ATOM      8  C   UNL     1      -1.360  -2.801  -0.307  0.00  0.00    +0.055 C 
ATOM      9  C   UNL     1      -3.544  -0.760   0.099  0.00  0.00    +0.074 C 
ATOM     10  C   UNL     1      -2.523  -0.687  -1.056  0.00  0.00    +0.024 C 
ATOM     11  C   UNL     1      -3.429  -2.913  -1.681  0.00  0.00    +0.019 C 
ATOM     12  C   UNL     1      -2.203  -2.589   0.983  0.00  0.00    +0.094 C 
ATOM     13  C   UNL     1      -4.162  -3.038  -0.334  0.00  0.00    +0.085 C 
ENDROOT
BRANCH   8  14
ATOM      4  N   UNL     1       1.017  -3.326   0.411  0.00  0.00    -0.270 N 
ATOM      6  N   UNL     1       2.259  -2.822   0.512  0.00  0.00    -0.171 NA
ATOM     14  C   UNL     1       0.107  -2.450  -0.103  0.00  0.00    +0.044 A 
ATOM     16  C   UNL     1       0.802  -1.292  -0.356  0.00  0.00    +0.053 A 
ATOM     17  C   UNL     1       2.121  -1.579   0.042  0.00  0.00    +0.093 A 
ATOM     18  C   UNL     1       0.769  -4.683   0.839  0.00  0.00    +0.172 C 
BRANCH  17  20
ATOM     20  C   UNL     1       3.251  -0.690  -0.017  0.00  0.00    +0.003 A 
ATOM     22  C   UNL     1       3.063   0.687   0.112  0.00  0.00    +0.018 A 
ATOM     23  C   UNL     1       4.532  -1.203  -0.201  0.00  0.00    +0.011 A 
ATOM     24  C   UNL     1       4.155   1.568   0.057  0.00  0.00    -0.017 A 
ATOM     25  C   UNL     1       5.628  -0.343  -0.258  0.00  0.00    +0.009 A 
ATOM     26  C   UNL     1       5.457   1.046  -0.131  0.00  0.00    -0.018 A 
ATOM     27  C   UNL     1       3.984   2.956   0.184  0.00  0.00    +0.008 A 
ATOM     28  C   UNL     1       6.549   1.927  -0.185  0.00  0.00    +0.008 A 
ATOM     30  C   UNL     1       5.080   3.817   0.128  0.00  0.00    +0.001 A 
ATOM     31  C   UNL     1       6.360   3.303  -0.057  0.00  0.00    +0.001 A 
ENDBRANCH  17  20
ENDBRANCH   8  14
BRANCH   9  15
ATOM     15  C   UNL     1      -3.287   0.317   1.156  0.00  0.00    +0.123 C 
BRANCH  15   5
ATOM      1  O   UNL     1      -5.646   1.977   0.941  0.00  0.00    -0.273 OA
ATOM      5  N   UNL     1      -3.373   1.625   0.583  0.00  0.00    -0.312 N 
ATOM     19  C   UNL     1      -4.557   2.358   0.520  0.00  0.00    +0.239 C 
ATOM     32  H   UNL     1      -2.524   2.033   0.202  0.00  0.00    +0.149 HD
BRANCH  19  21
ATOM     21  C   UNL     1      -4.359   3.708  -0.135  0.00  0.00    +0.255 C 
BRANCH  21   2
ATOM      2  O   UNL     1      -5.572   4.428  -0.170  0.00  0.00    -0.374 OA
ATOM     29  C   UNL     1      -5.415   5.705  -0.782  0.00  0.00    +0.194 C 
ENDBRANCH  21   2
ENDBRANCH  19  21
ENDBRANCH  15   5
ENDBRANCH   9  15
TORSDOF 6
