REMARK  Name = 25388766
REMARK  10 active torsions:
REMARK  status: ('A' for Active; 'I' for Inactive)
REMARK    1  A    between atoms: O_5  and  C_29
REMARK    2  A    between atoms: O_5  and  C_30
REMARK    3  A    between atoms: N_7  and  C_17
REMARK    4  A    between atoms: N_7  and  C_19
REMARK    5  A    between atoms: N_7  and  C_20
REMARK    6  A    between atoms: N_8  and  C_18
REMARK    7  A    between atoms: N_9  and  C_24
REMARK    8  A    between atoms: C_11  and  C_17
REMARK    9  A    between atoms: C_12  and  C_18
REMARK   10  A    between atoms: C_19  and  C_22
REMARK                            x       y       z     vdW  Elec       q    Type
REMARK                         _______ _______ _______ _____ _____    ______ ____
ROOT
ATOM      4  O   UNL     1      -0.106  -0.423   1.217  0.00  0.00    -0.253 OA
ATOM      8  N   UNL     1       0.912  -2.338   0.420  0.00  0.00    -0.298 N 
ATOM      9  N   UNL     1      -1.235  -1.890  -0.227  0.00  0.00    -0.269 N 
ATOM     21  C   UNL     1      -0.151  -1.444   0.535  0.00  0.00    +0.304 C 
ATOM     31  H   UNL     1       0.785  -3.186  -0.123  0.00  0.00    +0.150 HD
ATOM     32  H   UNL     1      -1.107  -2.761  -0.736  0.00  0.00    +0.156 HD
ENDROOT
BRANCH   9  24
ATOM     24  C   UNL     1      -2.499  -1.276  -0.381  0.00  0.00    +0.035 A 
ATOM     25  C   UNL     1      -3.470  -1.870  -1.188  0.00  0.00    +0.027 A 
ATOM     26  C   UNL     1      -2.776  -0.076   0.275  0.00  0.00    +0.027 A 
ATOM     27  C   UNL     1      -4.717  -1.264  -1.340  0.00  0.00    +0.048 A 
ATOM     28  C   UNL     1      -4.024   0.530   0.123  0.00  0.00    +0.048 A 
ATOM     29  C   UNL     1      -4.994  -0.064  -0.685  0.00  0.00    +0.130 A 
BRANCH  29   5
ATOM      5  O   UNL     1      -6.211   0.527  -0.833  0.00  0.00    -0.406 OA
BRANCH   5  30
ATOM      1  F   UNL     1      -8.312   0.650  -0.017  0.00  0.00    -0.133 F 
ATOM      2  F   UNL     1      -6.764  -0.218   1.258  0.00  0.00    -0.133 F 
ATOM      3  F   UNL     1      -6.792   1.955   0.856  0.00  0.00    -0.133 F 
ATOM     30  C   UNL     1      -7.007   0.731   0.329  0.00  0.00    +0.575 C 
ENDBRANCH   5  30
ENDBRANCH  29   5
ENDBRANCH   9  24
BRANCH   8  18
ATOM     18  C   UNL     1       2.181  -2.143   1.101  0.00  0.00    +0.124 C 
BRANCH  18  12
ATOM      6  N   UNL     1       4.662  -2.005   0.753  0.00  0.00    -0.298 NA
ATOM     10  C   UNL     1       4.496  -0.124  -1.036  0.00  0.00    -0.003 C 
ATOM     11  C   UNL     1       4.945   0.450   0.327  0.00  0.00    +0.020 C 
ATOM     12  C   UNL     1       3.329  -2.045   0.093  0.00  0.00    +0.074 C 
ATOM     13  C   UNL     1       3.148  -0.848  -0.867  0.00  0.00    +0.024 C 
ATOM     14  C   UNL     1       4.886  -0.680   1.380  0.00  0.00    +0.089 C 
ATOM     15  C   UNL     1       5.537  -1.186  -1.439  0.00  0.00    +0.019 C 
ATOM     16  C   UNL     1       5.695  -2.201  -0.293  0.00  0.00    +0.085 C 
BRANCH  11  17
ATOM     17  C   UNL     1       4.136   1.669   0.763  0.00  0.00    +0.089 C 
BRANCH  17   7
ATOM      7  N   UNL     1       4.183   2.712  -0.249  0.00  0.00    -0.301 NA
ATOM     20  C   UNL     1       5.436   3.466  -0.160  0.00  0.00    +0.105 C 
BRANCH   7  19
ATOM     19  C   UNL     1       3.039   3.618  -0.115  0.00  0.00    +0.110 C 
BRANCH  19  22
ATOM     22  C   UNL     1       1.786   3.009  -0.665  0.00  0.00    -0.019 C 
ATOM     23  C   UNL     1       0.687   2.774   0.062  0.00  0.00    +0.005 C 
ENDBRANCH  19  22
ENDBRANCH   7  19
ENDBRANCH  17   7
ENDBRANCH  11  17
ENDBRANCH  18  12
ENDBRANCH   8  18
TORSDOF 9
