REMARK  Name = 11882933
REMARK  15 active torsions:
REMARK  status: ('A' for Active; 'I' for Inactive)
REMARK    1  A    between atoms: O_2  and  C_16
REMARK    2  A    between atoms: O_3  and  C_21
REMARK    3  A    between atoms: O_6  and  C_37
REMARK    4  A    between atoms: O_6  and  C_38
REMARK    5  A    between atoms: N_8  and  C_27
REMARK    6  A    between atoms: N_10  and  C_29
REMARK    7  A    between atoms: N_10  and  C_33
REMARK    8  A    between atoms: N_10  and  C_34
REMARK    9  A    between atoms: C_11  and  C_19
REMARK   10  A    between atoms: C_13  and  C_21
REMARK   11  A    between atoms: C_13  and  C_22
REMARK   12  A    between atoms: C_14  and  C_24
REMARK   13  A    between atoms: C_24  and  C_25
REMARK   14  A    between atoms: C_27  and  C_29
REMARK   15  A    between atoms: C_28  and  C_30
REMARK                            x       y       z     vdW  Elec       q    Type
REMARK                         _______ _______ _______ _____ _____    ______ ____
ROOT
ATOM      1  S   UNL     1      -0.163   2.450  -0.499  0.00  0.00    -0.057 S 
ATOM      5  O   UNL     1       2.918  -0.797   0.778  0.00  0.00    -0.270 OA
ATOM      7  N   UNL     1       0.107   0.032   0.379  0.00  0.00    -0.229 NA
ATOM      9  N   UNL     1       2.131   1.286   0.004  0.00  0.00    -0.261 N 
ATOM     11  C   UNL     1      -3.730  -0.133   0.726  0.00  0.00    -0.019 C 
ATOM     12  C   UNL     1      -3.961   0.859  -0.498  0.00  0.00    +0.011 C 
ATOM     13  C   UNL     1      -5.448   1.299  -0.791  0.00  0.00    +0.021 C 
ATOM     14  C   UNL     1      -2.275  -0.776   0.570  0.00  0.00    +0.054 C 
ATOM     15  C   UNL     1      -4.777  -1.275   0.669  0.00  0.00    +0.010 C 
ATOM     16  C   UNL     1      -6.367   0.045  -0.766  0.00  0.00    +0.123 C 
ATOM     17  C   UNL     1      -2.952   2.044  -0.468  0.00  0.00    +0.049 C 
ATOM     18  C   UNL     1      -6.210  -0.790   0.500  0.00  0.00    +0.032 C 
ATOM     19  C   UNL     1      -3.837   0.571   2.100  0.00  0.00    +0.012 C 
ATOM     20  C   UNL     1      -1.247   0.280   0.252  0.00  0.00    +0.058 A 
ATOM     22  C   UNL     1      -5.525   1.900  -2.223  0.00  0.00    +0.016 C 
ATOM     23  C   UNL     1      -1.572   1.531  -0.230  0.00  0.00    +0.015 A 
ATOM     26  C   UNL     1       0.773   1.107   0.019  0.00  0.00    +0.165 A 
ATOM     28  C   UNL     1       3.107   0.346   0.376  0.00  0.00    +0.250 C 
ATOM     42  H   UNL     1       2.414   2.190  -0.360  0.00  0.00    +0.157 HD
ENDROOT
BRANCH  28  30
ATOM     30  C   UNL     1       4.515   0.799   0.231  0.00  0.00    +0.037 A 
ATOM     31  C   UNL     1       4.791   2.148   0.315  0.00  0.00    +0.016 A 
ATOM     32  C   UNL     1       5.499  -0.143   0.019  0.00  0.00    +0.016 A 
ATOM     35  C   UNL     1       6.113   2.573   0.180  0.00  0.00    +0.046 A 
ATOM     36  C   UNL     1       6.820   0.282  -0.117  0.00  0.00    +0.046 A 
ATOM     37  C   UNL     1       7.127   1.641  -0.036  0.00  0.00    +0.120 A 
BRANCH  37   6
ATOM      6  O   UNL     1       8.417   2.055  -0.167  0.00  0.00    -0.495 OA
ATOM     38  C   UNL     1       8.660   3.458  -0.074  0.00  0.00    +0.277 C 
ENDBRANCH  37   6
ENDBRANCH  28  30
BRANCH  16   2
ATOM      2  O   UNL     1      -7.737   0.423  -0.900  0.00  0.00    -0.391 OA
ATOM     39  H   UNL     1      -7.895   0.655  -1.830  0.00  0.00    +0.210 HD
ENDBRANCH  16   2
BRANCH  13  21
ATOM     21  C   UNL     1      -5.989   2.397   0.150  0.00  0.00    +0.165 C 
BRANCH  21   3
ATOM      3  O   UNL     1      -7.312   2.688  -0.241  0.00  0.00    -0.394 OA
ATOM     40  H   UNL     1      -7.279   3.371  -0.932  0.00  0.00    +0.209 HD
ENDBRANCH  21   3
ENDBRANCH  13  21
BRANCH  14  24
ATOM     24  C   UNL     1      -1.835  -1.651   1.751  0.00  0.00    +0.106 C 
BRANCH  24  25
ATOM      4  O   UNL     1       0.489  -2.193   2.155  0.00  0.00    -0.276 OA
ATOM      8  N   UNL     1      -0.627  -3.185   0.374  0.00  0.00    -0.314 N 
ATOM     25  C   UNL     1      -0.524  -2.353   1.479  0.00  0.00    +0.214 C 
ATOM     41  H   UNL     1      -1.522  -3.297  -0.092  0.00  0.00    +0.149 HD
BRANCH   8  27
ATOM     27  C   UNL     1       0.473  -3.980  -0.121  0.00  0.00    +0.119 C 
BRANCH  27  29
ATOM     29  C   UNL     1       1.287  -3.213  -1.153  0.00  0.00    +0.102 C 
BRANCH  29  10
ATOM     10  N   UNL     1       2.407  -4.021  -1.618  0.00  0.00    -0.307 NA
ATOM     33  C   UNL     1       3.183  -3.298  -2.627  0.00  0.00    +0.104 C 
ATOM     34  C   UNL     1       3.267  -4.405  -0.496  0.00  0.00    +0.104 C 
ENDBRANCH  29  10
ENDBRANCH  27  29
ENDBRANCH   8  27
ENDBRANCH  24  25
ENDBRANCH  14  24
TORSDOF 10
