REMARK  Name = 51138146
REMARK  12 active torsions:
REMARK  status: ('A' for Active; 'I' for Inactive)
REMARK    1  A    between atoms: O_3  and  C_28
REMARK    2  A    between atoms: O_3  and  C_31
REMARK    3  A    between atoms: N_5  and  C_21
REMARK    4  A    between atoms: N_6  and  C_26
REMARK    5  A    between atoms: C_8  and  C_12
REMARK    6  A    between atoms: C_11  and  C_19
REMARK    7  A    between atoms: C_12  and  C_16
REMARK    8  A    between atoms: C_16  and  C_23
REMARK    9  A    between atoms: C_16  and  C_24
REMARK   10  A    between atoms: C_21  and  C_25
REMARK   11  A    between atoms: C_26  and  C_28
REMARK   12  A    between atoms: C_29  and  C_30
REMARK                            x       y       z     vdW  Elec       q    Type
REMARK                         _______ _______ _______ _____ _____    ______ ____
ROOT
ATOM      4  N   UNL     1      -1.974  -0.212  -0.217  0.00  0.00    -0.299 NA
ATOM      5  N   UNL     1       2.807   0.756   1.091  0.00  0.00    -0.340 N 
ATOM      8  C   UNL     1      -1.460  -1.459   0.364  0.00  0.00    +0.085 C 
ATOM      9  C   UNL     1       0.040  -1.484   0.677  0.00  0.00    -0.021 A 
ATOM     10  C   UNL     1       0.877  -0.335   0.772  0.00  0.00    +0.008 A 
ATOM     11  C   UNL     1      -1.875   0.951   0.654  0.00  0.00    +0.145 C 
ATOM     13  C   UNL     1       0.652   1.080   0.641  0.00  0.00    -0.020 A 
ATOM     14  C   UNL     1      -0.631   1.780   0.344  0.00  0.00    +0.065 C 
ATOM     15  C   UNL     1       2.234  -0.493   1.078  0.00  0.00    +0.050 A 
ATOM     17  C   UNL     1       1.865   1.709   0.835  0.00  0.00    +0.091 A 
ATOM     18  C   UNL     1       0.651  -2.729   0.974  0.00  0.00    +0.006 A 
ATOM     20  C   UNL     1       2.827  -1.733   1.322  0.00  0.00    +0.026 A 
ATOM     22  C   UNL     1       2.006  -2.852   1.278  0.00  0.00    +0.002 A 
ATOM     32  H   UNL     1      -1.547  -0.030  -1.124  0.00  0.00    +0.123 HD
ENDROOT
BRANCH  11  19
ATOM      1  O   UNL     1      -3.098   2.641  -0.504  0.00  0.00    -0.274 OA
ATOM      6  N   UNL     1      -4.163   1.429   1.174  0.00  0.00    -0.312 N 
ATOM     19  C   UNL     1      -3.096   1.767   0.359  0.00  0.00    +0.230 C 
ATOM     33  H   UNL     1      -4.058   0.675   1.847  0.00  0.00    +0.149 HD
BRANCH   6  26
ATOM     26  C   UNL     1      -5.449   2.083   1.106  0.00  0.00    +0.132 C 
BRANCH  26  28
ATOM     28  C   UNL     1      -6.376   1.391   0.123  0.00  0.00    +0.178 C 
BRANCH  28   3
ATOM      3  O   UNL     1      -5.807   1.442  -1.179  0.00  0.00    -0.381 OA
ATOM     31  C   UNL     1      -6.643   0.810  -2.138  0.00  0.00    +0.194 C 
ENDBRANCH  28   3
ENDBRANCH  26  28
ENDBRANCH   6  26
ENDBRANCH  11  19
BRANCH   8  12
ATOM     12  C   UNL     1      -1.872  -2.554  -0.637  0.00  0.00    +0.026 C 
BRANCH  12  16
ATOM     16  C   UNL     1      -3.355  -2.925  -0.541  0.00  0.00    -0.015 C 
ATOM     23  C   UNL     1      -4.278  -1.737  -0.815  0.00  0.00    +0.007 C 
ATOM     24  C   UNL     1      -3.658  -4.053  -1.529  0.00  0.00    +0.007 C 
ENDBRANCH  12  16
ENDBRANCH   8  12
BRANCH   5  21
ATOM     21  C   UNL     1       4.201   1.041   1.356  0.00  0.00    +0.180 C 
BRANCH  21  25
ATOM      2  O   UNL     1       6.728  -0.065  -0.969  0.00  0.00    -0.360 OA
ATOM      7  N   UNL     1       6.123  -0.064   0.282  0.00  0.00    -0.081 NA
ATOM     25  C   UNL     1       5.099   0.787   0.171  0.00  0.00    +0.103 A 
ATOM     27  C   UNL     1       5.008   1.347  -1.115  0.00  0.00    +0.072 A 
ATOM     29  C   UNL     1       6.055   0.779  -1.792  0.00  0.00    +0.135 A 
ATOM     30  C   UNL     1       6.563   0.899  -3.164  0.00  0.00    +0.089 C 
ENDBRANCH  21  25
ENDBRANCH   5  21
TORSDOF 8
