REMARK  Name = 11882033
REMARK  12 active torsions:
REMARK  status: ('A' for Active; 'I' for Inactive)
REMARK    1  A    between atoms: S_1  and  C_20
REMARK    2  A    between atoms: S_1  and  C_30
REMARK    3  A    between atoms: S_2  and  C_36
REMARK    4  A    between atoms: S_2  and  C_39
REMARK    5  A    between atoms: N_8  and  C_13
REMARK    6  A    between atoms: N_9  and  C_19
REMARK    7  A    between atoms: N_10  and  C_28
REMARK    8  A    between atoms: C_14  and  C_17
REMARK    9  A    between atoms: C_18  and  C_20
REMARK   10  A    between atoms: C_19  and  C_22
REMARK   11  A    between atoms: C_19  and  C_24
REMARK   12  A    between atoms: C_22  and  C_23
REMARK                            x       y       z     vdW  Elec       q    Type
REMARK                         _______ _______ _______ _____ _____    ______ ____
ROOT
ATOM      4  O   UNL     1      -5.827  -0.139   0.030  0.00  0.00    -0.275 OA
ATOM      7  N   UNL     1      -4.024   1.161  -0.617  0.00  0.00    -0.287 N 
ATOM     13  C   UNL     1      -1.973   2.117  -1.339  0.00  0.00    +0.094 C 
ATOM     14  C   UNL     1      -3.318   0.110  -1.335  0.00  0.00    +0.164 C 
ATOM     15  C   UNL     1      -2.233   0.833  -2.130  0.00  0.00    +0.055 C 
ATOM     16  C   UNL     1      -3.337   2.446  -0.739  0.00  0.00    +0.131 C 
ATOM     18  C   UNL     1      -5.276   0.960  -0.056  0.00  0.00    +0.226 C 
ENDROOT
BRANCH  13   8
ATOM      5  O   UNL     1       0.845   2.558  -1.605  0.00  0.00    -0.253 OA
ATOM      8  N   UNL     1      -0.971   1.926  -0.320  0.00  0.00    -0.295 N 
ATOM     10  N   UNL     1       1.121   1.895   0.630  0.00  0.00    -0.269 N 
ATOM     21  C   UNL     1       0.393   2.165  -0.532  0.00  0.00    +0.304 C 
ATOM     40  H   UNL     1      -1.258   1.540   0.574  0.00  0.00    +0.151 HD
ATOM     42  H   UNL     1       0.591   1.574   1.437  0.00  0.00    +0.156 HD
BRANCH  10  28
ATOM     28  C   UNL     1       2.517   2.011   0.827  0.00  0.00    +0.036 A 
ATOM     34  C   UNL     1       3.336   2.442  -0.217  0.00  0.00    +0.038 A 
ATOM     35  C   UNL     1       3.075   1.694   2.065  0.00  0.00    +0.023 A 
ATOM     36  C   UNL     1       4.712   2.556  -0.023  0.00  0.00    +0.009 A 
ATOM     37  C   UNL     1       4.452   1.808   2.260  0.00  0.00    +0.003 A 
ATOM     38  C   UNL     1       5.270   2.239   1.216  0.00  0.00    +0.015 A 
BRANCH  36   2
ATOM      2  S   UNL     1       5.759   3.108  -1.355  0.00  0.00    -0.129 S 
ATOM     39  C   UNL     1       5.452   1.839  -2.616  0.00  0.00    +0.090 C 
ENDBRANCH  36   2
ENDBRANCH  10  28
ENDBRANCH  13   8
BRANCH  14  17
ATOM      3  O   UNL     1      -2.874  -0.688   0.870  0.00  0.00    -0.274 OA
ATOM      9  N   UNL     1      -2.012  -1.859  -0.947  0.00  0.00    -0.302 N 
ATOM     17  C   UNL     1      -2.729  -0.843  -0.339  0.00  0.00    +0.234 C 
ATOM     41  H   UNL     1      -2.031  -1.935  -1.960  0.00  0.00    +0.150 HD
BRANCH   9  19
ATOM     19  C   UNL     1      -1.326  -2.894  -0.208  0.00  0.00    +0.163 C 
BRANCH  19  24
ATOM      6  O   UNL     1      -3.225  -4.316  -0.734  0.00  0.00    -0.274 OA
ATOM     12  N   UNL     1      -2.119  -4.651   1.251  0.00  0.00    -0.328 N 
ATOM     24  C   UNL     1      -2.337  -4.001   0.054  0.00  0.00    +0.231 C 
ATOM     44  H   UNL     1      -2.714  -5.419   1.542  0.00  0.00    +0.145 HD
ATOM     45  H   UNL     1      -1.365  -4.395   1.881  0.00  0.00    +0.145 HD
ENDBRANCH  19  24
BRANCH  19  22
ATOM     22  C   UNL     1      -0.113  -3.445  -0.968  0.00  0.00    +0.069 C 
BRANCH  22  23
ATOM     11  N   UNL     1       2.584  -0.971  -1.313  0.00  0.00    -0.360 N 
ATOM     23  C   UNL     1       1.095  -2.557  -0.873  0.00  0.00    -0.020 A 
ATOM     25  C   UNL     1       2.112  -2.614   0.120  0.00  0.00    +0.003 A 
ATOM     26  C   UNL     1       1.413  -1.537  -1.740  0.00  0.00    +0.087 A 
ATOM     27  C   UNL     1       3.034  -1.609  -0.179  0.00  0.00    +0.047 A 
ATOM     29  C   UNL     1       2.339  -3.427   1.249  0.00  0.00    +0.010 A 
ATOM     31  C   UNL     1       4.175  -1.375   0.596  0.00  0.00    +0.026 A 
ATOM     32  C   UNL     1       3.476  -3.204   2.034  0.00  0.00    +0.001 A 
ATOM     33  C   UNL     1       4.379  -2.193   1.711  0.00  0.00    +0.002 A 
ATOM     43  H   UNL     1       3.051  -0.197  -1.766  0.00  0.00    +0.165 HD
ENDBRANCH  22  23
ENDBRANCH  19  22
ENDBRANCH   9  19
ENDBRANCH  14  17
BRANCH  18  20
ATOM     20  C   UNL     1      -5.956   2.195   0.479  0.00  0.00    +0.164 C 
BRANCH  20   1
ATOM      1  S   UNL     1      -5.482   2.377   2.204  0.00  0.00    -0.155 S 
ATOM     30  C   UNL     1      -6.405   3.885   2.590  0.00  0.00    +0.085 C 
ENDBRANCH  20   1
ENDBRANCH  18  20
TORSDOF 10
