REMARK  Name = 7134372
REMARK  13 active torsions:
REMARK  status: ('A' for Active; 'I' for Inactive)
REMARK    1  A    between atoms: S_1  and  N_12
REMARK    2  A    between atoms: S_1  and  C_24
REMARK    3  A    between atoms: S_2  and  C_23
REMARK    4  A    between atoms: S_2  and  C_30
REMARK    5  A    between atoms: O_9  and  C_37
REMARK    6  A    between atoms: N_12  and  C_15
REMARK    7  A    between atoms: N_13  and  C_22
REMARK    8  A    between atoms: C_17  and  C_20
REMARK    9  A    between atoms: C_21  and  C_23
REMARK   10  A    between atoms: C_22  and  C_25
REMARK   11  A    between atoms: C_22  and  C_26
REMARK   12  A    between atoms: C_25  and  C_27
REMARK   13  A    between atoms: C_30  and  C_37
REMARK                            x       y       z     vdW  Elec       q    Type
REMARK                         _______ _______ _______ _____ _____    ______ ____
ROOT
ATOM      5  O   UNL     1      -3.526   3.151   2.113  0.00  0.00    -0.275 OA
ATOM     11  N   UNL     1      -1.811   2.108   0.934  0.00  0.00    -0.289 N 
ATOM     15  C   UNL     1       0.866   2.263  -0.207  0.00  0.00    +0.080 C 
ATOM     16  C   UNL     1      -0.220   1.418  -0.876  0.00  0.00    +0.052 C 
ATOM     17  C   UNL     1      -1.335   1.002   0.086  0.00  0.00    +0.163 C 
ATOM     18  C   UNL     1       0.244   3.439   0.539  0.00  0.00    +0.039 C 
ATOM     19  C   UNL     1      -0.781   2.951   1.554  0.00  0.00    +0.110 C 
ATOM     21  C   UNL     1      -3.148   2.305   1.298  0.00  0.00    +0.226 C 
ENDROOT
BRANCH  17  20
ATOM      4  O   UNL     1      -0.426   0.132   2.117  0.00  0.00    -0.274 OA
ATOM     13  N   UNL     1      -1.088  -1.354   0.452  0.00  0.00    -0.302 N 
ATOM     20  C   UNL     1      -0.903  -0.100   1.009  0.00  0.00    +0.234 C 
ATOM     39  H   UNL     1      -1.543  -1.429  -0.454  0.00  0.00    +0.150 HD
BRANCH  13  22
ATOM     22  C   UNL     1      -0.731  -2.580   1.128  0.00  0.00    +0.163 C 
BRANCH  22  26
ATOM      8  O   UNL     1      -3.091  -2.792   1.667  0.00  0.00    -0.274 OA
ATOM     14  N   UNL     1      -1.546  -3.621   3.151  0.00  0.00    -0.328 N 
ATOM     26  C   UNL     1      -1.920  -2.979   1.990  0.00  0.00    +0.231 C 
ATOM     40  H   UNL     1      -2.243  -3.953   3.810  0.00  0.00    +0.145 HD
ATOM     41  H   UNL     1      -0.575  -3.790   3.393  0.00  0.00    +0.145 HD
ENDBRANCH  22  26
BRANCH  22  25
ATOM     25  C   UNL     1      -0.383  -3.704   0.145  0.00  0.00    +0.067 C 
BRANCH  25  27
ATOM     27  C   UNL     1       1.016  -3.582  -0.409  0.00  0.00    -0.045 A 
ATOM     32  C   UNL     1       1.242  -2.857  -1.578  0.00  0.00    +0.004 A 
ATOM     33  C   UNL     1       2.082  -4.196   0.249  0.00  0.00    +0.004 A 
ATOM     34  C   UNL     1       2.535  -2.744  -2.090  0.00  0.00    +0.000 A 
ATOM     35  C   UNL     1       3.375  -4.083  -0.263  0.00  0.00    +0.000 A 
ATOM     36  C   UNL     1       3.601  -3.358  -1.432  0.00  0.00    +0.000 A 
ENDBRANCH  25  27
ENDBRANCH  22  25
ENDBRANCH  13  22
ENDBRANCH  17  20
BRANCH  15  12
ATOM     12  N   UNL     1       1.797   2.771  -1.244  0.00  0.00    -0.186 NA
ATOM     38  H   UNL     1       1.968   3.784  -1.198  0.00  0.00    +0.148 HD
BRANCH  12   1
ATOM      1  S   UNL     1       3.151   1.804  -1.642  0.00  0.00    +0.065 S 
ATOM      6  O   UNL     1       4.009   2.530  -2.558  0.00  0.00    -0.153 OA
ATOM      7  O   UNL     1       2.694   0.461  -1.941  0.00  0.00    -0.153 OA
BRANCH   1  24
ATOM      3  S   UNL     1       4.912   3.015   0.395  0.00  0.00    -0.077 S 
ATOM     24  C   UNL     1       4.115   1.599  -0.145  0.00  0.00    +0.142 A 
ATOM     28  C   UNL     1       4.356   0.523   0.681  0.00  0.00    +0.036 A 
ATOM     29  C   UNL     1       5.207   0.866   1.771  0.00  0.00    +0.010 A 
ATOM     31  C   UNL     1       5.584   2.190   1.737  0.00  0.00    +0.047 A 
ENDBRANCH   1  24
ENDBRANCH  12   1
ENDBRANCH  15  12
BRANCH  21  23
ATOM     23  C   UNL     1      -4.173   1.423   0.627  0.00  0.00    +0.165 C 
BRANCH  23   2
ATOM      2  S   UNL     1      -4.721   2.261  -0.867  0.00  0.00    -0.140 S 
BRANCH   2  30
ATOM     30  C   UNL     1      -5.907   1.028  -1.459  0.00  0.00    +0.189 C 
BRANCH  30  37
ATOM     10  O   UNL     1      -4.111   0.069  -2.748  0.00  0.00    -0.250 OA
ATOM     37  C   UNL     1      -5.170  -0.081  -2.152  0.00  0.00    +0.315 C 
BRANCH  37   9
ATOM      9  O   UNL     1      -5.795  -1.280  -2.034  0.00  0.00    -0.480 OA
ATOM     42  H   UNL     1      -5.300  -1.997  -2.484  0.00  0.00    +0.295 HD
ENDBRANCH  37   9
ENDBRANCH  30  37
ENDBRANCH   2  30
ENDBRANCH  23   2
ENDBRANCH  21  23
TORSDOF 13
