REMARK  Name = 45361513
REMARK  12 active torsions:
REMARK  status: ('A' for Active; 'I' for Inactive)
REMARK    1  A    between atoms: O_1  and  C_11
REMARK    2  A    between atoms: N_5  and  C_15
REMARK    3  A    between atoms: N_6  and  C_25
REMARK    4  A    between atoms: N_7  and  C_27
REMARK    5  A    between atoms: C_8  and  C_18
REMARK    6  A    between atoms: C_10  and  C_20
REMARK    7  A    between atoms: C_14  and  C_19
REMARK    8  A    between atoms: C_19  and  C_21
REMARK    9  A    between atoms: C_19  and  C_22
REMARK   10  A    between atoms: C_23  and  C_24
REMARK   11  A    between atoms: C_24  and  C_26
REMARK   12  A    between atoms: C_25  and  C_27
REMARK                            x       y       z     vdW  Elec       q    Type
REMARK                         _______ _______ _______ _____ _____    ______ ____
ROOT
ATOM      8  C   UNL     1       0.406  -1.593  -1.494  0.00  0.00    -0.027 C 
ATOM      9  C   UNL     1       0.741  -0.894  -0.134  0.00  0.00    +0.028 C 
ATOM     10  C   UNL     1       2.272  -1.015   0.195  0.00  0.00    +0.012 C 
ATOM     11  C   UNL     1      -0.224  -1.364   0.993  0.00  0.00    +0.122 C 
ATOM     12  C   UNL     1      -1.083  -1.359  -1.842  0.00  0.00    +0.007 C 
ATOM     13  C   UNL     1       1.258  -0.950  -2.613  0.00  0.00    +0.009 C 
ATOM     14  C   UNL     1      -1.713  -1.225   0.598  0.00  0.00    +0.029 C 
ATOM     15  C   UNL     1       3.120  -0.434  -0.971  0.00  0.00    +0.076 C 
ATOM     16  C   UNL     1      -2.031  -1.853  -0.758  0.00  0.00    +0.007 C 
ATOM     17  C   UNL     1       2.753  -1.013  -2.337  0.00  0.00    +0.023 C 
ATOM     18  C   UNL     1       0.676  -3.119  -1.460  0.00  0.00    +0.011 C 
ATOM     20  C   UNL     1       2.676  -0.323   1.508  0.00  0.00    +0.010 C 
ENDROOT
BRANCH  15   5
ATOM      3  O   UNL     1       5.255   1.295  -1.828  0.00  0.00    -0.275 OA
ATOM      5  N   UNL     1       4.538  -0.633  -0.754  0.00  0.00    -0.312 N 
ATOM     23  C   UNL     1       5.493   0.262  -1.208  0.00  0.00    +0.218 C 
ATOM     37  H   UNL     1       4.829  -1.497  -0.306  0.00  0.00    +0.149 HD
BRANCH  23  24
ATOM     24  C   UNL     1       6.893  -0.189  -0.839  0.00  0.00    +0.130 C 
BRANCH  24  26
ATOM     26  C   UNL     1       7.627   0.796   0.032  0.00  0.00    -0.039 A 
ATOM     28  C   UNL     1       8.402   1.799  -0.550  0.00  0.00    +0.004 A 
ATOM     29  C   UNL     1       7.531   0.706   1.421  0.00  0.00    +0.004 A 
ATOM     32  C   UNL     1       9.082   2.712   0.257  0.00  0.00    +0.000 A 
ATOM     33  C   UNL     1       8.210   1.619   2.228  0.00  0.00    +0.000 A 
ATOM     36  C   UNL     1       8.986   2.622   1.645  0.00  0.00    +0.000 A 
ENDBRANCH  24  26
ENDBRANCH  23  24
ENDBRANCH  15   5
BRANCH  11   1
ATOM      1  O   UNL     1      -0.032  -0.554   2.154  0.00  0.00    -0.391 OA
ATOM     38  H   UNL     1      -0.220   0.368   1.913  0.00  0.00    +0.210 HD
ENDBRANCH  11   1
BRANCH  14  19
ATOM     19  C   UNL     1      -2.643  -1.813   1.666  0.00  0.00    +0.077 C 
ATOM     21  C   UNL     1      -2.335  -3.292   1.873  0.00  0.00    +0.017 C 
BRANCH  19  22
ATOM      2  O   UNL     1      -4.737  -2.425   0.615  0.00  0.00    -0.276 OA
ATOM      6  N   UNL     1      -4.600  -0.384   1.709  0.00  0.00    -0.314 N 
ATOM     22  C   UNL     1      -4.098  -1.599   1.264  0.00  0.00    +0.216 C 
ATOM     39  H   UNL     1      -3.994   0.248   2.224  0.00  0.00    +0.149 HD
BRANCH   6  25
ATOM     25  C   UNL     1      -5.955   0.044   1.450  0.00  0.00    +0.119 C 
BRANCH  25  27
ATOM     27  C   UNL     1      -6.045   0.825   0.147  0.00  0.00    +0.103 C 
BRANCH  27   7
ATOM      4  O   UNL     1      -9.360   3.182  -0.890  0.00  0.00    -0.377 OA
ATOM      7  N   UNL     1      -7.421   1.256  -0.091  0.00  0.00    -0.297 NA
ATOM     30  C   UNL     1      -7.764   2.402   0.763  0.00  0.00    +0.112 C 
ATOM     31  C   UNL     1      -7.621   1.605  -1.505  0.00  0.00    +0.112 C 
ATOM     34  C   UNL     1      -9.199   2.842   0.488  0.00  0.00    +0.175 C 
ATOM     35  C   UNL     1      -9.060   2.064  -1.727  0.00  0.00    +0.175 C 
ENDBRANCH  27   7
ENDBRANCH  25  27
ENDBRANCH   6  25
ENDBRANCH  19  22
ENDBRANCH  14  19
TORSDOF 9
