REMARK  Name = 11886002
REMARK  8 active torsions:
REMARK  status: ('A' for Active; 'I' for Inactive)
REMARK    1  A    between atoms: S_1  and  C_18
REMARK    2  A    between atoms: S_1  and  C_20
REMARK    3  A    between atoms: O_4  and  C_15
REMARK    4  A    between atoms: O_4  and  C_19
REMARK    5  A    between atoms: O_6  and  C_30
REMARK    6  A    between atoms: O_6  and  C_32
REMARK    7  A    between atoms: N_7  and  C_14
REMARK    8  A    between atoms: N_11  and  C_21
REMARK                            x       y       z     vdW  Elec       q    Type
REMARK                         _______ _______ _______ _____ _____    ______ ____
ROOT
ATOM      2  O   UNL     1      -1.517   1.961   0.815  0.00  0.00    -0.368 OA
ATOM      3  O   UNL     1      -2.613   1.799  -2.071  0.00  0.00    -0.368 OA
ATOM     12  C   UNL     1      -2.757   0.927  -0.928  0.00  0.00    +0.177 C 
ATOM     13  C   UNL     1      -1.430   0.943  -0.195  0.00  0.00    +0.192 C 
ATOM     14  C   UNL     1      -3.741   1.533   0.053  0.00  0.00    +0.168 C 
ATOM     15  C   UNL     1      -0.453   1.319  -1.283  0.00  0.00    +0.235 C 
ATOM     16  C   UNL     1      -2.860   2.461   0.883  0.00  0.00    +0.190 C 
ATOM     17  C   UNL     1      -1.264   2.283  -2.118  0.00  0.00    +0.207 C 
ENDROOT
BRANCH  14   7
ATOM      7  N   UNL     1      -4.474   0.518   0.813  0.00  0.00    -0.212 N 
ATOM      8  N   UNL     1      -3.977   0.043   1.963  0.00  0.00    -0.043 NA
ATOM      9  N   UNL     1      -5.929  -0.932   1.508  0.00  0.00    -0.101 NA
ATOM     10  N   UNL     1      -4.871  -0.843   2.384  0.00  0.00    -0.022 NA
ATOM     18  C   UNL     1      -5.663  -0.081   0.544  0.00  0.00    +0.214 A 
BRANCH  18   1
ATOM      1  S   UNL     1      -6.617   0.261  -0.846  0.00  0.00    -0.049 S 
BRANCH   1  20
ATOM     20  C   UNL     1      -7.990  -0.855  -0.549  0.00  0.00    +0.016 A 
ATOM     22  C   UNL     1      -9.100  -0.418   0.176  0.00  0.00    +0.015 A 
ATOM     23  C   UNL     1      -7.949  -2.158  -1.043  0.00  0.00    +0.015 A 
ATOM     26  C   UNL     1     -10.167  -1.286   0.406  0.00  0.00    +0.001 A 
ATOM     27  C   UNL     1      -9.017  -3.026  -0.813  0.00  0.00    +0.001 A 
ATOM     31  C   UNL     1     -10.126  -2.590  -0.088  0.00  0.00    +0.000 A 
ENDBRANCH   1  20
ENDBRANCH  18   1
ENDBRANCH  14   7
BRANCH  15   4
ATOM      4  O   UNL     1       0.734   1.904  -0.798  0.00  0.00    -0.442 OA
BRANCH   4  19
ATOM      5  O   UNL     1       1.739  -0.150  -0.769  0.00  0.00    -0.226 OA
ATOM     11  N   UNL     1       2.875   1.785  -0.100  0.00  0.00    -0.251 N 
ATOM     19  C   UNL     1       1.798   1.057  -0.569  0.00  0.00    +0.405 C 
ATOM     38  H   UNL     1       2.731   2.787   0.001  0.00  0.00    +0.158 HD
BRANCH  11  21
ATOM     21  C   UNL     1       4.157   1.309   0.258  0.00  0.00    +0.037 A 
ATOM     24  C   UNL     1       5.128   2.200   0.716  0.00  0.00    +0.027 A 
ATOM     25  C   UNL     1       4.450  -0.051   0.155  0.00  0.00    +0.027 A 
ATOM     28  C   UNL     1       6.393   1.730   1.070  0.00  0.00    +0.048 A 
ATOM     29  C   UNL     1       5.715  -0.520   0.509  0.00  0.00    +0.048 A 
ATOM     30  C   UNL     1       6.687   0.370   0.967  0.00  0.00    +0.129 A 
BRANCH  30   6
ATOM      6  O   UNL     1       7.920  -0.088   1.314  0.00  0.00    -0.456 OA
BRANCH   6  32
ATOM     32  C   UNL     1       8.535  -0.991   0.463  0.00  0.00    +0.128 A 
ATOM     33  C   UNL     1       8.530  -0.767  -0.913  0.00  0.00    +0.046 A 
ATOM     34  C   UNL     1       9.158  -2.125   0.983  0.00  0.00    +0.046 A 
ATOM     35  C   UNL     1       9.148  -1.677  -1.771  0.00  0.00    +0.004 A 
ATOM     36  C   UNL     1       9.777  -3.035   0.125  0.00  0.00    +0.004 A 
ATOM     37  C   UNL     1       9.771  -2.811  -1.252  0.00  0.00    +0.000 A 
ENDBRANCH   6  32
ENDBRANCH  30   6
ENDBRANCH  11  21
ENDBRANCH   4  19
ENDBRANCH  15   4
TORSDOF 8
