REMARK  Name = 44716630
REMARK  7 active torsions:
REMARK  status: ('A' for Active; 'I' for Inactive)
REMARK    1  A    between atoms: O_3  and  C_10
REMARK    2  A    between atoms: N_7  and  C_28
REMARK    3  A    between atoms: C_8  and  C_16
REMARK    4  A    between atoms: C_11  and  C_17
REMARK    5  A    between atoms: C_13  and  C_20
REMARK    6  A    between atoms: C_17  and  C_21
REMARK    7  A    between atoms: C_17  and  C_22
REMARK                            x       y       z     vdW  Elec       q    Type
REMARK                         _______ _______ _______ _____ _____    ______ ____
ROOT
ATOM      1  S   UNL     1       4.945  -0.091   1.943  0.00  0.00    -0.057 S 
ATOM      5  N   UNL     1       4.784  -0.471  -0.609  0.00  0.00    -0.229 NA
ATOM      7  N   UNL     1       6.951  -0.706   0.308  0.00  0.00    -0.327 N 
ATOM      8  C   UNL     1       1.098   0.968   0.944  0.00  0.00    -0.022 C 
ATOM      9  C   UNL     1       0.976  -0.008  -0.292  0.00  0.00    +0.033 C 
ATOM     10  C   UNL     1      -0.245   0.355  -1.183  0.00  0.00    +0.123 C 
ATOM     11  C   UNL     1      -1.558   0.474  -0.378  0.00  0.00    +0.029 C 
ATOM     12  C   UNL     1      -0.247   1.013   1.707  0.00  0.00    +0.008 C 
ATOM     13  C   UNL     1       2.335  -0.116  -1.098  0.00  0.00    +0.042 C 
ATOM     14  C   UNL     1      -1.423   1.407   0.825  0.00  0.00    +0.007 C 
ATOM     15  C   UNL     1       2.179   0.433   1.934  0.00  0.00    +0.051 C 
ATOM     16  C   UNL     1       1.480   2.408   0.512  0.00  0.00    +0.012 C 
ATOM     18  C   UNL     1       3.509  -0.192  -0.151  0.00  0.00    +0.057 A 
ATOM     19  C   UNL     1       3.421   0.066   1.201  0.00  0.00    +0.015 A 
ATOM     20  C   UNL     1       2.370  -1.304  -2.071  0.00  0.00    +0.014 C 
ATOM     23  C   UNL     1       5.618  -0.457   0.407  0.00  0.00    +0.158 A 
ATOM     28  C   UNL     1       7.643  -1.024  -0.936  0.00  0.00    +0.127 C 
ATOM     30  H   UNL     1       7.529  -0.675   1.144  0.00  0.00    +0.148 HD
ENDROOT
BRANCH  10   3
ATOM      3  O   UNL     1      -0.439  -0.666  -2.160  0.00  0.00    -0.391 OA
ATOM     29  H   UNL     1      -0.616  -1.500  -1.694  0.00  0.00    +0.210 HD
ENDBRANCH  10   3
BRANCH  11  17
ATOM     17  C   UNL     1      -2.726   0.936  -1.258  0.00  0.00    +0.078 C 
ATOM     21  C   UNL     1      -2.455   2.306  -1.852  0.00  0.00    +0.017 C 
BRANCH  17  22
ATOM      2  S   UNL     1      -5.318  -2.807   1.321  0.00  0.00    -0.158 S 
ATOM      4  O   UNL     1      -4.290   2.025   0.150  0.00  0.00    -0.275 OA
ATOM      6  N   UNL     1      -4.713  -0.208  -0.335  0.00  0.00    -0.300 N 
ATOM     22  C   UNL     1      -3.977   0.974  -0.416  0.00  0.00    +0.219 C 
ATOM     24  C   UNL     1      -5.940  -0.247   0.464  0.00  0.00    +0.118 C 
ATOM     25  C   UNL     1      -4.305  -1.500  -0.900  0.00  0.00    +0.118 C 
ATOM     26  C   UNL     1      -5.753  -1.084   1.724  0.00  0.00    +0.088 C 
ATOM     27  C   UNL     1      -3.919  -2.483   0.199  0.00  0.00    +0.088 C 
ENDBRANCH  17  22
ENDBRANCH  11  17
TORSDOF 3
