REMARK  Name = 44716885
REMARK  14 active torsions:
REMARK  status: ('A' for Active; 'I' for Inactive)
REMARK    1  A    between atoms: O_1  and  C_15
REMARK    2  A    between atoms: O_1  and  C_24
REMARK    3  A    between atoms: O_2  and  C_16
REMARK    4  A    between atoms: O_3  and  C_20
REMARK    5  A    between atoms: N_7  and  C_25
REMARK    6  A    between atoms: N_8  and  C_26
REMARK    7  A    between atoms: C_9  and  C_19
REMARK    8  A    between atoms: C_11  and  C_20
REMARK    9  A    between atoms: C_11  and  C_21
REMARK   10  A    between atoms: C_12  and  C_22
REMARK   11  A    between atoms: C_22  and  C_23
REMARK   12  A    between atoms: C_25  and  C_27
REMARK   13  A    between atoms: C_26  and  C_28
REMARK   14  A    between atoms: C_26  and  C_29
REMARK                            x       y       z     vdW  Elec       q    Type
REMARK                         _______ _______ _______ _____ _____    ______ ____
ROOT
ATOM      9  C   UNL     1       0.098  -0.567   0.478  0.00  0.00    -0.023 C 
ATOM     10  C   UNL     1       0.944  -1.512  -0.461  0.00  0.00    +0.007 C 
ATOM     11  C   UNL     1       2.505  -1.514  -0.242  0.00  0.00    +0.031 C 
ATOM     12  C   UNL     1      -1.362  -0.493  -0.134  0.00  0.00    +0.032 C 
ATOM     13  C   UNL     1       0.734   0.849   0.452  0.00  0.00    +0.011 C 
ATOM     14  C   UNL     1       0.304  -2.915  -0.552  0.00  0.00    +0.007 C 
ATOM     15  C   UNL     1       3.011  -0.040  -0.207  0.00  0.00    +0.186 C 
ATOM     16  C   UNL     1      -2.018  -1.880  -0.330  0.00  0.00    +0.119 C 
ATOM     17  C   UNL     1       2.230   0.857   0.747  0.00  0.00    +0.046 C 
ATOM     18  C   UNL     1      -1.120  -2.841  -1.105  0.00  0.00    +0.032 C 
ATOM     19  C   UNL     1       0.047  -1.042   1.951  0.00  0.00    +0.012 C 
ATOM     21  C   UNL     1       3.188  -2.212  -1.454  0.00  0.00    +0.017 C 
ENDROOT
BRANCH  16   2
ATOM      2  O   UNL     1      -2.372  -2.457   0.923  0.00  0.00    -0.391 OA
ATOM     33  H   UNL     1      -2.804  -3.310   0.745  0.00  0.00    +0.210 HD
ENDBRANCH  16   2
BRANCH  15   1
ATOM      1  O   UNL     1       4.385   0.040   0.172  0.00  0.00    -0.446 OA
BRANCH   1  24
ATOM      5  O   UNL     1       4.622   1.933  -1.108  0.00  0.00    -0.226 OA
ATOM      8  N   UNL     1       6.396   1.043   0.093  0.00  0.00    -0.279 N 
ATOM     24  C   UNL     1       5.092   1.088  -0.353  0.00  0.00    +0.401 C 
ATOM     36  H   UNL     1       6.644   0.313   0.755  0.00  0.00    +0.152 HD
BRANCH   8  26
ATOM     26  C   UNL     1       7.405   2.008  -0.278  0.00  0.00    +0.070 C 
ATOM     28  C   UNL     1       8.777   1.349  -0.324  0.00  0.00    +0.027 C 
ATOM     29  C   UNL     1       7.392   3.191   0.682  0.00  0.00    +0.027 C 
ENDBRANCH   8  26
ENDBRANCH   1  24
ENDBRANCH  15   1
BRANCH  11  20
ATOM     20  C   UNL     1       2.965  -2.297   1.004  0.00  0.00    +0.166 C 
BRANCH  20   3
ATOM      3  O   UNL     1       4.327  -2.624   0.833  0.00  0.00    -0.394 OA
ATOM     34  H   UNL     1       4.607  -3.120   1.621  0.00  0.00    +0.209 HD
ENDBRANCH  20   3
ENDBRANCH  11  20
BRANCH  12  22
ATOM     22  C   UNL     1      -2.329   0.440   0.612  0.00  0.00    +0.102 C 
BRANCH  22  23
ATOM      4  O   UNL     1      -3.590   0.572  -1.449  0.00  0.00    -0.276 OA
ATOM      7  N   UNL     1      -4.328   1.732   0.425  0.00  0.00    -0.308 N 
ATOM     23  C   UNL     1      -3.465   0.899  -0.272  0.00  0.00    +0.214 C 
ATOM     35  H   UNL     1      -4.145   1.929   1.405  0.00  0.00    +0.149 HD
BRANCH   7  25
ATOM     25  C   UNL     1      -5.505   2.324  -0.169  0.00  0.00    +0.178 C 
BRANCH  25  27
ATOM      6  O   UNL     1      -7.350   1.043  -1.098  0.00  0.00    -0.466 OA
ATOM     27  C   UNL     1      -6.724   1.472   0.030  0.00  0.00    +0.122 A 
ATOM     30  C   UNL     1      -7.376   1.009   1.149  0.00  0.00    +0.046 A 
ATOM     31  C   UNL     1      -8.472   0.246   0.679  0.00  0.00    +0.041 A 
ATOM     32  C   UNL     1      -8.412   0.298  -0.694  0.00  0.00    +0.195 A 
ENDBRANCH  25  27
ENDBRANCH   7  25
ENDBRANCH  22  23
ENDBRANCH  12  22
TORSDOF 10
