REMARK  Name = 26744120
REMARK  8 active torsions:
REMARK  status: ('A' for Active; 'I' for Inactive)
REMARK    1  A    between atoms: O_4  and  C_12
REMARK    2  A    between atoms: O_6  and  C_21
REMARK    3  A    between atoms: O_6  and  C_29
REMARK    4  A    between atoms: N_7  and  C_14
REMARK    5  A    between atoms: C_10  and  C_15
REMARK    6  A    between atoms: C_14  and  C_16
REMARK    7  A    between atoms: C_17  and  C_20
REMARK    8  A    between atoms: C_20  and  C_24
REMARK                            x       y       z     vdW  Elec       q    Type
REMARK                         _______ _______ _______ _____ _____    ______ ____
ROOT
ATOM      7  N   UNL     1       3.111   0.429   0.808  0.00  0.00    -0.285 NA
ATOM     10  C   UNL     1       3.043   0.466  -0.667  0.00  0.00    +0.149 C 
ATOM     11  C   UNL     1       4.307  -0.277  -1.138  0.00  0.00    +0.061 C 
ATOM     12  C   UNL     1       5.044  -0.652   0.142  0.00  0.00    +0.130 C 
ATOM     13  C   UNL     1       4.528   0.352   1.155  0.00  0.00    +0.116 C 
ENDROOT
BRANCH  10  15
ATOM      5  O   UNL     1       0.995   0.649  -1.990  0.00  0.00    -0.336 OA
ATOM      8  N   UNL     1       1.287  -1.353  -1.030  0.00  0.00    -0.194 NA
ATOM      9  N   UNL     1      -0.110  -0.126  -2.362  0.00  0.00    -0.061 NA
ATOM     15  C   UNL     1       1.768  -0.148  -1.207  0.00  0.00    +0.245 A 
ATOM     17  C   UNL     1       0.134  -1.292  -1.757  0.00  0.00    +0.176 A 
BRANCH  17  20
ATOM     20  C   UNL     1      -0.782  -2.432  -1.868  0.00  0.00    +0.114 C 
BRANCH  20  24
ATOM     24  C   UNL     1      -1.675  -2.656  -0.651  0.00  0.00    -0.040 A 
ATOM     25  C   UNL     1      -1.168  -3.305   0.475  0.00  0.00    +0.004 A 
ATOM     26  C   UNL     1      -2.997  -2.213  -0.665  0.00  0.00    +0.004 A 
ATOM     27  C   UNL     1      -1.984  -3.510   1.588  0.00  0.00    +0.000 A 
ATOM     28  C   UNL     1      -3.813  -2.417   0.448  0.00  0.00    +0.000 A 
ATOM     30  C   UNL     1      -3.306  -3.066   1.574  0.00  0.00    +0.000 A 
ENDBRANCH  20  24
ENDBRANCH  17  20
ENDBRANCH  10  15
BRANCH  12   4
ATOM      4  O   UNL     1       6.443  -0.547  -0.035  0.00  0.00    -0.390 OA
ATOM     31  H   UNL     1       6.694  -1.160  -0.747  0.00  0.00    +0.210 HD
ENDBRANCH  12   4
BRANCH   7  14
ATOM     14  C   UNL     1       2.451   1.564   1.441  0.00  0.00    +0.120 C 
BRANCH  14  16
ATOM     16  C   UNL     1       0.957   1.387   1.494  0.00  0.00    -0.030 A 
ATOM     18  C   UNL     1       0.122   2.323   0.884  0.00  0.00    +0.051 A 
ATOM     19  C   UNL     1       0.408   0.286   2.151  0.00  0.00    +0.005 A 
ATOM     21  C   UNL     1      -1.262   2.158   0.932  0.00  0.00    +0.130 A 
ATOM     22  C   UNL     1      -0.976   0.121   2.199  0.00  0.00    +0.004 A 
ATOM     23  C   UNL     1      -1.811   1.057   1.589  0.00  0.00    +0.046 A 
BRANCH  21   6
ATOM      6  O   UNL     1      -2.077   3.072   0.337  0.00  0.00    -0.406 OA
BRANCH   6  29
ATOM      1  F   UNL     1      -3.124   3.635  -1.582  0.00  0.00    -0.133 F 
ATOM      2  F   UNL     1      -2.412   1.580  -1.364  0.00  0.00    -0.133 F 
ATOM      3  F   UNL     1      -4.156   2.287  -0.205  0.00  0.00    -0.133 F 
ATOM     29  C   UNL     1      -2.946   2.626  -0.698  0.00  0.00    +0.575 C 
ENDBRANCH   6  29
ENDBRANCH  21   6
ENDBRANCH  14  16
ENDBRANCH   7  14
TORSDOF 8
