REMARK  Name = 45361391
REMARK  16 active torsions:
REMARK  status: ('A' for Active; 'I' for Inactive)
REMARK    1  A    between atoms: O_1  and  C_12
REMARK    2  A    between atoms: O_4  and  C_32
REMARK    3  A    between atoms: O_4  and  C_38
REMARK    4  A    between atoms: O_5  and  C_35
REMARK    5  A    between atoms: O_5  and  C_39
REMARK    6  A    between atoms: O_6  and  C_37
REMARK    7  A    between atoms: O_6  and  C_40
REMARK    8  A    between atoms: N_7  and  C_16
REMARK    9  A    between atoms: N_8  and  C_26
REMARK   10  A    between atoms: C_9  and  C_19
REMARK   11  A    between atoms: C_11  and  C_21
REMARK   12  A    between atoms: C_15  and  C_20
REMARK   13  A    between atoms: C_20  and  C_22
REMARK   14  A    between atoms: C_20  and  C_23
REMARK   15  A    between atoms: C_24  and  C_25
REMARK   16  A    between atoms: C_26  and  C_29
REMARK                            x       y       z     vdW  Elec       q    Type
REMARK                         _______ _______ _______ _____ _____    ______ ____
ROOT
ATOM      9  C   UNL     1      -0.143   0.325   1.082  0.00  0.00    -0.027 C 
ATOM     10  C   UNL     1      -0.628  -0.625  -0.062  0.00  0.00    +0.028 C 
ATOM     11  C   UNL     1      -2.187  -0.811  -0.013  0.00  0.00    +0.012 C 
ATOM     12  C   UNL     1       0.201  -1.942  -0.091  0.00  0.00    +0.122 C 
ATOM     13  C   UNL     1       1.376   0.576   0.936  0.00  0.00    +0.007 C 
ATOM     14  C   UNL     1      -0.861   1.688   0.944  0.00  0.00    +0.009 C 
ATOM     15  C   UNL     1       1.726  -1.683  -0.132  0.00  0.00    +0.029 C 
ATOM     16  C   UNL     1      -2.896   0.571  -0.078  0.00  0.00    +0.076 C 
ATOM     17  C   UNL     1       2.194  -0.708   0.948  0.00  0.00    +0.007 C 
ATOM     18  C   UNL     1      -2.378   1.569   0.958  0.00  0.00    +0.023 C 
ATOM     19  C   UNL     1      -0.419  -0.255   2.493  0.00  0.00    +0.011 C 
ATOM     21  C   UNL     1      -2.736  -1.713  -1.131  0.00  0.00    +0.010 C 
ENDROOT
BRANCH  16   7
ATOM      3  O   UNL     1      -4.905   1.296  -1.997  0.00  0.00    -0.270 OA
ATOM      7  N   UNL     1      -4.330   0.447   0.083  0.00  0.00    -0.308 N 
ATOM     24  C   UNL     1      -5.221   0.826  -0.907  0.00  0.00    +0.244 C 
ATOM     41  H   UNL     1      -4.657   0.018   0.942  0.00  0.00    +0.149 HD
BRANCH  24  25
ATOM     25  C   UNL     1      -6.660   0.659  -0.578  0.00  0.00    +0.037 A 
ATOM     27  C   UNL     1      -7.590   0.460  -1.598  0.00  0.00    +0.016 A 
ATOM     28  C   UNL     1      -7.081   0.704   0.751  0.00  0.00    +0.016 A 
ATOM     30  C   UNL     1      -8.941   0.306  -1.289  0.00  0.00    +0.046 A 
ATOM     31  C   UNL     1      -8.432   0.550   1.060  0.00  0.00    +0.046 A 
ATOM     32  C   UNL     1      -9.363   0.351   0.040  0.00  0.00    +0.120 A 
BRANCH  32   4
ATOM      4  O   UNL     1     -10.681   0.200   0.342  0.00  0.00    -0.495 OA
ATOM     38  C   UNL     1     -11.042   0.257   1.721  0.00  0.00    +0.277 C 
ENDBRANCH  32   4
ENDBRANCH  24  25
ENDBRANCH  16   7
BRANCH  12   1
ATOM      1  O   UNL     1      -0.119  -2.682  -1.270  0.00  0.00    -0.391 OA
ATOM     42  H   UNL     1       0.094  -2.130  -2.041  0.00  0.00    +0.210 HD
ENDBRANCH  12   1
BRANCH  15  20
ATOM     20  C   UNL     1       2.526  -2.987  -0.027  0.00  0.00    +0.077 C 
ATOM     22  C   UNL     1       2.193  -3.705   1.276  0.00  0.00    +0.017 C 
BRANCH  20  23
ATOM      2  O   UNL     1       4.820  -2.991   0.750  0.00  0.00    -0.276 OA
ATOM      8  N   UNL     1       4.351  -2.053  -1.319  0.00  0.00    -0.311 N 
ATOM     23  C   UNL     1       4.019  -2.690  -0.133  0.00  0.00    +0.216 C 
ATOM     43  H   UNL     1       3.639  -1.886  -2.022  0.00  0.00    +0.149 HD
BRANCH   8  26
ATOM     26  C   UNL     1       5.705  -1.668  -1.647  0.00  0.00    +0.139 C 
BRANCH  26  29
ATOM     29  C   UNL     1       6.026  -0.282  -1.167  0.00  0.00    -0.027 A 
ATOM     33  C   UNL     1       6.827  -0.103  -0.039  0.00  0.00    +0.054 A 
ATOM     34  C   UNL     1       5.524   0.827  -1.849  0.00  0.00    +0.009 A 
ATOM     35  C   UNL     1       7.125   1.185   0.407  0.00  0.00    +0.162 A 
ATOM     36  C   UNL     1       5.823   2.114  -1.403  0.00  0.00    +0.050 A 
ATOM     37  C   UNL     1       6.624   2.293  -0.275  0.00  0.00    +0.162 A 
BRANCH  35   5
ATOM      5  O   UNL     1       7.909   1.347   1.510  0.00  0.00    -0.491 OA
ATOM     39  C   UNL     1       8.381   0.162   2.149  0.00  0.00    +0.277 C 
ENDBRANCH  35   5
BRANCH  37   6
ATOM      6  O   UNL     1       6.907   3.555   0.152  0.00  0.00    -0.491 OA
ATOM     40  C   UNL     1       6.355   4.633  -0.602  0.00  0.00    +0.277 C 
ENDBRANCH  37   6
ENDBRANCH  26  29
ENDBRANCH   8  26
ENDBRANCH  20  23
ENDBRANCH  15  20
TORSDOF 10
