REMARK  Name = 38027050
REMARK  15 active torsions:
REMARK  status: ('A' for Active; 'I' for Inactive)
REMARK    1  A    between atoms: O_4  and  C_29
REMARK    2  A    between atoms: O_4  and  C_30
REMARK    3  A    between atoms: N_5  and  C_15
REMARK    4  A    between atoms: N_6  and  C_22
REMARK    5  A    between atoms: N_7  and  C_23
REMARK    6  A    between atoms: C_8  and  C_12
REMARK    7  A    between atoms: C_9  and  C_15
REMARK    8  A    between atoms: C_11  and  C_16
REMARK    9  A    between atoms: C_12  and  C_17
REMARK   10  A    between atoms: C_12  and  C_18
REMARK   11  A    between atoms: C_13  and  C_19
REMARK   12  A    between atoms: C_16  and  C_20
REMARK   13  A    between atoms: C_21  and  C_24
REMARK   14  A    between atoms: C_22  and  C_23
REMARK   15  A    between atoms: C_24  and  C_29
REMARK                            x       y       z     vdW  Elec       q    Type
REMARK                         _______ _______ _______ _____ _____    ______ ____
ROOT
ATOM      8  C   UNL     1      -2.507  -0.778  -1.185  0.00  0.00    +0.000 C 
ATOM      9  C   UNL     1      -3.931  -1.076  -0.653  0.00  0.00    +0.032 C 
ATOM     10  C   UNL     1      -1.561  -1.946  -0.867  0.00  0.00    +0.012 C 
ATOM     11  C   UNL     1      -1.468  -2.225   0.644  0.00  0.00    +0.023 C 
ATOM     13  C   UNL     1      -2.836  -2.267   1.294  0.00  0.00    -0.073 C 
ATOM     14  C   UNL     1      -3.928  -1.761   0.694  0.00  0.00    -0.022 C 
ATOM     19  C   UNL     1      -2.929  -2.946   2.632  0.00  0.00    +0.039 C 
ENDROOT
BRANCH   8  12
ATOM     12  C   UNL     1      -2.509  -0.507  -2.693  0.00  0.00    -0.013 C 
ATOM     17  C   UNL     1      -1.301   0.339  -3.083  0.00  0.00    +0.007 C 
ATOM     18  C   UNL     1      -2.523  -1.820  -3.469  0.00  0.00    +0.007 C 
ENDBRANCH   8  12
BRANCH   9  15
ATOM     15  C   UNL     1      -4.771   0.204  -0.573  0.00  0.00    +0.112 C 
BRANCH  15   5
ATOM      2  O   UNL     1      -3.813   2.889  -1.021  0.00  0.00    -0.276 OA
ATOM      5  N   UNL     1      -4.236   1.101   0.403  0.00  0.00    -0.315 N 
ATOM     21  C   UNL     1      -3.793   2.390   0.101  0.00  0.00    +0.215 C 
ATOM     31  H   UNL     1      -4.224   0.799   1.373  0.00  0.00    +0.149 HD
BRANCH  21  24
ATOM     24  C   UNL     1      -3.277   3.120   1.331  0.00  0.00    +0.124 C 
BRANCH  24  29
ATOM     29  C   UNL     1      -1.790   2.906   1.568  0.00  0.00    +0.168 C 
BRANCH  29   4
ATOM      4  O   UNL     1      -1.058   3.415   0.461  0.00  0.00    -0.382 OA
ATOM     30  C   UNL     1       0.342   3.246   0.641  0.00  0.00    +0.194 C 
ENDBRANCH  29   4
ENDBRANCH  24  29
ENDBRANCH  21  24
ENDBRANCH  15   5
ENDBRANCH   9  15
BRANCH  11  16
ATOM     16  C   UNL     1      -0.561  -1.205   1.341  0.00  0.00    +0.103 C 
BRANCH  16  20
ATOM      1  O   UNL     1       1.310  -2.373   0.347  0.00  0.00    -0.276 OA
ATOM      6  N   UNL     1       1.701  -0.508   1.677  0.00  0.00    -0.314 N 
ATOM     20  C   UNL     1       0.902  -1.452   1.048  0.00  0.00    +0.214 C 
ATOM     32  H   UNL     1       1.265   0.222   2.232  0.00  0.00    +0.149 HD
BRANCH   6  22
ATOM     22  C   UNL     1       3.143  -0.501   1.574  0.00  0.00    +0.119 C 
BRANCH  22  23
ATOM     23  C   UNL     1       3.607   0.336   0.391  0.00  0.00    +0.103 C 
BRANCH  23   7
ATOM      3  O   UNL     1       7.501   0.152  -1.162  0.00  0.00    -0.377 OA
ATOM      7  N   UNL     1       5.065   0.322   0.300  0.00  0.00    -0.297 NA
ATOM     25  C   UNL     1       5.548   1.441  -0.521  0.00  0.00    +0.112 C 
ATOM     26  C   UNL     1       5.541  -0.953  -0.256  0.00  0.00    +0.112 C 
ATOM     27  C   UNL     1       7.071   1.398  -0.612  0.00  0.00    +0.175 C 
ATOM     28  C   UNL     1       7.064  -0.939  -0.352  0.00  0.00    +0.175 C 
ENDBRANCH  23   7
ENDBRANCH  22  23
ENDBRANCH   6  22
ENDBRANCH  16  20
ENDBRANCH  11  16
TORSDOF 11
