REMARK  Name = 11867238
REMARK  6 active torsions:
REMARK  status: ('A' for Active; 'I' for Inactive)
REMARK    1  A    between atoms: S_1  and  N_11
REMARK    2  A    between atoms: S_1  and  C_25
REMARK    3  A    between atoms: O_7  and  C_35
REMARK    4  A    between atoms: O_7  and  C_36
REMARK    5  A    between atoms: N_10  and  C_24
REMARK    6  A    between atoms: N_11  and  C_22
REMARK                            x       y       z     vdW  Elec       q    Type
REMARK                         _______ _______ _______ _____ _____    ______ ____
ROOT
ATOM      3  O   UNL     1      -1.272   2.739   1.753  0.00  0.00    -0.266 OA
ATOM      4  O   UNL     1      -3.230  -2.134   1.623  0.00  0.00    -0.252 OA
ATOM      8  N   UNL     1      -4.021  -0.973  -0.216  0.00  0.00    -0.284 N 
ATOM      9  N   UNL     1      -2.605   1.878   0.028  0.00  0.00    -0.310 N 
ATOM     10  N   UNL     1      -2.237  -2.501  -0.440  0.00  0.00    -0.269 N 
ATOM     12  C   UNL     1      -5.058   1.231   0.350  0.00  0.00    +0.027 C 
ATOM     13  C   UNL     1      -3.993   0.914  -1.842  0.00  0.00    +0.054 C 
ATOM     14  C   UNL     1      -5.193   1.540  -1.136  0.00  0.00    +0.018 C 
ATOM     15  C   UNL     1      -5.043  -0.289   0.581  0.00  0.00    +0.114 C 
ATOM     16  C   UNL     1      -3.794   1.910   0.888  0.00  0.00    +0.130 C 
ATOM     17  C   UNL     1      -4.010  -0.617  -1.647  0.00  0.00    +0.119 C 
ATOM     18  C   UNL     1      -2.688   1.482  -1.313  0.00  0.00    +0.027 A 
ATOM     19  C   UNL     1      -1.613   1.571  -2.118  0.00  0.00    +0.024 A 
ATOM     20  C   UNL     1      -1.404   2.362   0.589  0.00  0.00    +0.274 A 
ATOM     21  C   UNL     1      -3.154  -1.891   0.416  0.00  0.00    +0.306 C 
ATOM     22  C   UNL     1      -0.248   2.413  -0.341  0.00  0.00    +0.112 A 
ATOM     23  C   UNL     1      -0.352   2.050  -1.620  0.00  0.00    +0.031 A 
ATOM     37  H   UNL     1      -2.489  -2.610  -1.416  0.00  0.00    +0.156 HD
ENDROOT
BRANCH  10  24
ATOM      2  F   UNL     1       2.687  -4.650   0.914  0.00  0.00    -0.205 F 
ATOM     24  C   UNL     1      -0.977  -3.050  -0.094  0.00  0.00    +0.035 A 
ATOM     26  C   UNL     1      -0.223  -3.712  -1.058  0.00  0.00    +0.026 A 
ATOM     27  C   UNL     1      -0.502  -2.925   1.209  0.00  0.00    +0.026 A 
ATOM     30  C   UNL     1       1.017  -4.253  -0.717  0.00  0.00    +0.040 A 
ATOM     31  C   UNL     1       0.738  -3.466   1.550  0.00  0.00    +0.040 A 
ATOM     32  C   UNL     1       1.497  -4.130   0.587  0.00  0.00    +0.124 A 
ENDBRANCH  10  24
BRANCH  22  11
ATOM     11  N   UNL     1       1.003   2.870   0.109  0.00  0.00    -0.211 N 
ATOM     38  H   UNL     1       1.636   3.127  -0.663  0.00  0.00    +0.174 HD
BRANCH  11   1
ATOM      1  S   UNL     1       1.737   1.998   1.360  0.00  0.00    +0.073 S 
ATOM      5  O   UNL     1       2.100   2.900   2.437  0.00  0.00    -0.150 OA
ATOM      6  O   UNL     1       0.967   0.801   1.638  0.00  0.00    -0.150 OA
BRANCH   1  25
ATOM     25  C   UNL     1       3.237   1.490   0.572  0.00  0.00    +0.109 A 
ATOM     28  C   UNL     1       3.265   0.288  -0.113  0.00  0.00    +0.032 A 
ATOM     29  C   UNL     1       4.353   2.304   0.654  0.00  0.00    +0.032 A 
ATOM     33  C   UNL     1       4.448  -0.113  -0.735  0.00  0.00    +0.047 A 
ATOM     34  C   UNL     1       5.535   1.904   0.032  0.00  0.00    +0.047 A 
ATOM     35  C   UNL     1       5.582   0.695  -0.662  0.00  0.00    +0.120 A 
BRANCH  35   7
ATOM      7  O   UNL     1       6.736   0.304  -1.270  0.00  0.00    -0.495 OA
ATOM     36  C   UNL     1       6.714  -0.942  -1.964  0.00  0.00    +0.277 C 
ENDBRANCH  35   7
ENDBRANCH   1  25
ENDBRANCH  11   1
ENDBRANCH  22  11
TORSDOF 5
