REMARK  Name = 75537028
REMARK  6 active torsions:
REMARK  status: ('A' for Active; 'I' for Inactive)
REMARK    1  A    between atoms: S_1  and  N_7
REMARK    2  A    between atoms: S_1  and  C_16
REMARK    3  A    between atoms: O_5  and  C_17
REMARK    4  A    between atoms: O_5  and  C_23
REMARK    5  A    between atoms: N_8  and  C_15
REMARK    6  A    between atoms: C_15  and  C_17
REMARK                            x       y       z     vdW  Elec       q    Type
REMARK                         _______ _______ _______ _____ _____    ______ ____
ROOT
ATOM      2  O   UNL     1      -3.307   0.737  -1.873  0.00  0.00    -0.252 OA
ATOM      6  N   UNL     1      -1.418   1.399  -0.642  0.00  0.00    -0.278 N 
ATOM      7  N   UNL     1       1.280   1.595   0.061  0.00  0.00    -0.173 NA
ATOM      8  N   UNL     1      -3.225   0.679   0.482  0.00  0.00    -0.281 N 
ATOM      9  C   UNL     1      -1.081   1.598   0.754  0.00  0.00    +0.111 C 
ATOM     10  C   UNL     1       0.304   1.033   1.053  0.00  0.00    +0.133 C 
ATOM     11  C   UNL     1      -2.222   0.916   1.506  0.00  0.00    +0.133 C 
ATOM     12  C   UNL     1      -0.476   1.792  -1.671  0.00  0.00    +0.127 C 
ATOM     13  C   UNL     1       0.909   1.241  -1.349  0.00  0.00    +0.128 C 
ATOM     14  C   UNL     1      -2.724   0.919  -0.812  0.00  0.00    +0.305 C 
ENDROOT
BRANCH   7   1
ATOM      1  S   UNL     1       2.933   1.371   0.459  0.00  0.00    +0.061 S 
ATOM      3  O   UNL     1       3.110   1.589   1.878  0.00  0.00    -0.153 OA
ATOM      4  O   UNL     1       3.747   2.070  -0.511  0.00  0.00    -0.153 OA
BRANCH   1  16
ATOM     16  C   UNL     1       3.090  -0.361   0.154  0.00  0.00    +0.105 A 
ATOM     18  C   UNL     1       3.459  -0.815  -1.112  0.00  0.00    +0.028 A 
ATOM     19  C   UNL     1       2.842  -1.275   1.178  0.00  0.00    +0.028 A 
ATOM     20  C   UNL     1       3.580  -2.183  -1.355  0.00  0.00    +0.002 A 
ATOM     21  C   UNL     1       2.963  -2.643   0.935  0.00  0.00    +0.002 A 
ATOM     22  C   UNL     1       3.331  -3.097  -0.331  0.00  0.00    +0.000 A 
ENDBRANCH   1  16
ENDBRANCH   7   1
BRANCH   8  15
ATOM     15  C   UNL     1      -4.526   0.133   0.798  0.00  0.00    +0.137 C 
BRANCH  15  17
ATOM     17  C   UNL     1      -4.480  -1.378   0.932  0.00  0.00    +0.178 C 
BRANCH  17   5
ATOM      5  O   UNL     1      -4.072  -1.950  -0.303  0.00  0.00    -0.381 OA
ATOM     23  C   UNL     1      -4.018  -3.368  -0.229  0.00  0.00    +0.194 C 
ENDBRANCH  17   5
ENDBRANCH  15  17
ENDBRANCH   8  15
TORSDOF 5
