REMARK  Name = 51137837
REMARK  4 active torsions:
REMARK  status: ('A' for Active; 'I' for Inactive)
REMARK    1  A    between atoms: C_8  and  C_12
REMARK    2  A    between atoms: C_13  and  C_16
REMARK    3  A    between atoms: C_14  and  C_15
REMARK    4  A    between atoms: C_15  and  C_17
REMARK                            x       y       z     vdW  Elec       q    Type
REMARK                         _______ _______ _______ _____ _____    ______ ____
ROOT
ATOM      2  O   UNL     1       1.103  -1.870   0.108  0.00  0.00    -0.424 OA
ATOM      5  N   UNL     1       1.224  -3.733  -1.124  0.00  0.00    -0.112 NA
ATOM      6  N   UNL     1       2.454  -3.105  -1.179  0.00  0.00    -0.112 NA
ATOM     12  C   UNL     1       0.468  -2.978  -0.362  0.00  0.00    +0.222 A 
ATOM     14  C   UNL     1       2.337  -2.022  -0.446  0.00  0.00    +0.222 A 
ENDROOT
BRANCH  12   8
ATOM      3  O   UNL     1      -2.268   0.859   2.010  0.00  0.00    -0.269 OA
ATOM      4  N   UNL     1      -1.929  -1.160   0.915  0.00  0.00    -0.296 N 
ATOM      8  C   UNL     1      -0.981  -3.166   0.055  0.00  0.00    +0.095 C 
ATOM      9  C   UNL     1      -1.121  -3.275   1.581  0.00  0.00    +0.033 C 
ATOM     10  C   UNL     1      -1.944  -2.017  -0.272  0.00  0.00    +0.121 C 
ATOM     11  C   UNL     1      -1.290  -1.831   2.036  0.00  0.00    +0.109 C 
ATOM     13  C   UNL     1      -2.367   0.151   1.010  0.00  0.00    +0.253 C 
BRANCH  13  16
ATOM      1  S   UNL     1      -2.279   2.145  -0.879  0.00  0.00    -0.092 S 
ATOM     16  C   UNL     1      -2.987   0.749  -0.182  0.00  0.00    +0.074 A 
ATOM     21  C   UNL     1      -4.110   0.343  -0.868  0.00  0.00    +0.021 A 
ATOM     24  C   UNL     1      -4.394   1.187  -1.980  0.00  0.00    +0.008 A 
ATOM     25  C   UNL     1      -3.476   2.208  -2.102  0.00  0.00    +0.046 A 
ENDBRANCH  13  16
ENDBRANCH  12   8
BRANCH  14  15
ATOM     15  C   UNL     1       3.367  -0.945  -0.137  0.00  0.00    +0.135 C 
BRANCH  15  17
ATOM      7  N   UNL     1       2.597   2.307  -1.609  0.00  0.00    -0.360 N 
ATOM     17  C   UNL     1       2.938   0.426  -0.480  0.00  0.00    -0.013 A 
ATOM     18  C   UNL     1       2.249   1.336   0.370  0.00  0.00    +0.003 A 
ATOM     19  C   UNL     1       2.047   2.508  -0.363  0.00  0.00    +0.047 A 
ATOM     20  C   UNL     1       3.137   1.052  -1.689  0.00  0.00    +0.087 A 
ATOM     22  C   UNL     1       1.776   1.275   1.696  0.00  0.00    +0.010 A 
ATOM     23  C   UNL     1       1.394   3.627   0.167  0.00  0.00    +0.026 A 
ATOM     26  C   UNL     1       1.121   2.386   2.239  0.00  0.00    +0.001 A 
ATOM     27  C   UNL     1       0.934   3.543   1.484  0.00  0.00    +0.002 A 
ATOM     28  H   UNL     1       2.600   2.988  -2.356  0.00  0.00    +0.165 HD
ENDBRANCH  15  17
ENDBRANCH  14  15
TORSDOF 4
