REMARK  Name = 25338476
REMARK  5 active torsions:
REMARK  status: ('A' for Active; 'I' for Inactive)
REMARK    1  A    between atoms: N_3  and  C_20
REMARK    2  A    between atoms: N_4  and  C_8
REMARK    3  A    between atoms: C_10  and  C_19
REMARK    4  A    between atoms: C_12  and  C_17
REMARK    5  A    between atoms: C_21  and  C_22
REMARK                            x       y       z     vdW  Elec       q    Type
REMARK                         _______ _______ _______ _____ _____    ______ ____
ROOT
ATOM      3  N   UNL     1      -0.531  -2.993   0.937  0.00  0.00    -0.293 NA
ATOM      8  C   UNL     1      -2.397  -2.171  -0.193  0.00  0.00    +0.089 C 
ATOM      9  C   UNL     1      -1.212  -2.068  -1.154  0.00  0.00    +0.052 C 
ATOM     10  C   UNL     1      -0.036  -2.754  -0.432  0.00  0.00    +0.147 C 
ATOM     11  C   UNL     1      -1.971  -3.236   0.807  0.00  0.00    +0.107 C 
ATOM     20  C   UNL     1       0.147  -4.095   1.608  0.00  0.00    +0.105 C 
ENDROOT
BRANCH  10  19
ATOM      1  O   UNL     1       2.300  -2.501  -1.102  0.00  0.00    -0.336 OA
ATOM      5  N   UNL     1       1.467  -0.736  -0.002  0.00  0.00    -0.190 NA
ATOM      6  N   UNL     1       3.341  -1.567  -1.020  0.00  0.00    -0.056 NA
ATOM     19  C   UNL     1       1.234  -1.932  -0.480  0.00  0.00    +0.245 A 
ATOM     21  C   UNL     1       2.772  -0.554  -0.358  0.00  0.00    +0.204 A 
BRANCH  21  22
ATOM      7  N   UNL     1       5.528   1.932  -0.135  0.00  0.00    -0.263 NA
ATOM     22  C   UNL     1       3.479   0.652  -0.037  0.00  0.00    +0.041 A 
ATOM     23  C   UNL     1       2.857   1.687   0.651  0.00  0.00    +0.014 A 
ATOM     24  C   UNL     1       4.804   0.822  -0.405  0.00  0.00    +0.122 A 
ATOM     25  C   UNL     1       3.568   2.844   0.948  0.00  0.00    +0.020 A 
ATOM     26  C   UNL     1       4.889   2.917   0.536  0.00  0.00    +0.111 A 
ENDBRANCH  21  22
ENDBRANCH  10  19
BRANCH   8   4
ATOM      2  O   UNL     1      -4.223  -0.086  -1.056  0.00  0.00    -0.276 OA
ATOM      4  N   UNL     1      -2.661  -0.911   0.461  0.00  0.00    -0.311 N 
ATOM     17  C   UNL     1      -3.555   0.024  -0.031  0.00  0.00    +0.216 C 
ATOM     27  H   UNL     1      -2.172  -0.729   1.331  0.00  0.00    +0.149 HD
BRANCH  17  12
ATOM     12  C   UNL     1      -3.659   1.232   0.855  0.00  0.00    +0.075 C 
ATOM     13  C   UNL     1      -4.734   2.183   0.325  0.00  0.00    +0.013 C 
ATOM     14  C   UNL     1      -2.297   1.910   1.020  0.00  0.00    +0.013 C 
ATOM     15  C   UNL     1      -4.279   2.979  -0.898  0.00  0.00    +0.001 C 
ATOM     16  C   UNL     1      -1.871   2.725  -0.201  0.00  0.00    +0.001 C 
ATOM     18  C   UNL     1      -2.959   3.697  -0.643  0.00  0.00    +0.000 C 
ENDBRANCH  17  12
ENDBRANCH   8   4
TORSDOF 4
