REMARK  Name = 11886013
REMARK  7 active torsions:
REMARK  status: ('A' for Active; 'I' for Inactive)
REMARK    1  A    between atoms: S_1  and  C_18
REMARK    2  A    between atoms: S_1  and  C_20
REMARK    3  A    between atoms: O_4  and  C_15
REMARK    4  A    between atoms: O_4  and  C_19
REMARK    5  A    between atoms: N_7  and  C_14
REMARK    6  A    between atoms: N_11  and  C_21
REMARK    7  A    between atoms: C_20  and  C_23
REMARK                            x       y       z     vdW  Elec       q    Type
REMARK                         _______ _______ _______ _____ _____    ______ ____
ROOT
ATOM      2  O   UNL     1       0.152  -0.069  -1.120  0.00  0.00    -0.368 OA
ATOM      3  O   UNL     1      -1.554  -2.250   0.254  0.00  0.00    -0.368 OA
ATOM     12  C   UNL     1      -1.597  -0.807   0.310  0.00  0.00    +0.177 C 
ATOM     13  C   UNL     1      -0.161  -0.324   0.258  0.00  0.00    +0.192 C 
ATOM     14  C   UNL     1      -2.224  -0.269  -0.962  0.00  0.00    +0.168 C 
ATOM     15  C   UNL     1       0.607  -1.509   0.795  0.00  0.00    +0.235 C 
ATOM     16  C   UNL     1      -1.036  -0.189  -1.915  0.00  0.00    +0.190 C 
ATOM     17  C   UNL     1      -0.184  -2.674   0.249  0.00  0.00    +0.207 C 
ENDROOT
BRANCH  14   7
ATOM      7  N   UNL     1      -2.940   0.990  -0.744  0.00  0.00    -0.212 N 
ATOM      8  N   UNL     1      -2.291   2.156  -0.831  0.00  0.00    -0.043 NA
ATOM      9  N   UNL     1      -4.439   2.498  -0.342  0.00  0.00    -0.101 NA
ATOM     10  N   UNL     1      -3.214   3.077  -0.584  0.00  0.00    -0.022 NA
ATOM     18  C   UNL     1      -4.245   1.203  -0.447  0.00  0.00    +0.210 A 
BRANCH  18   1
ATOM      1  S   UNL     1      -5.406  -0.050  -0.254  0.00  0.00    -0.077 S 
BRANCH   1  20
ATOM     20  C   UNL     1      -6.909   0.901   0.122  0.00  0.00    +0.151 C 
BRANCH  20  23
ATOM      6  O   UNL     1      -9.120   0.196  -0.501  0.00  0.00    -0.467 OA
ATOM     23  C   UNL     1      -8.087  -0.006   0.336  0.00  0.00    +0.115 A 
ATOM     29  C   UNL     1      -8.316  -1.004   1.221  0.00  0.00    +0.045 A 
ATOM     33  C   UNL     1      -9.615  -1.477   0.917  0.00  0.00    +0.041 A 
ATOM     34  C   UNL     1     -10.061  -0.716  -0.138  0.00  0.00    +0.195 A 
ENDBRANCH  20  23
ENDBRANCH   1  20
ENDBRANCH  18   1
ENDBRANCH  14   7
BRANCH  15   4
ATOM      4  O   UNL     1       1.954  -1.541   0.382  0.00  0.00    -0.442 OA
BRANCH   4  19
ATOM      5  O   UNL     1       2.344   0.424   1.484  0.00  0.00    -0.226 OA
ATOM     11  N   UNL     1       4.038  -0.681   0.306  0.00  0.00    -0.251 N 
ATOM     19  C   UNL     1       2.758  -0.498   0.792  0.00  0.00    +0.405 C 
ATOM     35  H   UNL     1       4.156  -1.522  -0.247  0.00  0.00    +0.158 HD
BRANCH  11  21
ATOM     21  C   UNL     1       5.167   0.149   0.491  0.00  0.00    +0.044 A 
ATOM     22  C   UNL     1       6.406  -0.174  -0.069  0.00  0.00    +0.003 A 
ATOM     24  C   UNL     1       4.988   1.297   1.252  0.00  0.00    +0.024 A 
ATOM     25  C   UNL     1       7.501   0.696   0.150  0.00  0.00    -0.016 A 
ATOM     26  C   UNL     1       6.593  -1.333  -0.839  0.00  0.00    +0.010 A 
ATOM     27  C   UNL     1       6.065   2.153   1.467  0.00  0.00    +0.002 A 
ATOM     28  C   UNL     1       7.313   1.855   0.921  0.00  0.00    +0.008 A 
ATOM     30  C   UNL     1       8.751   0.381  -0.407  0.00  0.00    +0.008 A 
ATOM     31  C   UNL     1       7.842  -1.630  -1.385  0.00  0.00    +0.001 A 
ATOM     32  C   UNL     1       8.919  -0.775  -1.170  0.00  0.00    +0.001 A 
ENDBRANCH  11  21
ENDBRANCH   4  19
ENDBRANCH  15   4
TORSDOF 7
