REMARK  Name = 7134287
REMARK  12 active torsions:
REMARK  status: ('A' for Active; 'I' for Inactive)
REMARK    1  A    between atoms: O_4  and  C_23
REMARK    2  A    between atoms: O_4  and  C_29
REMARK    3  A    between atoms: O_7  and  C_35
REMARK    4  A    between atoms: N_10  and  C_15
REMARK    5  A    between atoms: N_11  and  C_22
REMARK    6  A    between atoms: C_16  and  C_20
REMARK    7  A    between atoms: C_21  and  C_23
REMARK    8  A    between atoms: C_22  and  C_25
REMARK    9  A    between atoms: C_22  and  C_26
REMARK   10  A    between atoms: C_24  and  C_27
REMARK   11  A    between atoms: C_25  and  C_28
REMARK   12  A    between atoms: C_29  and  C_35
REMARK                            x       y       z     vdW  Elec       q    Type
REMARK                         _______ _______ _______ _____ _____    ______ ____
ROOT
ATOM      3  O   UNL     1       1.866   3.153  -1.654  0.00  0.00    -0.273 OA
ATOM      9  N   UNL     1       0.411   1.556  -0.786  0.00  0.00    -0.288 N 
ATOM     15  C   UNL     1      -2.334   0.636  -0.411  0.00  0.00    +0.077 C 
ATOM     16  C   UNL     1       0.163   0.401   0.093  0.00  0.00    +0.164 C 
ATOM     17  C   UNL     1      -1.263   0.363   0.648  0.00  0.00    +0.054 C 
ATOM     18  C   UNL     1      -2.012   1.921  -1.171  0.00  0.00    +0.041 C 
ATOM     19  C   UNL     1      -0.621   1.854  -1.786  0.00  0.00    +0.110 C 
ATOM     21  C   UNL     1       1.612   2.274  -0.826  0.00  0.00    +0.242 C 
ENDROOT
BRANCH  16  20
ATOM      2  O   UNL     1       0.328  -0.881  -1.915  0.00  0.00    -0.274 OA
ATOM     11  N   UNL     1       0.966  -1.856   0.100  0.00  0.00    -0.302 N 
ATOM     20  C   UNL     1       0.493  -0.830  -0.699  0.00  0.00    +0.234 C 
ATOM     38  H   UNL     1       0.985  -1.727   1.108  0.00  0.00    +0.150 HD
BRANCH  11  22
ATOM     22  C   UNL     1       1.334  -3.155  -0.416  0.00  0.00    +0.163 C 
BRANCH  22  26
ATOM      6  O   UNL     1      -0.830  -3.917   0.386  0.00  0.00    -0.274 OA
ATOM     12  N   UNL     1       0.007  -4.827  -1.550  0.00  0.00    -0.328 N 
ATOM     26  C   UNL     1       0.067  -3.997  -0.450  0.00  0.00    +0.231 C 
ATOM     39  H   UNL     1      -0.793  -5.432  -1.702  0.00  0.00    +0.145 HD
ATOM     40  H   UNL     1       0.753  -4.881  -2.235  0.00  0.00    +0.145 HD
ENDBRANCH  22  26
BRANCH  22  25
ATOM     25  C   UNL     1       2.408  -3.838   0.439  0.00  0.00    +0.074 C 
BRANCH  25  28
ATOM      1  S   UNL     1       4.614  -3.073   1.958  0.00  0.00    -0.102 S 
ATOM     28  C   UNL     1       3.677  -3.024   0.526  0.00  0.00    -0.008 A 
ATOM     31  C   UNL     1       4.231  -2.196  -0.426  0.00  0.00    +0.011 A 
ATOM     32  C   UNL     1       5.441  -1.595   0.027  0.00  0.00    +0.008 A 
ATOM     33  C   UNL     1       5.765  -1.986   1.307  0.00  0.00    +0.045 A 
ENDBRANCH  25  28
ENDBRANCH  22  25
ENDBRANCH  11  22
ENDBRANCH  16  20
BRANCH  15  10
ATOM      5  O   UNL     1      -4.830  -0.097  -1.627  0.00  0.00    -0.268 OA
ATOM     10  N   UNL     1      -3.643   0.717   0.191  0.00  0.00    -0.307 N 
ATOM     24  C   UNL     1      -4.797   0.338  -0.479  0.00  0.00    +0.264 C 
ATOM     37  H   UNL     1      -3.723   1.116   1.122  0.00  0.00    +0.149 HD
BRANCH  24  27
ATOM     13  N   UNL     1      -5.973   1.007   1.518  0.00  0.00    -0.247 NA
ATOM     14  N   UNL     1      -8.441   0.313   0.382  0.00  0.00    -0.259 NA
ATOM     27  C   UNL     1      -6.069   0.506   0.270  0.00  0.00    +0.143 A 
ATOM     30  C   UNL     1      -7.281   0.165  -0.288  0.00  0.00    +0.143 A 
ATOM     34  C   UNL     1      -7.133   1.155   2.187  0.00  0.00    +0.131 A 
ATOM     36  C   UNL     1      -8.345   0.814   1.629  0.00  0.00    +0.130 A 
ENDBRANCH  24  27
ENDBRANCH  15  10
BRANCH  21  23
ATOM     23  C   UNL     1       2.638   1.942   0.229  0.00  0.00    +0.256 C 
BRANCH  23   4
ATOM      4  O   UNL     1       3.757   2.754  -0.031  0.00  0.00    -0.359 OA
BRANCH   4  29
ATOM     29  C   UNL     1       4.809   2.533   0.907  0.00  0.00    +0.280 C 
BRANCH  29  35
ATOM      8  O   UNL     1       6.040   4.205  -0.355  0.00  0.00    -0.248 OA
ATOM     35  C   UNL     1       5.976   3.424   0.583  0.00  0.00    +0.331 C 
BRANCH  35   7
ATOM      7  O   UNL     1       6.971   3.242   1.488  0.00  0.00    -0.479 OA
ATOM     41  H   UNL     1       7.746   3.813   1.300  0.00  0.00    +0.295 HD
ENDBRANCH  35   7
ENDBRANCH  29  35
ENDBRANCH   4  29
ENDBRANCH  23   4
ENDBRANCH  21  23
TORSDOF 12
