REMARK  Name = 11911745
REMARK  7 active torsions:
REMARK  status: ('A' for Active; 'I' for Inactive)
REMARK    1  A    between atoms: N_5  and  C_12
REMARK    2  A    between atoms: N_6  and  C_13
REMARK    3  A    between atoms: N_9  and  C_26
REMARK    4  A    between atoms: N_9  and  C_29
REMARK    5  A    between atoms: N_9  and  C_30
REMARK    6  A    between atoms: C_16  and  C_18
REMARK    7  A    between atoms: C_21  and  C_27
REMARK                            x       y       z     vdW  Elec       q    Type
REMARK                         _______ _______ _______ _____ _____    ______ ____
ROOT
ATOM      2  O   UNL     1       0.788   1.563   1.665  0.00  0.00    -0.370 OA
ATOM      3  O   UNL     1       0.779   3.883  -0.423  0.00  0.00    -0.370 OA
ATOM     10  C   UNL     1       0.130   2.601  -0.372  0.00  0.00    +0.171 C 
ATOM     11  C   UNL     1       1.103   1.627   0.264  0.00  0.00    +0.171 C 
ATOM     12  C   UNL     1      -1.034   2.639   0.592  0.00  0.00    +0.130 C 
ATOM     13  C   UNL     1       2.455   2.269   0.059  0.00  0.00    +0.130 C 
ATOM     14  C   UNL     1      -0.359   2.385   1.927  0.00  0.00    +0.185 C 
ATOM     15  C   UNL     1       2.124   3.751   0.061  0.00  0.00    +0.185 C 
ENDROOT
BRANCH  13   6
ATOM      6  N   UNL     1       2.999   1.880  -1.224  0.00  0.00    -0.306 N 
ATOM      7  N   UNL     1       3.908  -0.103  -0.360  0.00  0.00    -0.214 NA
ATOM      8  N   UNL     1       4.167   0.467  -2.687  0.00  0.00    -0.223 NA
ATOM     17  C   UNL     1       3.713   0.713  -1.430  0.00  0.00    +0.216 A 
ATOM     21  C   UNL     1       4.607  -1.232  -0.598  0.00  0.00    +0.083 A 
ATOM     22  C   UNL     1       4.858  -0.680  -2.853  0.00  0.00    +0.116 A 
ATOM     23  C   UNL     1       5.112  -1.576  -1.835  0.00  0.00    +0.049 A 
ATOM     34  H   UNL     1       2.814   2.455  -2.038  0.00  0.00    +0.149 HD
BRANCH  21  27
ATOM      1  S   UNL     1       3.610  -2.079   1.789  0.00  0.00    -0.095 S 
ATOM     27  C   UNL     1       4.798  -2.075   0.552  0.00  0.00    +0.038 A 
ATOM     28  C   UNL     1       5.841  -2.932   0.843  0.00  0.00    +0.017 A 
ATOM     31  C   UNL     1       5.661  -3.596   2.091  0.00  0.00    +0.008 A 
ATOM     32  C   UNL     1       4.489  -3.225   2.710  0.00  0.00    +0.046 A 
ENDBRANCH  21  27
ENDBRANCH  13   6
BRANCH  12   5
ATOM      4  O   UNL     1      -3.834   2.668   1.229  0.00  0.00    -0.270 OA
ATOM      5  N   UNL     1      -1.998   1.609   0.288  0.00  0.00    -0.304 N 
ATOM     16  C   UNL     1      -3.336   1.713   0.638  0.00  0.00    +0.244 C 
ATOM     33  H   UNL     1      -1.636   0.742  -0.096  0.00  0.00    +0.149 HD
BRANCH  16  18
ATOM     18  C   UNL     1      -4.194   0.555   0.277  0.00  0.00    +0.037 A 
ATOM     19  C   UNL     1      -5.323   0.303   1.029  0.00  0.00    +0.015 A 
ATOM     20  C   UNL     1      -3.836  -0.230  -0.799  0.00  0.00    +0.015 A 
ATOM     24  C   UNL     1      -6.130  -0.783   0.689  0.00  0.00    +0.024 A 
ATOM     25  C   UNL     1      -4.642  -1.316  -1.139  0.00  0.00    +0.024 A 
ATOM     26  C   UNL     1      -5.789  -1.593  -0.394  0.00  0.00    +0.029 A 
BRANCH  26   9
ATOM      9  N   UNL     1      -6.605  -2.690  -0.739  0.00  0.00    -0.336 N 
ATOM     29  C   UNL     1      -6.031  -3.862  -1.370  0.00  0.00    +0.129 C 
ATOM     30  C   UNL     1      -8.031  -2.655  -0.479  0.00  0.00    +0.129 C 
ENDBRANCH  26   9
ENDBRANCH  16  18
ENDBRANCH  12   5
TORSDOF 5
