REMARK  Name = 7134303
REMARK  9 active torsions:
REMARK  status: ('A' for Active; 'I' for Inactive)
REMARK    1  A    between atoms: N_8  and  C_14
REMARK    2  A    between atoms: N_9  and  C_21
REMARK    3  A    between atoms: C_15  and  C_19
REMARK    4  A    between atoms: C_20  and  C_24
REMARK    5  A    between atoms: C_21  and  C_22
REMARK    6  A    between atoms: C_21  and  C_26
REMARK    7  A    between atoms: C_22  and  C_25
REMARK    8  A    between atoms: C_23  and  C_27
REMARK    9  A    between atoms: C_32  and  C_39
REMARK                            x       y       z     vdW  Elec       q    Type
REMARK                         _______ _______ _______ _____ _____    ______ ____
ROOT
ATOM      3  O   UNL     1       4.248   0.034   1.778  0.00  0.00    -0.267 OA
ATOM      7  N   UNL     1       2.809   1.025   0.249  0.00  0.00    -0.283 N 
ATOM     14  C   UNL     1       0.085   1.852  -0.429  0.00  0.00    +0.077 C 
ATOM     15  C   UNL     1       1.678   0.202   0.694  0.00  0.00    +0.164 C 
ATOM     16  C   UNL     1       0.357   0.965   0.788  0.00  0.00    +0.054 C 
ATOM     17  C   UNL     1       1.288   2.754  -0.695  0.00  0.00    +0.041 C 
ATOM     18  C   UNL     1       2.562   1.938  -0.881  0.00  0.00    +0.111 C 
ATOM     20  C   UNL     1       4.078   0.806   0.832  0.00  0.00    +0.283 C 
ENDROOT
BRANCH  20  24
ATOM      4  O   UNL     1       5.500   2.746   0.803  0.00  0.00    -0.458 OA
ATOM     24  C   UNL     1       5.213   1.534   0.273  0.00  0.00    +0.189 A 
ATOM     29  C   UNL     1       6.083   1.212  -0.732  0.00  0.00    +0.054 A 
ATOM     33  C   UNL     1       6.977   2.305  -0.832  0.00  0.00    +0.042 A 
ATOM     35  C   UNL     1       6.580   3.212   0.123  0.00  0.00    +0.196 A 
ENDBRANCH  20  24
BRANCH  15  19
ATOM      2  O   UNL     1       1.899  -0.848  -1.440  0.00  0.00    -0.274 OA
ATOM      9  N   UNL     1       1.132  -2.108   0.361  0.00  0.00    -0.302 N 
ATOM     19  C   UNL     1       1.597  -0.958  -0.255  0.00  0.00    +0.234 C 
ATOM     41  H   UNL     1       0.973  -2.100   1.365  0.00  0.00    +0.150 HD
BRANCH   9  21
ATOM     21  C   UNL     1       0.942  -3.358  -0.338  0.00  0.00    +0.163 C 
BRANCH  21  26
ATOM      6  O   UNL     1       3.063  -4.046   0.627  0.00  0.00    -0.274 OA
ATOM     11  N   UNL     1       2.484  -4.856  -1.443  0.00  0.00    -0.328 N 
ATOM     26  C   UNL     1       2.275  -4.091  -0.315  0.00  0.00    +0.231 C 
ATOM     43  H   UNL     1       1.812  -4.902  -2.203  0.00  0.00    +0.145 HD
ATOM     44  H   UNL     1       3.329  -5.407  -1.549  0.00  0.00    +0.145 HD
ENDBRANCH  21  26
BRANCH  21  22
ATOM     22  C   UNL     1      -0.155  -4.220   0.299  0.00  0.00    +0.069 C 
BRANCH  22  25
ATOM     10  N   UNL     1      -3.429  -3.572  -1.181  0.00  0.00    -0.360 N 
ATOM     25  C   UNL     1      -1.542  -3.767  -0.092  0.00  0.00    -0.020 A 
ATOM     28  C   UNL     1      -2.315  -2.822   0.601  0.00  0.00    +0.003 A 
ATOM     30  C   UNL     1      -2.223  -4.220  -1.174  0.00  0.00    +0.087 A 
ATOM     31  C   UNL     1      -3.513  -2.713  -0.109  0.00  0.00    +0.047 A 
ATOM     34  C   UNL     1      -2.138  -2.039   1.758  0.00  0.00    +0.010 A 
ATOM     36  C   UNL     1      -4.547  -1.855   0.284  0.00  0.00    +0.026 A 
ATOM     37  C   UNL     1      -3.163  -1.176   2.162  0.00  0.00    +0.001 A 
ATOM     38  C   UNL     1      -4.348  -1.087   1.435  0.00  0.00    +0.002 A 
ATOM     42  H   UNL     1      -4.154  -3.705  -1.872  0.00  0.00    +0.165 HD
ENDBRANCH  22  25
ENDBRANCH  21  22
ENDBRANCH   9  21
ENDBRANCH  15  19
BRANCH  14   8
ATOM      5  O   UNL     1      -2.536   1.060  -1.105  0.00  0.00    -0.270 OA
ATOM      8  N   UNL     1      -1.111   2.636  -0.233  0.00  0.00    -0.308 N 
ATOM     23  C   UNL     1      -2.374   2.170  -0.596  0.00  0.00    +0.254 C 
ATOM     40  H   UNL     1      -1.029   3.535   0.234  0.00  0.00    +0.149 HD
BRANCH  23  27
ATOM      1  S   UNL     1      -3.205   4.568   0.429  0.00  0.00    +0.041 S 
ATOM     12  N   UNL     1      -5.586   4.000  -0.107  0.00  0.00    -0.146 NA
ATOM     13  N   UNL     1      -4.835   4.952   0.424  0.00  0.00    -0.110 NA
ATOM     27  C   UNL     1      -3.497   3.071  -0.303  0.00  0.00    +0.117 A 
ATOM     32  C   UNL     1      -4.820   2.923  -0.523  0.00  0.00    +0.081 A 
ATOM     39  C   UNL     1      -5.512   1.773  -1.140  0.00  0.00    +0.069 C 
ENDBRANCH  23  27
ENDBRANCH  14   8
TORSDOF 8
