REMARK  Name = 7142869
REMARK  4 active torsions:
REMARK  status: ('A' for Active; 'I' for Inactive)
REMARK    1  A    between atoms: S_1  and  N_6
REMARK    2  A    between atoms: S_1  and  C_22
REMARK    3  A    between atoms: N_8  and  C_20
REMARK    4  A    between atoms: C_27  and  C_29
REMARK                            x       y       z     vdW  Elec       q    Type
REMARK                         _______ _______ _______ _____ _____    ______ ____
ROOT
ATOM      4  O   UNL     1      -1.909   0.893  -2.036  0.00  0.00    -0.266 OA
ATOM      6  N   UNL     1       2.696  -0.061  -0.393  0.00  0.00    -0.176 NA
ATOM      7  N   UNL     1      -0.158   1.290  -0.541  0.00  0.00    -0.310 N 
ATOM     11  C   UNL     1       2.119   2.199  -1.281  0.00  0.00    +0.025 C 
ATOM     12  C   UNL     1       1.724   1.684   1.088  0.00  0.00    +0.052 C 
ATOM     13  C   UNL     1       2.188   2.776   0.127  0.00  0.00    +0.017 C 
ATOM     14  C   UNL     1       3.039   0.974  -1.409  0.00  0.00    +0.114 C 
ATOM     15  C   UNL     1       2.679   0.480   0.999  0.00  0.00    +0.119 C 
ATOM     16  C   UNL     1       0.658   1.872  -1.615  0.00  0.00    +0.130 C 
ATOM     17  C   UNL     1       0.301   1.255   0.779  0.00  0.00    +0.026 A 
ATOM     18  C   UNL     1      -0.505   0.823   1.764  0.00  0.00    +0.024 A 
ATOM     19  C   UNL     1      -1.456   0.866  -0.891  0.00  0.00    +0.273 A 
ATOM     20  C   UNL     1      -2.314   0.370   0.231  0.00  0.00    +0.099 A 
ATOM     21  C   UNL     1      -1.838   0.370   1.481  0.00  0.00    +0.030 A 
ENDROOT
BRANCH  20   8
ATOM      5  O   UNL     1      -4.563   0.571   1.917  0.00  0.00    -0.268 OA
ATOM      8  N   UNL     1      -3.573  -0.061  -0.068  0.00  0.00    -0.276 N 
ATOM     27  C   UNL     1      -4.660   0.059   0.800  0.00  0.00    +0.268 C 
ATOM     33  H   UNL     1      -3.765  -0.284  -1.042  0.00  0.00    +0.155 HD
BRANCH  27  29
ATOM      9  N   UNL     1      -5.914  -0.944  -0.959  0.00  0.00    -0.247 NA
ATOM     10  N   UNL     1      -8.258  -0.824   0.577  0.00  0.00    -0.259 NA
ATOM     29  C   UNL     1      -5.943  -0.438   0.280  0.00  0.00    +0.144 A 
ATOM     30  C   UNL     1      -7.077  -0.372   1.042  0.00  0.00    +0.143 A 
ATOM     31  C   UNL     1      -7.096  -1.396  -1.423  0.00  0.00    +0.131 A 
ATOM     32  C   UNL     1      -8.247  -1.337  -0.669  0.00  0.00    +0.130 A 
ENDBRANCH  27  29
ENDBRANCH  20   8
BRANCH   6   1
ATOM      1  S   UNL     1       3.471  -1.575  -0.588  0.00  0.00    +0.061 S 
ATOM      2  O   UNL     1       3.554  -1.886  -2.000  0.00  0.00    -0.153 OA
ATOM      3  O   UNL     1       2.903  -2.520   0.350  0.00  0.00    -0.153 OA
BRANCH   1  22
ATOM     22  C   UNL     1       5.095  -1.165  -0.030  0.00  0.00    +0.105 A 
ATOM     23  C   UNL     1       5.408  -1.312   1.312  0.00  0.00    +0.028 A 
ATOM     24  C   UNL     1       6.029  -0.703  -0.942  0.00  0.00    +0.028 A 
ATOM     25  C   UNL     1       6.691  -0.988   1.753  0.00  0.00    +0.002 A 
ATOM     26  C   UNL     1       7.312  -0.378  -0.501  0.00  0.00    +0.002 A 
ATOM     28  C   UNL     1       7.643  -0.521   0.847  0.00  0.00    +0.000 A 
ENDBRANCH   1  22
ENDBRANCH   6   1
TORSDOF 4
