REMARK  Name = 11883362
REMARK  6 active torsions:
REMARK  status: ('A' for Active; 'I' for Inactive)
REMARK    1  A    between atoms: S_1  and  N_8
REMARK    2  A    between atoms: S_1  and  C_24
REMARK    3  A    between atoms: O_4  and  C_14
REMARK    4  A    between atoms: O_4  and  C_23
REMARK    5  A    between atoms: N_8  and  C_13
REMARK    6  A    between atoms: N_9  and  C_17
REMARK                            x       y       z     vdW  Elec       q    Type
REMARK                         _______ _______ _______ _____ _____    ______ ____
ROOT
ATOM      2  O   UNL     1      -1.277   1.271   0.263  0.00  0.00    -0.369 OA
ATOM      3  O   UNL     1       0.505  -0.291   2.224  0.00  0.00    -0.368 OA
ATOM     11  C   UNL     1       0.613  -0.058   0.804  0.00  0.00    +0.171 C 
ATOM     12  C   UNL     1      -0.797  -0.083   0.246  0.00  0.00    +0.191 C 
ATOM     13  C   UNL     1       1.081   1.353   0.548  0.00  0.00    +0.133 C 
ATOM     14  C   UNL     1      -1.529  -0.950   1.243  0.00  0.00    +0.235 C 
ATOM     15  C   UNL     1      -0.205   2.153   0.627  0.00  0.00    +0.183 C 
ATOM     16  C   UNL     1      -0.866  -0.565   2.546  0.00  0.00    +0.207 C 
ENDROOT
BRANCH  13   8
ATOM      8  N   UNL     1       1.653   1.458  -0.815  0.00  0.00    -0.182 NA
ATOM     33  H   UNL     1       1.187   0.940  -1.569  0.00  0.00    +0.148 HD
BRANCH   8   1
ATOM      1  S   UNL     1       3.225   2.064  -1.026  0.00  0.00    +0.061 S 
ATOM      5  O   UNL     1       3.333   3.361  -0.386  0.00  0.00    -0.153 OA
ATOM      6  O   UNL     1       3.604   1.902  -2.417  0.00  0.00    -0.153 OA
BRANCH   1  24
ATOM     10  N   UNL     1       3.779  -0.788  -1.694  0.00  0.00    -0.253 NA
ATOM     24  C   UNL     1       4.188   0.913  -0.092  0.00  0.00    +0.131 A 
ATOM     25  C   UNL     1       4.351  -0.387  -0.543  0.00  0.00    +0.097 A 
ATOM     26  C   UNL     1       4.760   1.371   1.091  0.00  0.00    +0.031 A 
ATOM     27  C   UNL     1       5.130  -1.260   0.245  0.00  0.00    +0.002 A 
ATOM     28  C   UNL     1       5.526   0.506   1.862  0.00  0.00    +0.003 A 
ATOM     29  C   UNL     1       5.712  -0.808   1.441  0.00  0.00    +0.010 A 
ATOM     30  C   UNL     1       5.300  -2.578  -0.202  0.00  0.00    +0.011 A 
ATOM     31  C   UNL     1       3.968  -2.068  -2.091  0.00  0.00    +0.111 A 
ATOM     32  C   UNL     1       4.712  -2.994  -1.388  0.00  0.00    +0.020 A 
ENDBRANCH   1  24
ENDBRANCH   8   1
ENDBRANCH  13   8
BRANCH  14   4
ATOM      4  O   UNL     1      -2.920  -0.725   1.268  0.00  0.00    -0.442 OA
BRANCH   4  23
ATOM      7  O   UNL     1      -3.088  -1.431  -0.910  0.00  0.00    -0.226 OA
ATOM      9  N   UNL     1      -4.957  -0.741   0.279  0.00  0.00    -0.278 N 
ATOM     23  C   UNL     1      -3.613  -1.006   0.113  0.00  0.00    +0.401 C 
ATOM     34  H   UNL     1      -5.249  -0.347   1.167  0.00  0.00    +0.152 HD
BRANCH   9  17
ATOM     17  C   UNL     1      -5.947  -0.936  -0.757  0.00  0.00    +0.076 C 
ATOM     18  C   UNL     1      -7.299  -1.337  -0.158  0.00  0.00    +0.022 C 
ATOM     19  C   UNL     1      -6.077   0.313  -1.637  0.00  0.00    +0.022 C 
ATOM     20  C   UNL     1      -7.986  -0.177   0.564  0.00  0.00    +0.002 C 
ATOM     21  C   UNL     1      -6.766   1.469  -0.912  0.00  0.00    +0.002 C 
ATOM     22  C   UNL     1      -8.114   1.049  -0.334  0.00  0.00    +0.000 C 
ENDBRANCH   9  17
ENDBRANCH   4  23
ENDBRANCH  14   4
TORSDOF 6
