REMARK  Name = 45783274
REMARK  8 active torsions:
REMARK  status: ('A' for Active; 'I' for Inactive)
REMARK    1  A    between atoms: O_3  and  C_28
REMARK    2  A    between atoms: O_3  and  C_29
REMARK    3  A    between atoms: N_4  and  C_13
REMARK    4  A    between atoms: N_7  and  C_27
REMARK    5  A    between atoms: C_9  and  C_14
REMARK    6  A    between atoms: C_13  and  C_15
REMARK    7  A    between atoms: C_18  and  C_19
REMARK    8  A    between atoms: C_27  and  C_28
REMARK                            x       y       z     vdW  Elec       q    Type
REMARK                         _______ _______ _______ _____ _____    ______ ____
ROOT
ATOM      2  O   UNL     1      -2.561   2.351   0.124  0.00  0.00    -0.336 OA
ATOM      5  N   UNL     1      -1.031   0.798   0.640  0.00  0.00    -0.190 NA
ATOM      6  N   UNL     1      -1.314   2.929  -0.144  0.00  0.00    -0.056 NA
ATOM     14  C   UNL     1      -2.304   1.097   0.582  0.00  0.00    +0.245 A 
ATOM     18  C   UNL     1      -0.463   1.953   0.185  0.00  0.00    +0.202 A 
ENDROOT
BRANCH  18  19
ATOM      7  N   UNL     1       4.009   0.162   0.670  0.00  0.00    -0.327 N 
ATOM      8  N   UNL     1       3.732   2.382  -0.149  0.00  0.00    -0.240 NA
ATOM     19  C   UNL     1       0.960   2.099   0.073  0.00  0.00    +0.027 A 
ATOM     23  C   UNL     1       1.799   1.050   0.430  0.00  0.00    +0.055 A 
ATOM     24  C   UNL     1       1.504   3.290  -0.395  0.00  0.00    +0.031 A 
ATOM     25  C   UNL     1       3.166   1.240   0.301  0.00  0.00    +0.119 A 
ATOM     26  C   UNL     1       2.884   3.380  -0.486  0.00  0.00    +0.113 A 
ATOM     30  H   UNL     1       5.006   0.313   0.568  0.00  0.00    +0.148 HD
BRANCH   7  27
ATOM     27  C   UNL     1       3.503  -1.079   1.157  0.00  0.00    +0.131 C 
BRANCH  27  28
ATOM     28  C   UNL     1       4.652  -2.013   1.496  0.00  0.00    +0.178 C 
BRANCH  28   3
ATOM      3  O   UNL     1       5.410  -2.277   0.321  0.00  0.00    -0.381 OA
ATOM     29  C   UNL     1       6.496  -3.154   0.589  0.00  0.00    +0.194 C 
ENDBRANCH  28   3
ENDBRANCH  27  28
ENDBRANCH   7  27
ENDBRANCH  18  19
BRANCH  14   9
ATOM      4  N   UNL     1      -3.247  -1.195   0.807  0.00  0.00    -0.287 NA
ATOM      9  C   UNL     1      -3.507   0.252   0.947  0.00  0.00    +0.146 C 
ATOM     10  C   UNL     1      -3.937   0.433   2.414  0.00  0.00    +0.030 C 
ATOM     11  C   UNL     1      -3.949  -0.972   3.001  0.00  0.00    +0.017 C 
ATOM     12  C   UNL     1      -4.104  -1.864   1.786  0.00  0.00    +0.085 C 
BRANCH   4  13
ATOM     13  C   UNL     1      -3.469  -1.690  -0.545  0.00  0.00    +0.123 C 
BRANCH  13  15
ATOM      1  F   UNL     1      -0.831  -2.586  -0.036  0.00  0.00    -0.205 F 
ATOM     15  C   UNL     1      -2.307  -1.383  -1.452  0.00  0.00    +0.002 A 
ATOM     16  C   UNL     1      -1.033  -1.856  -1.141  0.00  0.00    +0.128 A 
ATOM     17  C   UNL     1      -2.508  -0.625  -2.606  0.00  0.00    +0.008 A 
ATOM     20  C   UNL     1       0.042  -1.571  -1.984  0.00  0.00    +0.038 A 
ATOM     21  C   UNL     1      -1.433  -0.339  -3.448  0.00  0.00    +0.000 A 
ATOM     22  C   UNL     1      -0.158  -0.812  -3.137  0.00  0.00    +0.003 A 
ENDBRANCH  13  15
ENDBRANCH   4  13
ENDBRANCH  14   9
TORSDOF 7
