REMARK  Name = 75536305
REMARK  9 active torsions:
REMARK  status: ('A' for Active; 'I' for Inactive)
REMARK    1  A    between atoms: O_2  and  C_10
REMARK    2  A    between atoms: O_5  and  C_19
REMARK    3  A    between atoms: O_5  and  C_25
REMARK    4  A    between atoms: N_6  and  C_14
REMARK    5  A    between atoms: C_8  and  C_13
REMARK    6  A    between atoms: C_9  and  C_14
REMARK    7  A    between atoms: C_13  and  C_15
REMARK    8  A    between atoms: C_17  and  C_19
REMARK    9  A    between atoms: C_18  and  C_20
REMARK                            x       y       z     vdW  Elec       q    Type
REMARK                         _______ _______ _______ _____ _____    ______ ____
ROOT
ATOM      1  O   UNL     1       3.525  -0.063   0.845  0.00  0.00    -0.369 OA
ATOM      8  C   UNL     1       3.749  -0.637  -0.445  0.00  0.00    +0.125 C 
ATOM      9  C   UNL     1       3.962   1.294   0.992  0.00  0.00    +0.164 C 
ATOM     10  C   UNL     1       5.447   1.445   0.633  0.00  0.00    +0.145 C 
ATOM     11  C   UNL     1       5.237  -0.615  -0.794  0.00  0.00    +0.034 C 
ATOM     12  C   UNL     1       5.787   0.806  -0.710  0.00  0.00    +0.036 C 
ENDROOT
BRANCH  10   2
ATOM      2  O   UNL     1       6.231   0.795   1.637  0.00  0.00    -0.389 OA
ATOM     32  H   UNL     1       7.168   0.942   1.418  0.00  0.00    +0.210 HD
ENDBRANCH  10   2
BRANCH   8  13
ATOM     13  C   UNL     1       3.222  -2.067  -0.408  0.00  0.00    +0.090 C 
BRANCH  13  15
ATOM      3  O   UNL     1      -0.216  -2.215  -1.480  0.00  0.00    -0.354 OA
ATOM      7  N   UNL     1       1.151  -2.195  -1.731  0.00  0.00    -0.083 NA
ATOM     15  C   UNL     1       1.722  -2.111  -0.527  0.00  0.00    +0.087 A 
ATOM     16  C   UNL     1       0.776  -2.075   0.512  0.00  0.00    +0.076 A 
ATOM     18  C   UNL     1      -0.426  -2.143  -0.141  0.00  0.00    +0.167 A 
BRANCH  18  20
ATOM     20  C   UNL     1      -1.799  -2.155   0.275  0.00  0.00    +0.020 A 
ATOM     21  C   UNL     1      -2.118  -2.088   1.631  0.00  0.00    +0.011 A 
ATOM     22  C   UNL     1      -2.815  -2.235  -0.677  0.00  0.00    +0.011 A 
ATOM     23  C   UNL     1      -3.453  -2.100   2.035  0.00  0.00    +0.001 A 
ATOM     24  C   UNL     1      -4.150  -2.247  -0.273  0.00  0.00    +0.001 A 
ATOM     26  C   UNL     1      -4.469  -2.180   1.083  0.00  0.00    +0.000 A 
ENDBRANCH  18  20
ENDBRANCH  13  15
ENDBRANCH   8  13
BRANCH   9  14
ATOM     14  C   UNL     1       3.061   2.251   0.214  0.00  0.00    +0.138 C 
BRANCH  14   6
ATOM      4  O   UNL     1       0.877   1.495  -1.526  0.00  0.00    -0.272 OA
ATOM      6  N   UNL     1       1.688   2.072   0.578  0.00  0.00    -0.310 N 
ATOM     17  C   UNL     1       0.697   1.705  -0.330  0.00  0.00    +0.251 C 
ATOM     33  H   UNL     1       1.426   2.258   1.542  0.00  0.00    +0.149 HD
BRANCH  17  19
ATOM     19  C   UNL     1      -0.663   1.587   0.327  0.00  0.00    +0.324 C 
BRANCH  19   5
ATOM      5  O   UNL     1      -1.640   1.201  -0.617  0.00  0.00    -0.483 OA
BRANCH   5  25
ATOM     25  C   UNL     1      -2.926   1.637  -0.402  0.00  0.00    +0.121 A 
ATOM     27  C   UNL     1      -3.381   1.851   0.899  0.00  0.00    +0.045 A 
ATOM     28  C   UNL     1      -3.775   1.865  -1.484  0.00  0.00    +0.045 A 
ATOM     29  C   UNL     1      -4.686   2.293   1.118  0.00  0.00    +0.004 A 
ATOM     30  C   UNL     1      -5.080   2.307  -1.266  0.00  0.00    +0.004 A 
ATOM     31  C   UNL     1      -5.536   2.521   0.035  0.00  0.00    +0.000 A 
ENDBRANCH   5  25
ENDBRANCH  19   5
ENDBRANCH  17  19
ENDBRANCH  14   6
ENDBRANCH   9  14
TORSDOF 9
