REMARK  Name = 71693878
REMARK  9 active torsions:
REMARK  status: ('A' for Active; 'I' for Inactive)
REMARK    1  A    between atoms: O_4  and  C_12
REMARK    2  A    between atoms: O_5  and  C_14
REMARK    3  A    between atoms: O_8  and  C_22
REMARK    4  A    between atoms: O_8  and  C_28
REMARK    5  A    between atoms: N_9  and  C_11
REMARK    6  A    between atoms: C_10  and  C_15
REMARK    7  A    between atoms: C_18  and  C_21
REMARK    8  A    between atoms: C_23  and  C_26
REMARK    9  A    between atoms: C_25  and  C_27
REMARK                            x       y       z     vdW  Elec       q    Type
REMARK                         _______ _______ _______ _____ _____    ______ ____
ROOT
ATOM     10  C   UNL     1       1.876   1.378   0.971  0.00  0.00    +0.044 C 
ATOM     11  C   UNL     1       0.966   2.037  -0.091  0.00  0.00    +0.112 C 
ATOM     12  C   UNL     1       1.282   3.526   0.043  0.00  0.00    +0.164 C 
ATOM     13  C   UNL     1       3.035   2.380   1.213  0.00  0.00    +0.044 C 
ATOM     14  C   UNL     1       2.792   3.541   0.251  0.00  0.00    +0.145 C 
ENDROOT
BRANCH  10  15
ATOM     15  C   UNL     1       2.326  -0.015   0.584  0.00  0.00    -0.042 A 
ATOM     16  C   UNL     1       3.060  -0.210  -0.586  0.00  0.00    +0.007 A 
ATOM     17  C   UNL     1       2.006  -1.102   1.396  0.00  0.00    +0.007 A 
ATOM     19  C   UNL     1       3.474  -1.493  -0.944  0.00  0.00    +0.046 A 
ATOM     20  C   UNL     1       2.421  -2.385   1.039  0.00  0.00    +0.046 A 
ATOM     22  C   UNL     1       3.155  -2.581  -0.131  0.00  0.00    +0.120 A 
BRANCH  22   8
ATOM      8  O   UNL     1       3.559  -3.833  -0.480  0.00  0.00    -0.495 OA
ATOM     28  C   UNL     1       3.196  -4.899   0.396  0.00  0.00    +0.277 C 
ENDBRANCH  22   8
ENDBRANCH  10  15
BRANCH  11   9
ATOM      6  O   UNL     1      -0.572  -0.107  -1.224  0.00  0.00    -0.270 OA
ATOM      9  N   UNL     1      -0.428   1.759   0.146  0.00  0.00    -0.305 N 
ATOM     18  C   UNL     1      -1.090   0.694  -0.450  0.00  0.00    +0.248 C 
ATOM     29  H   UNL     1      -0.925   2.343   0.812  0.00  0.00    +0.149 HD
BRANCH  18  21
ATOM      7  O   UNL     1      -4.533  -0.396   0.249  0.00  0.00    -0.455 OA
ATOM     21  C   UNL     1      -2.533   0.559  -0.124  0.00  0.00    +0.087 A 
ATOM     23  C   UNL     1      -3.234  -0.623  -0.079  0.00  0.00    +0.220 A 
ATOM     24  C   UNL     1      -3.461   1.579   0.196  0.00  0.00    +0.058 A 
ATOM     25  C   UNL     1      -4.663   0.947   0.415  0.00  0.00    +0.103 A 
ATOM     27  C   UNL     1      -6.002   1.430   0.780  0.00  0.00    +0.086 C 
BRANCH  23  26
ATOM      1  F   UNL     1      -3.557  -2.639  -1.325  0.00  0.00    -0.163 F 
ATOM      2  F   UNL     1      -3.063  -2.851   0.776  0.00  0.00    -0.163 F 
ATOM      3  F   UNL     1      -1.543  -2.199  -0.635  0.00  0.00    -0.163 F 
ATOM     26  C   UNL     1      -2.865  -2.029  -0.307  0.00  0.00    +0.451 C 
ENDBRANCH  23  26
ENDBRANCH  18  21
ENDBRANCH  11   9
BRANCH  12   4
ATOM      4  O   UNL     1       0.917   4.258  -1.111  0.00  0.00    -0.387 OA
ATOM     30  H   UNL     1       1.233   5.169  -0.991  0.00  0.00    +0.210 HD
ENDBRANCH  12   4
BRANCH  14   5
ATOM      5  O   UNL     1       3.478   3.275  -0.968  0.00  0.00    -0.389 OA
ATOM     31  H   UNL     1       4.429   3.258  -0.770  0.00  0.00    +0.210 HD
ENDBRANCH  14   5
TORSDOF 7
