REMARK  Name = 7143920
REMARK  4 active torsions:
REMARK  status: ('A' for Active; 'I' for Inactive)
REMARK    1  A    between atoms: S_2  and  N_6
REMARK    2  A    between atoms: S_2  and  C_19
REMARK    3  A    between atoms: C_17  and  C_20
REMARK    4  A    between atoms: C_21  and  C_22
REMARK                            x       y       z     vdW  Elec       q    Type
REMARK                         _______ _______ _______ _____ _____    ______ ____
ROOT
ATOM      5  O   UNL     1       0.165  -1.354  -1.905  0.00  0.00    -0.267 OA
ATOM      6  N   UNL     1      -4.013   0.700  -0.147  0.00  0.00    -0.180 NA
ATOM      7  N   UNL     1      -1.554  -1.278  -0.331  0.00  0.00    -0.311 N 
ATOM      8  C   UNL     1      -4.008  -1.663  -0.954  0.00  0.00    +0.025 C 
ATOM      9  C   UNL     1      -3.404  -1.171   1.374  0.00  0.00    +0.052 C 
ATOM     10  C   UNL     1      -4.148  -2.158   0.479  0.00  0.00    +0.017 C 
ATOM     11  C   UNL     1      -4.627  -0.264  -1.105  0.00  0.00    +0.114 C 
ATOM     12  C   UNL     1      -4.061   0.218   1.266  0.00  0.00    +0.118 C 
ATOM     13  C   UNL     1      -2.527  -1.694  -1.351  0.00  0.00    +0.130 C 
ATOM     14  C   UNL     1      -1.936  -1.092   0.999  0.00  0.00    +0.026 A 
ATOM     15  C   UNL     1      -1.011  -0.824   1.934  0.00  0.00    +0.022 A 
ATOM     16  C   UNL     1      -0.209  -1.177  -0.744  0.00  0.00    +0.259 A 
ATOM     17  C   UNL     1       0.802  -0.849   0.322  0.00  0.00    +0.040 A 
ATOM     18  C   UNL     1       0.376  -0.700   1.584  0.00  0.00    +0.015 A 
ENDROOT
BRANCH   6   2
ATOM      2  S   UNL     1      -4.428   2.343  -0.382  0.00  0.00    +0.029 S 
ATOM      3  O   UNL     1      -4.502   2.607  -1.802  0.00  0.00    -0.158 OA
ATOM      4  O   UNL     1      -3.623   3.158   0.501  0.00  0.00    -0.158 OA
ATOM     19  C   UNL     1      -6.083   2.313   0.257  0.00  0.00    +0.215 C 
ENDBRANCH   6   2
BRANCH  17  20
ATOM     20  C   UNL     1       2.194  -0.713  -0.024  0.00  0.00    +0.014 C 
ATOM     21  C   UNL     1       3.031   0.098   0.634  0.00  0.00    +0.008 C 
BRANCH  21  22
ATOM      1 CL   UNL     1       8.807   0.825  -0.669  0.00  0.00    -0.084 Cl
ATOM     22  C   UNL     1       4.458   0.278   0.312  0.00  0.00    -0.025 A 
ATOM     23  C   UNL     1       5.113  -0.690  -0.433  0.00  0.00    +0.009 A 
ATOM     24  C   UNL     1       5.117   1.411   0.760  0.00  0.00    +0.009 A 
ATOM     25  C   UNL     1       6.463  -0.520  -0.737  0.00  0.00    +0.020 A 
ATOM     26  C   UNL     1       6.468   1.581   0.455  0.00  0.00    +0.020 A 
ATOM     27  C   UNL     1       7.141   0.616  -0.294  0.00  0.00    +0.041 A 
ENDBRANCH  21  22
ENDBRANCH  17  20
TORSDOF 3
