REMARK  Name = 45361421
REMARK  16 active torsions:
REMARK  status: ('A' for Active; 'I' for Inactive)
REMARK    1  A    between atoms: O_1  and  C_10
REMARK    2  A    between atoms: O_4  and  C_34
REMARK    3  A    between atoms: O_4  and  C_35
REMARK    4  A    between atoms: N_5  and  C_14
REMARK    5  A    between atoms: N_6  and  C_25
REMARK    6  A    between atoms: C_7  and  C_17
REMARK    7  A    between atoms: C_9  and  C_19
REMARK    8  A    between atoms: C_13  and  C_18
REMARK    9  A    between atoms: C_18  and  C_20
REMARK   10  A    between atoms: C_18  and  C_21
REMARK   11  A    between atoms: C_22  and  C_23
REMARK   12  A    between atoms: C_23  and  C_24
REMARK   13  A    between atoms: C_24  and  C_26
REMARK   14  A    between atoms: C_24  and  C_27
REMARK   15  A    between atoms: C_24  and  C_28
REMARK   16  A    between atoms: C_25  and  C_29
REMARK                            x       y       z     vdW  Elec       q    Type
REMARK                         _______ _______ _______ _____ _____    ______ ____
ROOT
ATOM      7  C   UNL     1      -0.740   0.154   0.947  0.00  0.00    -0.027 C 
ATOM      8  C   UNL     1      -1.047  -0.843  -0.220  0.00  0.00    +0.028 C 
ATOM      9  C   UNL     1      -2.585  -1.150  -0.302  0.00  0.00    +0.012 C 
ATOM     10  C   UNL     1      -0.119  -2.090  -0.156  0.00  0.00    +0.122 C 
ATOM     11  C   UNL     1       0.763   0.522   0.928  0.00  0.00    +0.007 C 
ATOM     12  C   UNL     1      -1.546   1.454   0.725  0.00  0.00    +0.009 C 
ATOM     13  C   UNL     1       1.379  -1.713  -0.069  0.00  0.00    +0.029 C 
ATOM     14  C   UNL     1      -3.391   0.171  -0.450  0.00  0.00    +0.076 C 
ATOM     15  C   UNL     1       1.674  -0.694   1.031  0.00  0.00    +0.007 C 
ATOM     16  C   UNL     1      -3.045   1.216   0.611  0.00  0.00    +0.023 C 
ATOM     17  C   UNL     1      -1.091  -0.433   2.337  0.00  0.00    +0.011 C 
ATOM     19  C   UNL     1      -2.963  -2.103  -1.449  0.00  0.00    +0.010 C 
ENDROOT
BRANCH  14   5
ATOM      3  O   UNL     1      -5.455   1.658  -1.835  0.00  0.00    -0.276 OA
ATOM      5  N   UNL     1      -4.819  -0.065  -0.412  0.00  0.00    -0.312 N 
ATOM     22  C   UNL     1      -5.731   0.704  -1.112  0.00  0.00    +0.214 C 
ATOM     36  H   UNL     1      -5.157  -0.811   0.189  0.00  0.00    +0.149 HD
BRANCH  22  23
ATOM     23  C   UNL     1      -7.169   0.258  -0.898  0.00  0.00    +0.102 C 
BRANCH  23  24
ATOM     24  C   UNL     1      -7.869   0.898   0.324  0.00  0.00    -0.029 C 
ATOM     26  C   UNL     1      -9.310   0.380   0.470  0.00  0.00    +0.011 C 
ATOM     27  C   UNL     1      -7.079   0.502   1.587  0.00  0.00    +0.011 C 
ATOM     28  C   UNL     1      -7.889   2.432   0.224  0.00  0.00    +0.011 C 
ENDBRANCH  23  24
ENDBRANCH  22  23
ENDBRANCH  14   5
BRANCH  10   1
ATOM      1  O   UNL     1      -0.277  -2.864  -1.346  0.00  0.00    -0.391 OA
ATOM     37  H   UNL     1      -0.039  -2.304  -2.105  0.00  0.00    +0.210 HD
ENDBRANCH  10   1
BRANCH  13  18
ATOM     18  C   UNL     1       2.266  -2.948   0.125  0.00  0.00    +0.077 C 
ATOM     20  C   UNL     1       1.877  -3.678   1.406  0.00  0.00    +0.017 C 
BRANCH  18  21
ATOM      2  O   UNL     1       4.477  -2.764   1.097  0.00  0.00    -0.276 OA
ATOM      6  N   UNL     1       4.119  -1.885  -1.020  0.00  0.00    -0.311 N 
ATOM     21  C   UNL     1       3.735  -2.536   0.143  0.00  0.00    +0.216 C 
ATOM     38  H   UNL     1       3.459  -1.782  -1.784  0.00  0.00    +0.149 HD
BRANCH   6  25
ATOM     25  C   UNL     1       5.462  -1.397  -1.236  0.00  0.00    +0.139 C 
BRANCH  25  29
ATOM     29  C   UNL     1       5.631   0.014  -0.752  0.00  0.00    -0.030 A 
ATOM     30  C   UNL     1       5.106   1.073  -1.493  0.00  0.00    +0.009 A 
ATOM     31  C   UNL     1       6.314   0.266   0.438  0.00  0.00    +0.009 A 
ATOM     32  C   UNL     1       5.264   2.384  -1.043  0.00  0.00    +0.046 A 
ATOM     33  C   UNL     1       6.472   1.577   0.887  0.00  0.00    +0.046 A 
ATOM     34  C   UNL     1       5.947   2.636   0.147  0.00  0.00    +0.120 A 
BRANCH  34   4
ATOM      4  O   UNL     1       6.100   3.915   0.586  0.00  0.00    -0.495 OA
ATOM     35  C   UNL     1       5.537   4.949  -0.220  0.00  0.00    +0.277 C 
ENDBRANCH  34   4
ENDBRANCH  25  29
ENDBRANCH   6  25
ENDBRANCH  18  21
ENDBRANCH  13  18
TORSDOF 9
