REMARK  Name = 26761985
REMARK  3 active torsions:
REMARK  status: ('A' for Active; 'I' for Inactive)
REMARK    1  A    between atoms: N_6  and  C_11
REMARK    2  A    between atoms: C_17  and  C_23
REMARK    3  A    between atoms: C_25  and  C_26
REMARK                            x       y       z     vdW  Elec       q    Type
REMARK                         _______ _______ _______ _____ _____    ______ ____
ROOT
ATOM      3  O   UNL     1      -3.043   0.416   2.228  0.00  0.00    -0.253 OA
ATOM      5  N   UNL     1      -1.834  -0.816   0.663  0.00  0.00    -0.268 N 
ATOM      6  N   UNL     1      -3.801   0.355   0.060  0.00  0.00    -0.296 N 
ATOM      7  N   UNL     1      -0.747  -3.446  -1.767  0.00  0.00    -0.347 N 
ATOM      8  N   UNL     1       0.158  -4.426   0.025  0.00  0.00    -0.240 NA
ATOM     17  C   UNL     1      -0.744  -1.117   1.655  0.00  0.00    +0.172 C 
ATOM     18  C   UNL     1      -0.426  -2.641   1.724  0.00  0.00    +0.089 C 
ATOM     19  C   UNL     1      -1.667  -1.306  -0.737  0.00  0.00    +0.165 C 
ATOM     20  C   UNL     1      -2.906   0.011   1.069  0.00  0.00    +0.303 C 
ATOM     21  C   UNL     1      -0.973  -2.608  -0.716  0.00  0.00    +0.056 A 
ATOM     22  C   UNL     1      -0.407  -3.230   0.368  0.00  0.00    +0.066 A 
ATOM     24  C   UNL     1      -0.063  -4.527  -1.270  0.00  0.00    +0.197 A 
ATOM     32  H   UNL     1      -3.563   0.177  -0.907  0.00  0.00    +0.151 HD
ATOM     33  H   UNL     1      -1.026  -3.302  -2.729  0.00  0.00    +0.167 HD
ENDROOT
BRANCH   6  11
ATOM     11  C   UNL     1      -4.946   1.205   0.300  0.00  0.00    +0.074 C 
ATOM     12  C   UNL     1      -4.578   2.683   0.136  0.00  0.00    +0.022 C 
ATOM     13  C   UNL     1      -6.118   0.820  -0.608  0.00  0.00    +0.022 C 
ATOM     14  C   UNL     1      -4.342   3.068  -1.325  0.00  0.00    +0.002 C 
ATOM     15  C   UNL     1      -5.880   1.207  -2.067  0.00  0.00    +0.002 C 
ATOM     16  C   UNL     1      -5.527   2.685  -2.207  0.00  0.00    +0.000 C 
ENDBRANCH   6  11
BRANCH  17  23
ATOM      4  O   UNL     1       0.378   1.032   2.044  0.00  0.00    -0.336 OA
ATOM      9  N   UNL     1       1.544  -0.381   0.755  0.00  0.00    -0.190 NA
ATOM     10  N   UNL     1       1.564   1.698   1.709  0.00  0.00    -0.056 NA
ATOM     23  C   UNL     1       0.447  -0.184   1.442  0.00  0.00    +0.249 A 
ATOM     25  C   UNL     1       2.198   0.800   0.948  0.00  0.00    +0.202 A 
BRANCH  25  26
ATOM      1 CL   UNL     1       6.105  -0.884  -1.951  0.00  0.00    -0.081 Cl
ATOM      2  F   UNL     1       7.191   1.795  -1.297  0.00  0.00    -0.204 F 
ATOM     26  C   UNL     1       3.485   1.052   0.368  0.00  0.00    +0.024 A 
ATOM     27  C   UNL     1       4.099   0.077  -0.418  0.00  0.00    +0.034 A 
ATOM     28  C   UNL     1       4.122   2.274   0.588  0.00  0.00    +0.014 A 
ATOM     29  C   UNL     1       5.351   0.323  -0.982  0.00  0.00    +0.077 A 
ATOM     30  C   UNL     1       5.373   2.520   0.024  0.00  0.00    +0.040 A 
ATOM     31  C   UNL     1       5.988   1.544  -0.762  0.00  0.00    +0.142 A 
ENDBRANCH  25  26
ENDBRANCH  17  23
TORSDOF 3
