REMARK  Name = 71693354
REMARK  8 active torsions:
REMARK  status: ('A' for Active; 'I' for Inactive)
REMARK    1  A    between atoms: O_3  and  C_15
REMARK    2  A    between atoms: N_5  and  C_13
REMARK    3  A    between atoms: N_6  and  C_20
REMARK    4  A    between atoms: C_7  and  C_12
REMARK    5  A    between atoms: C_10  and  C_15
REMARK    6  A    between atoms: C_11  and  C_14
REMARK    7  A    between atoms: C_13  and  C_18
REMARK    8  A    between atoms: C_13  and  C_19
REMARK                            x       y       z     vdW  Elec       q    Type
REMARK                         _______ _______ _______ _____ _____    ______ ____
ROOT
ATOM      1  O   UNL     1      -2.049  -1.853   1.207  0.00  0.00    -0.361 OA
ATOM      4  O   UNL     1      -3.228   1.434   2.185  0.00  0.00    -0.273 OA
ATOM      5  N   UNL     1      -3.084   0.501   0.061  0.00  0.00    -0.289 N 
ATOM     10  C   UNL     1      -2.856  -0.708  -0.741  0.00  0.00    +0.135 C 
ATOM     11  C   UNL     1      -1.711  -1.554  -0.153  0.00  0.00    +0.171 C 
ATOM     16  C   UNL     1      -2.904   0.508   1.439  0.00  0.00    +0.242 C 
ATOM     17  C   UNL     1      -2.187  -0.706   2.014  0.00  0.00    +0.256 C 
ENDROOT
BRANCH  11  14
ATOM     14  C   UNL     1      -0.280  -1.054  -0.275  0.00  0.00    -0.017 A 
ATOM     20  C   UNL     1       2.345  -0.135  -0.498  0.00  0.00    +0.033 A 
ATOM     21  C   UNL     1       0.768  -1.801   0.262  0.00  0.00    +0.008 A 
ATOM     22  C   UNL     1      -0.016   0.153  -0.924  0.00  0.00    +0.008 A 
ATOM     23  C   UNL     1       2.081  -1.342   0.150  0.00  0.00    +0.023 A 
ATOM     24  C   UNL     1       1.297   0.612  -1.036  0.00  0.00    +0.023 A 
BRANCH  20   6
ATOM      2  O   UNL     1       4.929  -1.340   0.466  0.00  0.00    -0.275 OA
ATOM      6  N   UNL     1       3.658   0.325  -0.610  0.00  0.00    -0.285 N 
ATOM     12  C   UNL     1       4.825  -0.282  -0.139  0.00  0.00    +0.220 C 
ATOM     25  H   UNL     1       3.767   1.209  -1.102  0.00  0.00    +0.155 HD
BRANCH  12   7
ATOM      7  C   UNL     1       6.071   0.493  -0.435  0.00  0.00    +0.075 C 
ATOM      8  C   UNL     1       6.965   0.858   0.700  0.00  0.00    +0.013 C 
ATOM      9  C   UNL     1       6.146   1.912   0.017  0.00  0.00    +0.013 C 
ENDBRANCH  12   7
ENDBRANCH  20   6
ENDBRANCH  11  14
BRANCH   5  13
ATOM     13  C   UNL     1      -3.683   1.649  -0.609  0.00  0.00    +0.070 C 
ATOM     18  C   UNL     1      -2.819   2.888  -0.408  0.00  0.00    +0.028 C 
ATOM     19  C   UNL     1      -5.103   1.879  -0.108  0.00  0.00    +0.028 C 
ENDBRANCH   5  13
BRANCH  10  15
ATOM     15  C   UNL     1      -4.150  -1.531  -0.819  0.00  0.00    +0.181 C 
BRANCH  15   3
ATOM      3  O   UNL     1      -5.015  -0.907  -1.746  0.00  0.00    -0.393 OA
ATOM     26  H   UNL     1      -5.829  -1.437  -1.783  0.00  0.00    +0.209 HD
ENDBRANCH  15   3
ENDBRANCH  10  15
TORSDOF 6
