REMARK  Name = 45784315
REMARK  3 active torsions:
REMARK  status: ('A' for Active; 'I' for Inactive)
REMARK    1  A    between atoms: N_1  and  C_5
REMARK    2  A    between atoms: C_8  and  C_13
REMARK    3  A    between atoms: C_18  and  C_20
REMARK                            x       y       z     vdW  Elec       q    Type
REMARK                         _______ _______ _______ _____ _____    ______ ____
ROOT
ATOM      2  N   UNL     1      -1.137   0.692  -1.121  0.00  0.00    -0.342 N 
ATOM      3  N   UNL     1      -0.525   0.045   0.915  0.00  0.00    -0.232 NA
ATOM     13  C   UNL     1      -0.111   0.537  -0.232  0.00  0.00    +0.113 A 
ATOM     14  C   UNL     1      -2.290   0.272  -0.509  0.00  0.00    +0.067 A 
ATOM     15  C   UNL     1      -1.881  -0.127   0.761  0.00  0.00    +0.089 A 
ATOM     16  C   UNL     1      -3.614   0.209  -0.943  0.00  0.00    +0.046 A 
ATOM     17  C   UNL     1      -2.837  -0.620   1.665  0.00  0.00    +0.031 A 
ATOM     18  C   UNL     1      -4.553  -0.285  -0.030  0.00  0.00    +0.054 A 
ATOM     19  C   UNL     1      -4.173  -0.692   1.250  0.00  0.00    +0.021 A 
ATOM     21  H   UNL     1      -1.063   1.052  -2.064  0.00  0.00    +0.167 HD
ENDROOT
BRANCH  13   8
ATOM      1  N   UNL     1       3.550   0.365  -0.182  0.00  0.00    -0.299 NA
ATOM      8  C   UNL     1       1.307   0.910  -0.596  0.00  0.00    +0.070 C 
ATOM      9  C   UNL     1       2.277  -0.277  -0.519  0.00  0.00    +0.096 C 
ATOM     11  C   UNL     1       3.212   1.351   0.846  0.00  0.00    +0.085 C 
ATOM     12  C   UNL     1       1.942   1.990   0.298  0.00  0.00    +0.028 C 
BRANCH   1   5
ATOM      5  C   UNL     1       4.509  -0.618   0.336  0.00  0.00    +0.057 C 
ATOM      6  C   UNL     1       5.931  -0.020   0.306  0.00  0.00    +0.019 C 
ATOM      7  C   UNL     1       4.960  -1.552  -0.806  0.00  0.00    +0.019 C 
ATOM     10  C   UNL     1       6.401  -1.364  -0.286  0.00  0.00    +0.003 C 
ENDBRANCH   1   5
ENDBRANCH  13   8
BRANCH  18  20
ATOM      4  N   UNL     1      -7.041  -0.444  -0.734  0.00  0.00    -0.191 NA
ATOM     20  C   UNL     1      -5.926  -0.373  -0.419  0.00  0.00    +0.099 C 
ENDBRANCH  18  20
TORSDOF 3
