REMARK  Name = 45783357
REMARK  9 active torsions:
REMARK  status: ('A' for Active; 'I' for Inactive)
REMARK    1  A    between atoms: O_2  and  C_24
REMARK    2  A    between atoms: O_2  and  C_26
REMARK    3  A    between atoms: O_3  and  C_27
REMARK    4  A    between atoms: O_3  and  C_28
REMARK    5  A    between atoms: N_4  and  C_13
REMARK    6  A    between atoms: C_9  and  C_14
REMARK    7  A    between atoms: C_13  and  C_15
REMARK    8  A    between atoms: C_16  and  C_19
REMARK    9  A    between atoms: C_26  and  C_27
REMARK                            x       y       z     vdW  Elec       q    Type
REMARK                         _______ _______ _______ _____ _____    ______ ____
ROOT
ATOM      1  O   UNL     1      -1.751   0.342  -1.966  0.00  0.00    -0.336 OA
ATOM      5  N   UNL     1      -1.351   1.216   0.057  0.00  0.00    -0.190 NA
ATOM      6  N   UNL     1      -0.371   0.227  -1.759  0.00  0.00    -0.056 NA
ATOM     14  C   UNL     1      -2.252   0.935  -0.850  0.00  0.00    +0.245 A 
ATOM     16  C   UNL     1      -0.213   0.764  -0.545  0.00  0.00    +0.202 A 
ENDROOT
BRANCH  16  19
ATOM      8  N   UNL     1       3.564   1.060   1.337  0.00  0.00    -0.221 NA
ATOM     19  C   UNL     1       1.068   0.864   0.093  0.00  0.00    +0.029 A 
ATOM     22  C   UNL     1       2.207   0.393  -0.550  0.00  0.00    +0.079 A 
ATOM     23  C   UNL     1       1.175   1.434   1.357  0.00  0.00    +0.031 A 
ATOM     24  C   UNL     1       3.420   0.513   0.109  0.00  0.00    +0.215 A 
ATOM     25  C   UNL     1       2.434   1.508   1.930  0.00  0.00    +0.115 A 
BRANCH  24   2
ATOM      2  O   UNL     1       4.558   0.056  -0.503  0.00  0.00    -0.474 OA
BRANCH   2  26
ATOM     26  C   UNL     1       5.776   0.204   0.217  0.00  0.00    +0.258 C 
BRANCH  26  27
ATOM     27  C   UNL     1       6.910  -0.377  -0.605  0.00  0.00    +0.200 C 
BRANCH  27   3
ATOM      3  O   UNL     1       8.131  -0.211   0.106  0.00  0.00    -0.380 OA
ATOM     28  C   UNL     1       9.229  -0.758  -0.610  0.00  0.00    +0.194 C 
ENDBRANCH  27   3
ENDBRANCH  26  27
ENDBRANCH   2  26
ENDBRANCH  24   2
ENDBRANCH  16  19
BRANCH  14   9
ATOM      4  N   UNL     1      -4.405   0.532   0.330  0.00  0.00    -0.287 NA
ATOM      9  C   UNL     1      -3.747   1.174  -0.826  0.00  0.00    +0.146 C 
ATOM     10  C   UNL     1      -4.108   2.666  -0.703  0.00  0.00    +0.030 C 
ATOM     11  C   UNL     1      -5.020   2.755   0.513  0.00  0.00    +0.017 C 
ATOM     12  C   UNL     1      -5.575   1.351   0.646  0.00  0.00    +0.085 C 
BRANCH   4  13
ATOM     13  C   UNL     1      -4.761  -0.861   0.088  0.00  0.00    +0.121 C 
BRANCH  13  15
ATOM      7  N   UNL     1      -2.100  -3.426  -0.733  0.00  0.00    -0.263 NA
ATOM     15  C   UNL     1      -3.575  -1.776   0.241  0.00  0.00    -0.015 A 
ATOM     17  C   UNL     1      -2.870  -1.841   1.437  0.00  0.00    +0.008 A 
ATOM     18  C   UNL     1      -3.154  -2.582  -0.805  0.00  0.00    +0.115 A 
ATOM     20  C   UNL     1      -1.780  -2.698   1.550  0.00  0.00    +0.020 A 
ATOM     21  C   UNL     1      -1.440  -3.462   0.446  0.00  0.00    +0.111 A 
ENDBRANCH  13  15
ENDBRANCH   4  13
ENDBRANCH  14   9
TORSDOF 8
