REMARK  Name = 40780422
REMARK  9 active torsions:
REMARK  status: ('A' for Active; 'I' for Inactive)
REMARK    1  A    between atoms: N_4  and  C_11
REMARK    2  A    between atoms: N_5  and  C_20
REMARK    3  A    between atoms: N_7  and  C_21
REMARK    4  A    between atoms: N_8  and  C_22
REMARK    5  A    between atoms: C_9  and  C_12
REMARK    6  A    between atoms: C_15  and  C_17
REMARK    7  A    between atoms: C_16  and  C_18
REMARK    8  A    between atoms: C_21  and  C_25
REMARK    9  A    between atoms: C_21  and  C_26
REMARK                            x       y       z     vdW  Elec       q    Type
REMARK                         _______ _______ _______ _____ _____    ______ ____
ROOT
ATOM      5  N   UNL     1       2.529   0.086  -0.454  0.00  0.00    -0.234 N 
ATOM      6  N   UNL     1       2.463   1.253  -1.117  0.00  0.00    -0.171 NA
ATOM     12  C   UNL     1       0.465   0.728  -0.144  0.00  0.00    +0.003 A 
ATOM     15  C   UNL     1       1.359  -0.274   0.146  0.00  0.00    +0.046 A 
ATOM     16  C   UNL     1       1.200   1.640  -0.924  0.00  0.00    +0.064 A 
ATOM     17  C   UNL     1       1.197  -1.517   0.928  0.00  0.00    +0.066 C 
ATOM     18  C   UNL     1       0.732   2.907  -1.513  0.00  0.00    +0.068 C 
ENDROOT
BRANCH   5  20
ATOM     20  C   UNL     1       3.727  -0.630  -0.431  0.00  0.00    +0.096 A 
ATOM     22  C   UNL     1       4.892  -0.078   0.101  0.00  0.00    +0.151 A 
ATOM     23  C   UNL     1       3.744  -1.922  -0.957  0.00  0.00    +0.030 A 
ATOM     24  C   UNL     1       6.074  -0.818   0.107  0.00  0.00    +0.035 A 
ATOM     27  C   UNL     1       4.926  -2.662  -0.951  0.00  0.00    +0.002 A 
ATOM     28  C   UNL     1       6.092  -2.110  -0.419  0.00  0.00    +0.002 A 
BRANCH  22   8
ATOM      2  O   UNL     1       5.173   2.200  -0.113  0.00  0.00    -0.126 OA
ATOM      3  O   UNL     1       4.655   1.392   1.861  0.00  0.00    -0.126 OA
ATOM      8  N   UNL     1       4.908   1.238   0.644  0.00  0.00    +0.059 N 
ENDBRANCH  22   8
ENDBRANCH   5  20
BRANCH  12   9
ATOM      9  C   UNL     1      -0.983   0.824   0.280  0.00  0.00    +0.047 C 
ATOM     10  C   UNL     1      -1.837  -0.371  -0.191  0.00  0.00    +0.039 C 
ATOM     11  C   UNL     1      -2.870  -0.611   0.917  0.00  0.00    +0.098 C 
ATOM     13  C   UNL     1      -1.205   0.813   1.765  0.00  0.00    -0.021 C 
ATOM     14  C   UNL     1      -2.236   0.033   2.106  0.00  0.00    -0.009 C 
BRANCH  11   4
ATOM      1  O   UNL     1      -5.176  -1.782  -0.364  0.00  0.00    -0.253 OA
ATOM      4  N   UNL     1      -4.131   0.027   0.650  0.00  0.00    -0.293 N 
ATOM      7  N   UNL     1      -6.297   0.234  -0.110  0.00  0.00    -0.297 N 
ATOM     19  C   UNL     1      -5.200  -0.614   0.022  0.00  0.00    +0.300 C 
ATOM     29  H   UNL     1      -4.241   1.010   0.885  0.00  0.00    +0.151 HD
ATOM     30  H   UNL     1      -6.247   1.157   0.310  0.00  0.00    +0.150 HD
BRANCH   7  21
ATOM     21  C   UNL     1      -7.536  -0.180  -0.726  0.00  0.00    +0.068 C 
ATOM     25  C   UNL     1      -8.200   1.000  -1.423  0.00  0.00    +0.027 C 
ATOM     26  C   UNL     1      -8.464  -0.805   0.308  0.00  0.00    +0.027 C 
ENDBRANCH   7  21
ENDBRANCH  11   4
ENDBRANCH  12   9
TORSDOF 5
