REMARK  Name = 75536290
REMARK  10 active torsions:
REMARK  status: ('A' for Active; 'I' for Inactive)
REMARK    1  A    between atoms: O_3  and  C_9
REMARK    2  A    between atoms: O_5  and  C_20
REMARK    3  A    between atoms: O_5  and  C_26
REMARK    4  A    between atoms: N_6  and  C_13
REMARK    5  A    between atoms: N_6  and  C_16
REMARK    6  A    between atoms: C_8  and  C_13
REMARK    7  A    between atoms: C_10  and  C_14
REMARK    8  A    between atoms: C_14  and  C_15
REMARK    9  A    between atoms: C_16  and  C_18
REMARK   10  A    between atoms: C_19  and  C_20
REMARK                            x       y       z     vdW  Elec       q    Type
REMARK                         _______ _______ _______ _____ _____    ______ ____
ROOT
ATOM      2  O   UNL     1       2.638  -0.020   0.631  0.00  0.00    -0.369 OA
ATOM      8  C   UNL     1       2.784   1.391   0.839  0.00  0.00    +0.161 C 
ATOM      9  C   UNL     1       4.247   1.829   0.695  0.00  0.00    +0.145 C 
ATOM     10  C   UNL     1       3.146  -0.507  -0.614  0.00  0.00    +0.125 C 
ATOM     11  C   UNL     1       4.888   1.302  -0.586  0.00  0.00    +0.036 C 
ATOM     12  C   UNL     1       4.636  -0.195  -0.747  0.00  0.00    +0.034 C 
ENDROOT
BRANCH   9   3
ATOM      3  O   UNL     1       4.993   1.312   1.801  0.00  0.00    -0.389 OA
ATOM     28  H   UNL     1       5.905   1.639   1.718  0.00  0.00    +0.210 HD
ENDBRANCH   9   3
BRANCH   8  13
ATOM     13  C   UNL     1       1.834   2.180  -0.060  0.00  0.00    +0.115 C 
BRANCH  13   6
ATOM      6  N   UNL     1       0.459   1.746   0.130  0.00  0.00    -0.309 NA
ATOM     27  H   UNL     1       0.386   0.752  -0.089  0.00  0.00    +0.122 HD
BRANCH   6  16
ATOM     16  C   UNL     1      -0.451   2.505  -0.719  0.00  0.00    +0.116 C 
BRANCH  16  18
ATOM      1 CL   UNL     1      -6.170   0.801   0.047  0.00  0.00    -0.084 Cl
ATOM     18  C   UNL     1      -1.882   2.079  -0.527  0.00  0.00    -0.033 A 
ATOM     21  C   UNL     1      -2.417   1.058  -1.313  0.00  0.00    +0.006 A 
ATOM     22  C   UNL     1      -2.674   2.706   0.435  0.00  0.00    +0.006 A 
ATOM     23  C   UNL     1      -3.743   0.663  -1.136  0.00  0.00    +0.020 A 
ATOM     24  C   UNL     1      -4.000   2.312   0.612  0.00  0.00    +0.020 A 
ATOM     25  C   UNL     1      -4.534   1.290  -0.173  0.00  0.00    +0.041 A 
ENDBRANCH  16  18
ENDBRANCH   6  16
ENDBRANCH  13   6
ENDBRANCH   8  13
BRANCH  10  14
ATOM     14  C   UNL     1       2.901  -2.010  -0.652  0.00  0.00    +0.090 C 
BRANCH  14  15
ATOM      4  O   UNL     1      -0.598  -2.751  -1.090  0.00  0.00    -0.357 OA
ATOM      7  N   UNL     1       0.663  -2.437  -1.580  0.00  0.00    -0.083 NA
ATOM     15  C   UNL     1       1.441  -2.342  -0.498  0.00  0.00    +0.086 A 
ATOM     17  C   UNL     1       0.732  -2.582   0.692  0.00  0.00    +0.073 A 
ATOM     19  C   UNL     1      -0.545  -2.834   0.264  0.00  0.00    +0.163 A 
BRANCH  19  20
ATOM     20  C   UNL     1      -1.800  -3.160   0.951  0.00  0.00    +0.236 C 
BRANCH  20   5
ATOM      5  O   UNL     1      -2.666  -2.022   0.969  0.00  0.00    -0.375 OA
ATOM     26  C   UNL     1      -3.886  -2.316   1.629  0.00  0.00    +0.194 C 
ENDBRANCH  20   5
ENDBRANCH  19  20
ENDBRANCH  14  15
ENDBRANCH  10  14
TORSDOF 9
