REMARK  Name = 45783397
REMARK  10 active torsions:
REMARK  status: ('A' for Active; 'I' for Inactive)
REMARK    1  A    between atoms: O_2  and  C_30
REMARK    2  A    between atoms: O_2  and  C_32
REMARK    3  A    between atoms: N_4  and  C_14
REMARK    4  A    between atoms: N_7  and  C_23
REMARK    5  A    between atoms: N_8  and  C_27
REMARK    6  A    between atoms: C_10  and  C_15
REMARK    7  A    between atoms: C_14  and  C_16
REMARK    8  A    between atoms: C_19  and  C_22
REMARK    9  A    between atoms: C_27  and  C_30
REMARK   10  A    between atoms: C_29  and  C_31
REMARK                            x       y       z     vdW  Elec       q    Type
REMARK                         _______ _______ _______ _____ _____    ______ ____
ROOT
ATOM      4  N   UNL     1      -3.299   0.646  -0.045  0.00  0.00    -0.287 NA
ATOM     10  C   UNL     1      -3.194  -0.155   1.191  0.00  0.00    +0.146 C 
ATOM     11  C   UNL     1      -4.168  -1.329   0.981  0.00  0.00    +0.030 C 
ATOM     12  C   UNL     1      -4.817  -1.070  -0.372  0.00  0.00    +0.017 C 
ATOM     13  C   UNL     1      -4.647   0.423  -0.569  0.00  0.00    +0.085 C 
ENDROOT
BRANCH  10  15
ATOM      1  O   UNL     1      -1.246  -0.244   2.665  0.00  0.00    -0.336 OA
ATOM      5  N   UNL     1      -0.972  -1.321   0.720  0.00  0.00    -0.190 NA
ATOM      6  N   UNL     1       0.050  -0.774   2.693  0.00  0.00    -0.056 NA
ATOM     15  C   UNL     1      -1.778  -0.613   1.470  0.00  0.00    +0.245 A 
ATOM     19  C   UNL     1       0.137  -1.395   1.512  0.00  0.00    +0.205 A 
BRANCH  19  22
ATOM      8  N   UNL     1       0.862  -1.620  -1.224  0.00  0.00    -0.326 N 
ATOM      9  N   UNL     1       2.788  -2.873  -0.658  0.00  0.00    -0.240 NA
ATOM     22  C   UNL     1       1.315  -2.098   1.095  0.00  0.00    +0.062 A 
ATOM     24  C   UNL     1       1.684  -2.217  -0.235  0.00  0.00    +0.130 A 
ATOM     25  C   UNL     1       2.132  -2.689   2.053  0.00  0.00    +0.016 A 
ATOM     26  C   UNL     1       3.277  -3.372   1.656  0.00  0.00    +0.020 A 
ATOM     28  C   UNL     1       3.558  -3.435   0.301  0.00  0.00    +0.113 A 
ATOM     34  H   UNL     1       0.274  -0.855  -0.914  0.00  0.00    +0.148 HD
BRANCH   8  27
ATOM     27  C   UNL     1       1.161  -1.691  -2.617  0.00  0.00    +0.131 C 
BRANCH  27  30
ATOM     30  C   UNL     1       0.115  -0.928  -3.412  0.00  0.00    +0.178 C 
BRANCH  30   2
ATOM      2  O   UNL     1      -1.161  -1.521  -3.207  0.00  0.00    -0.381 OA
ATOM     32  C   UNL     1      -2.175  -0.843  -3.937  0.00  0.00    +0.194 C 
ENDBRANCH  30   2
ENDBRANCH  27  30
ENDBRANCH   8  27
ENDBRANCH  19  22
ENDBRANCH  10  15
BRANCH   4  14
ATOM     14  C   UNL     1      -3.018   2.061   0.161  0.00  0.00    +0.120 C 
BRANCH  14  16
ATOM     16  C   UNL     1      -1.539   2.335   0.226  0.00  0.00    -0.033 A 
ATOM     17  C   UNL     1      -0.989   2.928   1.363  0.00  0.00    +0.007 A 
ATOM     18  C   UNL     1      -0.719   1.997  -0.850  0.00  0.00    +0.007 A 
ATOM     20  C   UNL     1       0.381   3.183   1.423  0.00  0.00    +0.023 A 
ATOM     21  C   UNL     1       0.651   2.252  -0.790  0.00  0.00    +0.023 A 
ATOM     23  C   UNL     1       1.201   2.845   0.347  0.00  0.00    +0.033 A 
BRANCH  23   7
ATOM      3  O   UNL     1       3.376   2.322  -1.668  0.00  0.00    -0.276 OA
ATOM      7  N   UNL     1       2.571   3.100   0.407  0.00  0.00    -0.286 N 
ATOM     29  C   UNL     1       3.544   2.833  -0.566  0.00  0.00    +0.214 C 
ATOM     31  C   UNL     1       4.918   3.261  -0.115  0.00  0.00    +0.109 C 
ATOM     33  H   UNL     1       2.895   3.534   1.269  0.00  0.00    +0.155 HD
ENDBRANCH  23   7
ENDBRANCH  14  16
ENDBRANCH   4  14
TORSDOF 8
