REMARK  Name = 86769016
REMARK  4 active torsions:
REMARK  status: ('A' for Active; 'I' for Inactive)
REMARK    1  A    between atoms: N_3  and  C_14
REMARK    2  A    between atoms: N_4  and  C_15
REMARK    3  A    between atoms: C_14  and  C_16
REMARK    4  A    between atoms: C_15  and  C_17
REMARK                            x       y       z     vdW  Elec       q    Type
REMARK                         _______ _______ _______ _____ _____    ______ ____
ROOT
ATOM      1  O   UNL     1       2.163   2.796  -0.010  0.00  0.00    -0.252 OA
ATOM      2  N   UNL     1       0.069   1.750  -0.204  0.00  0.00    -0.278 N 
ATOM      3  N   UNL     1      -2.459   0.777   0.552  0.00  0.00    -0.292 NA
ATOM      4  N   UNL     1       1.850   0.747  -1.135  0.00  0.00    -0.278 N 
ATOM      8  C   UNL     1      -0.482   0.609  -0.904  0.00  0.00    +0.109 C 
ATOM      9  C   UNL     1      -1.452  -0.152  -0.001  0.00  0.00    +0.109 C 
ATOM     10  C   UNL     1       0.751  -0.184  -1.333  0.00  0.00    +0.133 C 
ATOM     11  C   UNL     1      -0.823   2.647   0.501  0.00  0.00    +0.125 C 
ATOM     12  C   UNL     1      -1.814   1.842   1.346  0.00  0.00    +0.104 C 
ATOM     13  C   UNL     1       1.450   1.883  -0.403  0.00  0.00    +0.306 C 
ENDROOT
BRANCH   3  14
ATOM     14  C   UNL     1      -3.428   0.049   1.370  0.00  0.00    +0.158 C 
BRANCH  14  16
ATOM      5  N   UNL     1      -5.449  -0.037  -0.103  0.00  0.00    -0.347 N 
ATOM      6  N   UNL     1      -4.464  -1.985   0.303  0.00  0.00    -0.239 NA
ATOM     16  C   UNL     1      -4.429  -0.691   0.530  0.00  0.00    +0.121 A 
ATOM     19  C   UNL     1      -6.180  -0.973  -0.778  0.00  0.00    +0.104 A 
ATOM     20  C   UNL     1      -5.553  -2.168  -0.512  0.00  0.00    +0.130 A 
ATOM     24  H   UNL     1      -5.630   0.958  -0.079  0.00  0.00    +0.167 HD
ENDBRANCH  14  16
ENDBRANCH   3  14
BRANCH   4  15
ATOM     15  C   UNL     1       3.205   0.427  -1.526  0.00  0.00    +0.164 C 
BRANCH  15  17
ATOM      7  N   UNL     1       4.037  -1.746  -0.829  0.00  0.00    -0.258 NA
ATOM     17  C   UNL     1       3.893  -0.439  -0.512  0.00  0.00    +0.059 A 
ATOM     18  C   UNL     1       4.340   0.126   0.672  0.00  0.00    +0.025 A 
ATOM     21  C   UNL     1       4.974  -0.704   1.590  0.00  0.00    +0.003 A 
ATOM     22  C   UNL     1       4.660  -2.521   0.088  0.00  0.00    +0.111 A 
ATOM     23  C   UNL     1       5.141  -2.053   1.300  0.00  0.00    +0.020 A 
ENDBRANCH  15  17
ENDBRANCH   4  15
TORSDOF 4
