REMARK  Name = 38344145
REMARK  8 active torsions:
REMARK  status: ('A' for Active; 'I' for Inactive)
REMARK    1  A    between atoms: N_5  and  C_12
REMARK    2  A    between atoms: N_6  and  C_20
REMARK    3  A    between atoms: N_8  and  C_27
REMARK    4  A    between atoms: C_10  and  C_13
REMARK    5  A    between atoms: C_16  and  C_18
REMARK    6  A    between atoms: C_17  and  C_19
REMARK    7  A    between atoms: C_26  and  C_28
REMARK    8  A    between atoms: C_31  and  C_34
REMARK                            x       y       z     vdW  Elec       q    Type
REMARK                         _______ _______ _______ _____ _____    ______ ____
ROOT
ATOM     10  C   UNL     1       0.114   1.280  -0.551  0.00  0.00    +0.047 C 
ATOM     11  C   UNL     1       0.811  -0.051  -0.202  0.00  0.00    +0.039 C 
ATOM     12  C   UNL     1       1.755  -0.350  -1.373  0.00  0.00    +0.098 C 
ATOM     14  C   UNL     1       0.273   1.345  -2.043  0.00  0.00    -0.021 C 
ATOM     15  C   UNL     1       1.170   0.458  -2.485  0.00  0.00    -0.009 C 
ENDROOT
BRANCH  10  13
ATOM      6  N   UNL     1      -3.435   0.978   0.305  0.00  0.00    -0.236 N 
ATOM      7  N   UNL     1      -3.180   2.075   1.039  0.00  0.00    -0.171 NA
ATOM     13  C   UNL     1      -1.315   1.352  -0.064  0.00  0.00    +0.003 A 
ATOM     16  C   UNL     1      -2.351   0.505  -0.375  0.00  0.00    +0.046 A 
ATOM     17  C   UNL     1      -1.883   2.298   0.809  0.00  0.00    +0.064 A 
ATOM     18  C   UNL     1      -2.396  -0.689  -1.242  0.00  0.00    +0.066 C 
ATOM     19  C   UNL     1      -1.220   3.444   1.456  0.00  0.00    +0.068 C 
BRANCH   6  20
ATOM     20  C   UNL     1      -4.721   0.435   0.295  0.00  0.00    +0.066 A 
ATOM     22  C   UNL     1      -5.798   1.201  -0.150  0.00  0.00    +0.028 A 
ATOM     23  C   UNL     1      -4.928  -0.873   0.733  0.00  0.00    +0.028 A 
ATOM     24  C   UNL     1      -7.083   0.659  -0.156  0.00  0.00    +0.014 A 
ATOM     25  C   UNL     1      -6.213  -1.414   0.727  0.00  0.00    +0.014 A 
ATOM     26  C   UNL     1      -7.291  -0.649   0.283  0.00  0.00    +0.055 A 
BRANCH  26  28
ATOM      1  F   UNL     1      -8.788  -2.339  -0.507  0.00  0.00    -0.166 F 
ATOM      2  F   UNL     1      -9.603  -0.349  -0.186  0.00  0.00    -0.166 F 
ATOM      3  F   UNL     1      -9.102  -1.612   1.512  0.00  0.00    -0.166 F 
ATOM     28  C   UNL     1      -8.665  -1.227   0.277  0.00  0.00    +0.417 C 
ENDBRANCH  26  28
ENDBRANCH   6  20
ENDBRANCH  10  13
BRANCH  12   5
ATOM      4  O   UNL     1       3.898  -1.915  -0.293  0.00  0.00    -0.252 OA
ATOM      5  N   UNL     1       3.103   0.090  -1.128  0.00  0.00    -0.293 N 
ATOM      8  N   UNL     1       5.303  -0.043  -0.468  0.00  0.00    -0.269 N 
ATOM     21  C   UNL     1       4.099  -0.741  -0.594  0.00  0.00    +0.304 C 
ATOM     35  H   UNL     1       3.339   1.062  -1.304  0.00  0.00    +0.151 HD
ATOM     36  H   UNL     1       5.300   0.930  -0.765  0.00  0.00    +0.156 HD
BRANCH   8  27
ATOM     27  C   UNL     1       6.538  -0.524   0.026  0.00  0.00    +0.036 A 
ATOM     29  C   UNL     1       7.645   0.322   0.082  0.00  0.00    +0.042 A 
ATOM     30  C   UNL     1       6.648  -1.846   0.459  0.00  0.00    +0.023 A 
ATOM     31  C   UNL     1       8.863  -0.153   0.569  0.00  0.00    +0.054 A 
ATOM     32  C   UNL     1       7.865  -2.321   0.946  0.00  0.00    +0.003 A 
ATOM     33  C   UNL     1       8.973  -1.475   1.001  0.00  0.00    +0.019 A 
BRANCH  31  34
ATOM      9  N   UNL     1      10.919   1.417   0.672  0.00  0.00    -0.191 NA
ATOM     34  C   UNL     1       9.997   0.713   0.626  0.00  0.00    +0.099 C 
ENDBRANCH  31  34
ENDBRANCH   8  27
ENDBRANCH  12   5
TORSDOF 6
