REMARK  Name = 11885938
REMARK  9 active torsions:
REMARK  status: ('A' for Active; 'I' for Inactive)
REMARK    1  A    between atoms: O_3  and  C_14
REMARK    2  A    between atoms: O_3  and  C_18
REMARK    3  A    between atoms: O_7  and  C_29
REMARK    4  A    between atoms: O_7  and  C_30
REMARK    5  A    between atoms: N_8  and  C_13
REMARK    6  A    between atoms: N_9  and  C_22
REMARK    7  A    between atoms: C_17  and  C_19
REMARK    8  A    between atoms: C_20  and  C_23
REMARK    9  A    between atoms: C_21  and  C_24
REMARK                            x       y       z     vdW  Elec       q    Type
REMARK                         _______ _______ _______ _____ _____    ______ ____
ROOT
ATOM      1  O   UNL     1      -2.405   1.448   0.914  0.00  0.00    -0.368 OA
ATOM      2  O   UNL     1      -3.062   3.061  -1.611  0.00  0.00    -0.368 OA
ATOM     11  C   UNL     1      -3.304   1.680  -1.268  0.00  0.00    +0.173 C 
ATOM     12  C   UNL     1      -2.104   1.208  -0.471  0.00  0.00    +0.192 C 
ATOM     13  C   UNL     1      -4.451   1.581  -0.290  0.00  0.00    +0.130 C 
ATOM     14  C   UNL     1      -1.004   2.114  -0.969  0.00  0.00    +0.235 C 
ATOM     15  C   UNL     1      -3.771   1.877   1.035  0.00  0.00    +0.185 C 
ATOM     16  C   UNL     1      -1.738   3.418  -1.186  0.00  0.00    +0.207 C 
ENDROOT
BRANCH  13   8
ATOM      4  O   UNL     1      -7.110   0.924   0.452  0.00  0.00    -0.270 OA
ATOM      8  N   UNL     1      -5.033   0.261  -0.298  0.00  0.00    -0.304 N 
ATOM     17  C   UNL     1      -6.351   0.029   0.083  0.00  0.00    +0.250 C 
ATOM     36  H   UNL     1      -4.415  -0.521  -0.482  0.00  0.00    +0.149 HD
BRANCH  17  19
ATOM      6  O   UNL     1      -7.865  -3.263   0.542  0.00  0.00    -0.359 OA
ATOM     10  N   UNL     1      -6.996  -3.576  -0.496  0.00  0.00    -0.083 NA
ATOM     19  C   UNL     1      -6.785  -1.375   0.051  0.00  0.00    +0.101 A 
ATOM     20  C   UNL     1      -7.730  -1.950   0.859  0.00  0.00    +0.147 A 
ATOM     21  C   UNL     1      -6.361  -2.433  -0.772  0.00  0.00    +0.093 A 
ATOM     23  C   UNL     1      -8.584  -1.453   1.946  0.00  0.00    +0.090 C 
ATOM     24  C   UNL     1      -5.349  -2.401  -1.841  0.00  0.00    +0.070 C 
ENDBRANCH  17  19
ENDBRANCH  13   8
BRANCH  14   3
ATOM      3  O   UNL     1       0.066   2.252  -0.062  0.00  0.00    -0.442 OA
BRANCH   3  18
ATOM      5  O   UNL     1       1.171   0.539  -1.098  0.00  0.00    -0.226 OA
ATOM      9  N   UNL     1       2.088   1.658   0.742  0.00  0.00    -0.251 N 
ATOM     18  C   UNL     1       1.132   1.391  -0.219  0.00  0.00    +0.405 C 
ATOM     37  H   UNL     1       1.875   2.412   1.391  0.00  0.00    +0.158 HD
BRANCH   9  22
ATOM     22  C   UNL     1       3.330   1.012   0.938  0.00  0.00    +0.037 A 
ATOM     25  C   UNL     1       4.173   1.421   1.971  0.00  0.00    +0.027 A 
ATOM     26  C   UNL     1       3.711  -0.035   0.099  0.00  0.00    +0.027 A 
ATOM     27  C   UNL     1       5.398   0.783   2.165  0.00  0.00    +0.048 A 
ATOM     28  C   UNL     1       4.936  -0.673   0.293  0.00  0.00    +0.048 A 
ATOM     29  C   UNL     1       5.780  -0.264   1.325  0.00  0.00    +0.129 A 
BRANCH  29   7
ATOM      7  O   UNL     1       6.974  -0.888   1.516  0.00  0.00    -0.456 OA
BRANCH   7  30
ATOM     30  C   UNL     1       7.755  -1.139   0.400  0.00  0.00    +0.128 A 
ATOM     31  C   UNL     1       7.935  -0.145  -0.562  0.00  0.00    +0.046 A 
ATOM     32  C   UNL     1       8.360  -2.385   0.237  0.00  0.00    +0.046 A 
ATOM     33  C   UNL     1       8.721  -0.398  -1.687  0.00  0.00    +0.004 A 
ATOM     34  C   UNL     1       9.146  -2.638  -0.887  0.00  0.00    +0.004 A 
ATOM     35  C   UNL     1       9.326  -1.644  -1.849  0.00  0.00    +0.000 A 
ENDBRANCH   7  30
ENDBRANCH  29   7
ENDBRANCH   9  22
ENDBRANCH   3  18
ENDBRANCH  14   3
TORSDOF 7
