REMARK  Name = 25338966
REMARK  8 active torsions:
REMARK  status: ('A' for Active; 'I' for Inactive)
REMARK    1  A    between atoms: O_1  and  C_14
REMARK    2  A    between atoms: O_1  and  C_21
REMARK    3  A    between atoms: O_4  and  C_18
REMARK    4  A    between atoms: O_4  and  C_25
REMARK    5  A    between atoms: N_6  and  C_13
REMARK    6  A    between atoms: C_8  and  C_14
REMARK    7  A    between atoms: C_13  and  C_17
REMARK    8  A    between atoms: C_15  and  C_18
REMARK                            x       y       z     vdW  Elec       q    Type
REMARK                         _______ _______ _______ _____ _____    ______ ____
ROOT
ATOM      3  O   UNL     1       2.074  -2.820   0.251  0.00  0.00    -0.272 OA
ATOM      5  N   UNL     1       0.102  -1.595   0.475  0.00  0.00    -0.279 N 
ATOM      6  N   UNL     1      -2.828   0.454   1.603  0.00  0.00    -0.328 N 
ATOM      7  N   UNL     1      -3.911  -1.498   1.659  0.00  0.00    -0.240 NA
ATOM      8  C   UNL     1      -0.737  -2.730   0.003  0.00  0.00    +0.191 C 
ATOM      9  C   UNL     1      -2.023  -2.962   0.824  0.00  0.00    +0.091 C 
ATOM     10  C   UNL     1      -1.942  -0.489   1.172  0.00  0.00    +0.059 A 
ATOM     11  C   UNL     1      -0.549  -0.280   0.738  0.00  0.00    +0.164 C 
ATOM     12  C   UNL     1      -2.631  -1.674   1.212  0.00  0.00    +0.066 A 
ATOM     15  C   UNL     1       1.496  -1.751   0.464  0.00  0.00    +0.254 C 
ATOM     16  C   UNL     1      -3.999  -0.203   1.884  0.00  0.00    +0.200 A 
ENDROOT
BRANCH   8  14
ATOM      2  O   UNL     1      -0.687  -1.437  -2.032  0.00  0.00    -0.249 OA
ATOM     14  C   UNL     1      -1.035  -2.452  -1.443  0.00  0.00    +0.328 C 
BRANCH  14   1
ATOM      1  O   UNL     1      -1.738  -3.494  -1.972  0.00  0.00    -0.467 OA
ATOM     21  C   UNL     1      -2.090  -3.360  -3.353  0.00  0.00    +0.280 C 
ENDBRANCH  14   1
ENDBRANCH   8  14
BRANCH   6  13
ATOM     13  C   UNL     1      -2.597   1.872   1.738  0.00  0.00    +0.158 C 
BRANCH  13  17
ATOM     17  C   UNL     1      -2.642   2.613   0.425  0.00  0.00    -0.028 A 
ATOM     19  C   UNL     1      -1.544   3.368   0.013  0.00  0.00    +0.005 A 
ATOM     20  C   UNL     1      -3.781   2.542  -0.377  0.00  0.00    +0.005 A 
ATOM     22  C   UNL     1      -1.585   4.053  -1.201  0.00  0.00    +0.000 A 
ATOM     23  C   UNL     1      -3.822   3.227  -1.591  0.00  0.00    +0.000 A 
ATOM     24  C   UNL     1      -2.724   3.983  -2.003  0.00  0.00    +0.000 A 
ENDBRANCH  13  17
ENDBRANCH   6  13
BRANCH  15  18
ATOM     18  C   UNL     1       2.312  -0.512   0.741  0.00  0.00    +0.324 C 
BRANCH  18   4
ATOM      4  O   UNL     1       3.662  -0.907   0.715  0.00  0.00    -0.483 OA
BRANCH   4  25
ATOM     25  C   UNL     1       4.593   0.045   0.364  0.00  0.00    +0.121 A 
ATOM     26  C   UNL     1       4.358   1.389   0.650  0.00  0.00    +0.045 A 
ATOM     27  C   UNL     1       5.772  -0.336  -0.277  0.00  0.00    +0.045 A 
ATOM     28  C   UNL     1       5.301   2.354   0.295  0.00  0.00    +0.004 A 
ATOM     29  C   UNL     1       6.715   0.628  -0.633  0.00  0.00    +0.004 A 
ATOM     30  C   UNL     1       6.480   1.973  -0.347  0.00  0.00    +0.000 A 
ENDBRANCH   4  25
ENDBRANCH  18   4
ENDBRANCH  15  18
TORSDOF 7
