REMARK  Name = 40777672
REMARK  8 active torsions:
REMARK  status: ('A' for Active; 'I' for Inactive)
REMARK    1  A    between atoms: S_1  and  N_7
REMARK    2  A    between atoms: S_1  and  C_21
REMARK    3  A    between atoms: N_7  and  C_12
REMARK    4  A    between atoms: N_8  and  C_20
REMARK    5  A    between atoms: C_10  and  C_13
REMARK    6  A    between atoms: C_16  and  C_18
REMARK    7  A    between atoms: C_17  and  C_19
REMARK    8  A    between atoms: C_28  and  C_32
REMARK                            x       y       z     vdW  Elec       q    Type
REMARK                         _______ _______ _______ _____ _____    ______ ____
ROOT
ATOM      8  N   UNL     1      -2.501  -1.230   0.165  0.00  0.00    -0.236 N 
ATOM      9  N   UNL     1      -2.534  -2.572   0.219  0.00  0.00    -0.171 NA
ATOM     13  C   UNL     1      -0.392  -1.783   0.303  0.00  0.00    +0.003 A 
ATOM     16  C   UNL     1      -1.241  -0.708   0.211  0.00  0.00    +0.046 A 
ATOM     17  C   UNL     1      -1.243  -2.905   0.303  0.00  0.00    +0.064 A 
ATOM     18  C   UNL     1      -0.962   0.742   0.165  0.00  0.00    +0.066 C 
ATOM     19  C   UNL     1      -0.865  -4.327   0.383  0.00  0.00    +0.068 C 
ENDROOT
BRANCH   8  20
ATOM     20  C   UNL     1      -3.692  -0.511   0.069  0.00  0.00    +0.066 A 
ATOM     22  C   UNL     1      -4.658  -0.624   1.070  0.00  0.00    +0.028 A 
ATOM     23  C   UNL     1      -3.920   0.319  -1.029  0.00  0.00    +0.028 A 
ATOM     26  C   UNL     1      -5.851   0.092   0.972  0.00  0.00    +0.014 A 
ATOM     27  C   UNL     1      -5.113   1.035  -1.127  0.00  0.00    +0.014 A 
ATOM     28  C   UNL     1      -6.079   0.921  -0.126  0.00  0.00    +0.055 A 
BRANCH  28  32
ATOM      2  F   UNL     1      -8.188   1.463   0.827  0.00  0.00    -0.166 F 
ATOM      3  F   UNL     1      -7.179   3.040  -0.279  0.00  0.00    -0.166 F 
ATOM      4  F   UNL     1      -8.085   1.382  -1.344  0.00  0.00    -0.166 F 
ATOM     32  C   UNL     1      -7.355   1.686  -0.231  0.00  0.00    +0.417 C 
ENDBRANCH  28  32
ENDBRANCH   8  20
BRANCH  13  10
ATOM     10  C   UNL     1       1.117  -1.764   0.384  0.00  0.00    +0.047 C 
ATOM     11  C   UNL     1       1.784  -1.066  -0.819  0.00  0.00    +0.037 C 
ATOM     12  C   UNL     1       3.019  -0.351  -0.259  0.00  0.00    +0.100 C 
ATOM     14  C   UNL     1       1.672  -1.001   1.551  0.00  0.00    -0.021 C 
ATOM     15  C   UNL     1       2.711  -0.237   1.197  0.00  0.00    -0.010 C 
BRANCH  12   7
ATOM      7  N   UNL     1       4.228  -1.185  -0.434  0.00  0.00    -0.183 NA
ATOM     33  H   UNL     1       4.316  -2.030   0.144  0.00  0.00    +0.149 HD
BRANCH   7   1
ATOM      1  S   UNL     1       5.571  -0.568  -1.273  0.00  0.00    +0.059 S 
ATOM      5  O   UNL     1       5.149  -0.100  -2.580  0.00  0.00    -0.153 OA
ATOM      6  O   UNL     1       6.671  -1.507  -1.155  0.00  0.00    -0.153 OA
BRANCH   1  21
ATOM     21  C   UNL     1       5.992   0.845  -0.298  0.00  0.00    +0.105 A 
ATOM     24  C   UNL     1       6.892   0.719   0.761  0.00  0.00    +0.028 A 
ATOM     25  C   UNL     1       5.423   2.085  -0.585  0.00  0.00    +0.028 A 
ATOM     29  C   UNL     1       7.223   1.834   1.531  0.00  0.00    +0.002 A 
ATOM     30  C   UNL     1       5.754   3.200   0.185  0.00  0.00    +0.002 A 
ATOM     31  C   UNL     1       6.654   3.074   1.243  0.00  0.00    +0.000 A 
ENDBRANCH   1  21
ENDBRANCH   7   1
ENDBRANCH  12   7
ENDBRANCH  13  10
TORSDOF 6
