REMARK  Name = 75536599
REMARK  7 active torsions:
REMARK  status: ('A' for Active; 'I' for Inactive)
REMARK    1  A    between atoms: O_4  and  C_9
REMARK    2  A    between atoms: N_6  and  C_8
REMARK    3  A    between atoms: N_6  and  C_13
REMARK    4  A    between atoms: N_7  and  C_12
REMARK    5  A    between atoms: C_10  and  C_12
REMARK    6  A    between atoms: C_13  and  C_14
REMARK    7  A    between atoms: C_15  and  C_18
REMARK                            x       y       z     vdW  Elec       q    Type
REMARK                         _______ _______ _______ _____ _____    ______ ____
ROOT
ATOM      3  O   UNL     1       1.060   0.987  -0.034  0.00  0.00    -0.371 OA
ATOM      8  C   UNL     1      -0.969  -0.186   0.348  0.00  0.00    +0.111 C 
ATOM      9  C   UNL     1      -0.053  -1.047  -0.501  0.00  0.00    +0.164 C 
ATOM     10  C   UNL     1       1.302  -0.420  -0.199  0.00  0.00    +0.165 C 
ATOM     11  C   UNL     1      -0.351   1.189   0.160  0.00  0.00    +0.181 C 
ENDROOT
BRANCH   9   4
ATOM      4  O   UNL     1      -0.095  -2.413  -0.138  0.00  0.00    -0.388 OA
ATOM     26  H   UNL     1       0.125  -2.485   0.806  0.00  0.00    +0.210 HD
ENDBRANCH   9   4
BRANCH   8   6
ATOM      6  N   UNL     1      -2.364  -0.241  -0.059  0.00  0.00    -0.305 NA
ATOM     25  H   UNL     1      -2.626  -1.214  -0.221  0.00  0.00    +0.123 HD
BRANCH   6  13
ATOM     13  C   UNL     1      -3.234   0.317   0.970  0.00  0.00    +0.116 C 
BRANCH  13  14
ATOM      2  F   UNL     1      -8.652   0.196  -0.571  0.00  0.00    -0.205 F 
ATOM     14  C   UNL     1      -4.681   0.284   0.558  0.00  0.00    -0.033 A 
ATOM     16  C   UNL     1      -5.236   1.365  -0.128  0.00  0.00    +0.008 A 
ATOM     17  C   UNL     1      -5.469  -0.826   0.863  0.00  0.00    +0.008 A 
ATOM     19  C   UNL     1      -6.577   1.335  -0.509  0.00  0.00    +0.038 A 
ATOM     20  C   UNL     1      -6.810  -0.856   0.482  0.00  0.00    +0.038 A 
ATOM     21  C   UNL     1      -7.364   0.225  -0.204  0.00  0.00    +0.123 A 
ENDBRANCH  13  14
ENDBRANCH   6  13
ENDBRANCH   8   6
BRANCH  10  12
ATOM     12  C   UNL     1       2.324  -0.640  -1.300  0.00  0.00    +0.138 C 
BRANCH  12   7
ATOM      5  O   UNL     1       4.507  -1.860   0.111  0.00  0.00    -0.270 OA
ATOM      7  N   UNL     1       3.581  -0.030  -0.974  0.00  0.00    -0.308 N 
ATOM     15  C   UNL     1       4.587  -0.700  -0.284  0.00  0.00    +0.251 C 
ATOM     27  H   UNL     1       3.712   0.934  -1.258  0.00  0.00    +0.149 HD
BRANCH  15  18
ATOM      1  S   UNL     1       7.105  -0.671   0.845  0.00  0.00    -0.092 S 
ATOM     18  C   UNL     1       5.819   0.080  -0.001  0.00  0.00    +0.074 A 
ATOM     22  C   UNL     1       6.109   1.386  -0.329  0.00  0.00    +0.021 A 
ATOM     23  C   UNL     1       7.405   1.775   0.120  0.00  0.00    +0.008 A 
ATOM     24  C   UNL     1       8.055   0.752   0.774  0.00  0.00    +0.046 A 
ENDBRANCH  15  18
ENDBRANCH  12   7
ENDBRANCH  10  12
TORSDOF 7
