REMARK  Name = 44716748
REMARK  14 active torsions:
REMARK  status: ('A' for Active; 'I' for Inactive)
REMARK    1  A    between atoms: O_2  and  C_12
REMARK    2  A    between atoms: O_4  and  C_28
REMARK    3  A    between atoms: O_4  and  C_30
REMARK    4  A    between atoms: N_7  and  C_26
REMARK    5  A    between atoms: N_9  and  C_29
REMARK    6  A    between atoms: N_9  and  C_31
REMARK    7  A    between atoms: N_9  and  C_32
REMARK    8  A    between atoms: C_10  and  C_18
REMARK    9  A    between atoms: C_13  and  C_19
REMARK   10  A    between atoms: C_15  and  C_22
REMARK   11  A    between atoms: C_19  and  C_23
REMARK   12  A    between atoms: C_19  and  C_24
REMARK   13  A    between atoms: C_26  and  C_28
REMARK   14  A    between atoms: C_27  and  C_29
REMARK                            x       y       z     vdW  Elec       q    Type
REMARK                         _______ _______ _______ _____ _____    ______ ____
ROOT
ATOM      1  S   UNL     1       2.964  -2.187   0.633  0.00  0.00    -0.057 S 
ATOM      5  O   UNL     1       5.990   1.036  -0.912  0.00  0.00    -0.274 OA
ATOM      6  N   UNL     1       3.152   0.218  -0.298  0.00  0.00    -0.229 NA
ATOM      8  N   UNL     1       5.207  -1.017  -0.056  0.00  0.00    -0.264 N 
ATOM     10  C   UNL     1      -0.809  -0.594   1.014  0.00  0.00    -0.022 C 
ATOM     11  C   UNL     1      -0.692   0.397  -0.211  0.00  0.00    +0.033 C 
ATOM     12  C   UNL     1      -1.822   1.465  -0.185  0.00  0.00    +0.123 C 
ATOM     13  C   UNL     1      -3.229   0.844  -0.047  0.00  0.00    +0.029 C 
ATOM     14  C   UNL     1      -2.236  -1.188   1.069  0.00  0.00    +0.008 C 
ATOM     15  C   UNL     1       0.760   1.018  -0.334  0.00  0.00    +0.042 C 
ATOM     16  C   UNL     1      -3.325  -0.126   1.131  0.00  0.00    +0.007 C 
ATOM     17  C   UNL     1       0.185  -1.782   0.829  0.00  0.00    +0.051 C 
ATOM     18  C   UNL     1      -0.504   0.110   2.363  0.00  0.00    +0.012 C 
ATOM     20  C   UNL     1       1.810  -0.035  -0.073  0.00  0.00    +0.057 A 
ATOM     21  C   UNL     1       1.535  -1.279   0.456  0.00  0.00    +0.015 A 
ATOM     22  C   UNL     1       1.019   1.690  -1.690  0.00  0.00    +0.014 C 
ATOM     25  C   UNL     1       3.851  -0.848   0.027  0.00  0.00    +0.165 A 
ATOM     27  C   UNL     1       6.199  -0.103  -0.507  0.00  0.00    +0.233 C 
ATOM     35  H   UNL     1       5.526  -1.934   0.249  0.00  0.00    +0.157 HD
ENDROOT
BRANCH  12   2
ATOM      2  O   UNL     1      -1.804   2.203  -1.407  0.00  0.00    -0.391 OA
ATOM     33  H   UNL     1      -1.955   1.579  -2.138  0.00  0.00    +0.210 HD
ENDBRANCH  12   2
BRANCH  13  19
ATOM     19  C   UNL     1      -4.316   1.917   0.082  0.00  0.00    +0.077 C 
ATOM     23  C   UNL     1      -4.048   2.792   1.302  0.00  0.00    +0.017 C 
BRANCH  19  24
ATOM      3  O   UNL     1      -6.451   1.422   1.113  0.00  0.00    -0.276 OA
ATOM      7  N   UNL     1      -5.966   0.471  -0.947  0.00  0.00    -0.313 N 
ATOM     24  C   UNL     1      -5.690   1.259   0.161  0.00  0.00    +0.216 C 
ATOM     34  H   UNL     1      -5.308   0.433  -1.718  0.00  0.00    +0.149 HD
BRANCH   7  26
ATOM     26  C   UNL     1      -7.205  -0.255  -1.099  0.00  0.00    +0.132 C 
BRANCH  26  28
ATOM     28  C   UNL     1      -7.111  -1.650  -0.508  0.00  0.00    +0.178 C 
BRANCH  28   4
ATOM      4  O   UNL     1      -6.104  -2.385  -1.193  0.00  0.00    -0.381 OA
ATOM     30  C   UNL     1      -5.981  -3.704  -0.678  0.00  0.00    +0.194 C 
ENDBRANCH  28   4
ENDBRANCH  26  28
ENDBRANCH   7  26
ENDBRANCH  19  24
ENDBRANCH  13  19
BRANCH  27  29
ATOM     29  C   UNL     1       7.591  -0.707  -0.439  0.00  0.00    +0.180 C 
BRANCH  29   9
ATOM      9  N   UNL     1       8.565   0.349  -0.204  0.00  0.00    -0.300 NA
ATOM     31  C   UNL     1       8.557   0.757   1.202  0.00  0.00    +0.105 C 
ATOM     32  C   UNL     1       9.907  -0.089  -0.596  0.00  0.00    +0.105 C 
ENDBRANCH  29   9
ENDBRANCH  27  29
TORSDOF 8
