REMARK  Name = 26744730
REMARK  6 active torsions:
REMARK  status: ('A' for Active; 'I' for Inactive)
REMARK    1  A    between atoms: N_2  and  C_12
REMARK    2  A    between atoms: C_9  and  C_16
REMARK    3  A    between atoms: C_12  and  C_15
REMARK    4  A    between atoms: C_15  and  C_17
REMARK    5  A    between atoms: C_17  and  C_19
REMARK    6  A    between atoms: C_20  and  C_23
REMARK                            x       y       z     vdW  Elec       q    Type
REMARK                         _______ _______ _______ _____ _____    ______ ____
ROOT
ATOM      2  N   UNL     1      -1.432  -1.082   0.772  0.00  0.00    -0.285 NA
ATOM      3  N   UNL     1      -4.164  -3.250  -0.605  0.00  0.00    -0.347 N 
ATOM      4  N   UNL     1      -2.499  -4.384  -1.574  0.00  0.00    -0.240 NA
ATOM      9  C   UNL     1      -0.404  -2.179   0.736  0.00  0.00    +0.152 C 
ATOM     10  C   UNL     1      -0.575  -3.119  -0.510  0.00  0.00    +0.085 C 
ATOM     11  C   UNL     1      -2.824  -1.614   0.834  0.00  0.00    +0.140 C 
ATOM     13  C   UNL     1      -3.005  -2.708  -0.141  0.00  0.00    +0.053 A 
ATOM     14  C   UNL     1      -2.001  -3.422  -0.742  0.00  0.00    +0.065 A 
ATOM     18  C   UNL     1      -3.807  -4.257  -1.468  0.00  0.00    +0.197 A 
ATOM     30  H   UNL     1      -5.106  -2.973  -0.363  0.00  0.00    +0.167 HD
ENDROOT
BRANCH   9  16
ATOM      1  O   UNL     1       1.804  -2.068   1.799  0.00  0.00    -0.336 OA
ATOM      5  N   UNL     1       1.657  -0.913  -0.114  0.00  0.00    -0.189 NA
ATOM      6  N   UNL     1       3.064  -1.492   1.595  0.00  0.00    -0.054 NA
ATOM     16  C   UNL     1       1.036  -1.677   0.749  0.00  0.00    +0.245 A 
ATOM     20  C   UNL     1       2.898  -0.827   0.448  0.00  0.00    +0.222 A 
BRANCH  20  23
ATOM      7  N   UNL     1       5.136  -0.052   0.477  0.00  0.00    -0.249 NA
ATOM      8  N   UNL     1       4.733   1.323  -1.934  0.00  0.00    -0.260 NA
ATOM     23  C   UNL     1       3.951  -0.069  -0.164  0.00  0.00    +0.129 A 
ATOM     27  C   UNL     1       3.753   0.607  -1.348  0.00  0.00    +0.142 A 
ATOM     28  C   UNL     1       6.116   0.664  -0.109  0.00  0.00    +0.131 A 
ATOM     29  C   UNL     1       5.918   1.340  -1.293  0.00  0.00    +0.130 A 
ENDBRANCH  20  23
ENDBRANCH   9  16
BRANCH   2  12
ATOM     12  C   UNL     1      -1.239  -0.173   1.910  0.00  0.00    +0.086 C 
BRANCH  12  15
ATOM     15  C   UNL     1      -1.881   1.183   1.622  0.00  0.00    +0.020 C 
BRANCH  15  17
ATOM     17  C   UNL     1      -1.249   1.842   0.393  0.00  0.00    +0.036 C 
BRANCH  17  19
ATOM     19  C   UNL     1      -1.898   3.164   0.073  0.00  0.00    -0.047 A 
ATOM     21  C   UNL     1      -2.994   3.213  -0.787  0.00  0.00    +0.003 A 
ATOM     22  C   UNL     1      -1.401   4.339   0.638  0.00  0.00    +0.003 A 
ATOM     24  C   UNL     1      -3.595   4.437  -1.083  0.00  0.00    +0.000 A 
ATOM     25  C   UNL     1      -2.002   5.563   0.343  0.00  0.00    +0.000 A 
ATOM     26  C   UNL     1      -3.099   5.612  -0.518  0.00  0.00    +0.000 A 
ENDBRANCH  17  19
ENDBRANCH  15  17
ENDBRANCH  12  15
ENDBRANCH   2  12
TORSDOF 6
