REMARK  Name = 11879867
REMARK  6 active torsions:
REMARK  status: ('A' for Active; 'I' for Inactive)
REMARK    1  A    between atoms: S_1  and  N_10
REMARK    2  A    between atoms: S_1  and  C_27
REMARK    3  A    between atoms: N_10  and  C_22
REMARK    4  A    between atoms: N_11  and  C_35
REMARK    5  A    between atoms: C_21  and  C_24
REMARK    6  A    between atoms: C_36  and  C_37
REMARK                            x       y       z     vdW  Elec       q    Type
REMARK                         _______ _______ _______ _____ _____    ______ ____
ROOT
ATOM      3  O   UNL     1       2.040   0.366   2.497  0.00  0.00    -0.266 OA
ATOM      4  O   UNL     1      -1.073   0.597  -2.111  0.00  0.00    -0.270 OA
ATOM      8  N   UNL     1      -0.608   2.644  -1.077  0.00  0.00    -0.297 N 
ATOM      9  N   UNL     1       1.880   1.923   0.754  0.00  0.00    -0.310 N 
ATOM     12  C   UNL     1       0.315   3.949   0.831  0.00  0.00    +0.027 C 
ATOM     13  C   UNL     1       1.702   3.549  -1.164  0.00  0.00    +0.054 C 
ATOM     14  C   UNL     1       1.330   4.590  -0.109  0.00  0.00    +0.018 C 
ATOM     15  C   UNL     1      -0.939   3.513   0.052  0.00  0.00    +0.113 C 
ATOM     16  C   UNL     1       0.985   2.772   1.552  0.00  0.00    +0.130 C 
ATOM     17  C   UNL     1       0.446   3.156  -1.967  0.00  0.00    +0.117 C 
ATOM     18  C   UNL     1       2.307   2.313  -0.523  0.00  0.00    +0.027 A 
ATOM     19  C   UNL     1       3.215   1.580  -1.192  0.00  0.00    +0.024 A 
ATOM     20  C   UNL     1       2.364   0.753   1.375  0.00  0.00    +0.274 A 
ATOM     21  C   UNL     1      -1.271   1.423  -1.222  0.00  0.00    +0.247 C 
ATOM     22  C   UNL     1       3.344  -0.027   0.578  0.00  0.00    +0.112 A 
ATOM     23  C   UNL     1       3.752   0.371  -0.628  0.00  0.00    +0.031 A 
ENDROOT
BRANCH  21  24
ATOM      2  F   UNL     1      -5.245   0.139   2.495  0.00  0.00    -0.205 F 
ATOM     24  C   UNL     1      -2.313   1.087  -0.246  0.00  0.00    +0.037 A 
ATOM     25  C   UNL     1      -3.633   1.461  -0.486  0.00  0.00    +0.016 A 
ATOM     26  C   UNL     1      -1.979   0.394   0.915  0.00  0.00    +0.016 A 
ATOM     28  C   UNL     1      -4.625   1.140   0.441  0.00  0.00    +0.039 A 
ATOM     29  C   UNL     1      -2.970   0.074   1.842  0.00  0.00    +0.039 A 
ATOM     30  C   UNL     1      -4.293   0.447   1.605  0.00  0.00    +0.123 A 
ENDBRANCH  21  24
BRANCH  22  10
ATOM     10  N   UNL     1       3.883  -1.220   1.089  0.00  0.00    -0.211 N 
ATOM     38  H   UNL     1       3.757  -1.335   2.103  0.00  0.00    +0.174 HD
BRANCH  10   1
ATOM      1  S   UNL     1       3.579  -2.621   0.166  0.00  0.00    +0.072 S 
ATOM      5  O   UNL     1       4.000  -2.410  -1.206  0.00  0.00    -0.150 OA
ATOM      6  O   UNL     1       4.003  -3.784   0.921  0.00  0.00    -0.150 OA
BRANCH   1  27
ATOM     27  C   UNL     1       1.798  -2.783   0.033  0.00  0.00    +0.109 A 
ATOM     31  C   UNL     1       1.167  -2.179  -1.025  0.00  0.00    +0.030 A 
ATOM     32  C   UNL     1       1.138  -3.504   0.995  0.00  0.00    +0.030 A 
ATOM     33  C   UNL     1      -0.218  -2.305  -1.128  0.00  0.00    +0.025 A 
ATOM     34  C   UNL     1      -0.247  -3.631   0.891  0.00  0.00    +0.025 A 
ATOM     35  C   UNL     1      -0.925  -3.031  -0.170  0.00  0.00    +0.033 A 
BRANCH  35  11
ATOM      7  O   UNL     1      -2.838  -1.956  -2.232  0.00  0.00    -0.276 OA
ATOM     11  N   UNL     1      -2.311  -3.158  -0.274  0.00  0.00    -0.286 N 
ATOM     36  C   UNL     1      -3.156  -2.633  -1.260  0.00  0.00    +0.214 C 
ATOM     37  C   UNL     1      -4.599  -2.998  -1.012  0.00  0.00    +0.109 C 
ATOM     39  H   UNL     1      -2.753  -3.702   0.464  0.00  0.00    +0.155 HD
ENDBRANCH  35  11
ENDBRANCH   1  27
ENDBRANCH  10   1
ENDBRANCH  22  10
TORSDOF 5
