REMARK  Name = 75537035
REMARK  5 active torsions:
REMARK  status: ('A' for Active; 'I' for Inactive)
REMARK    1  A    between atoms: N_7  and  C_17
REMARK    2  A    between atoms: N_9  and  C_24
REMARK    3  A    between atoms: C_17  and  C_19
REMARK    4  A    between atoms: C_18  and  C_20
REMARK    5  A    between atoms: C_28  and  C_29
REMARK                            x       y       z     vdW  Elec       q    Type
REMARK                         _______ _______ _______ _____ _____    ______ ____
ROOT
ATOM      4  O   UNL     1       4.031  -2.325   0.954  0.00  0.00    -0.252 OA
ATOM      5  O   UNL     1      -2.667  -3.401  -0.718  0.00  0.00    -0.270 OA
ATOM      6  N   UNL     1       1.742  -1.895   0.645  0.00  0.00    -0.278 N 
ATOM      7  N   UNL     1       3.109  -0.156   1.042  0.00  0.00    -0.276 N 
ATOM      8  N   UNL     1      -0.762  -2.057  -0.549  0.00  0.00    -0.294 N 
ATOM     11  C   UNL     1       0.855  -0.749   0.751  0.00  0.00    +0.112 C 
ATOM     12  C   UNL     1       1.807   0.443   0.805  0.00  0.00    +0.134 C 
ATOM     13  C   UNL     1      -0.126  -0.732  -0.416  0.00  0.00    +0.132 C 
ATOM     14  C   UNL     1       1.189  -3.219   0.415  0.00  0.00    +0.128 C 
ATOM     15  C   UNL     1       0.178  -3.172  -0.729  0.00  0.00    +0.127 C 
ATOM     16  C   UNL     1       3.080  -1.557   0.892  0.00  0.00    +0.306 C 
ATOM     18  C   UNL     1      -2.136  -2.301  -0.563  0.00  0.00    +0.247 C 
ENDROOT
BRANCH  18  20
ATOM     20  C   UNL     1      -3.044  -1.163  -0.367  0.00  0.00    +0.037 A 
ATOM     21  C   UNL     1      -3.496  -0.433  -1.466  0.00  0.00    +0.013 A 
ATOM     22  C   UNL     1      -3.452  -0.812   0.920  0.00  0.00    +0.013 A 
ATOM     26  C   UNL     1      -4.357   0.648  -1.279  0.00  0.00    +0.013 A 
ATOM     27  C   UNL     1      -4.313   0.269   1.107  0.00  0.00    +0.013 A 
ATOM     28  C   UNL     1      -4.766   0.999   0.008  0.00  0.00    +0.055 A 
BRANCH  28  29
ATOM      1  F   UNL     1      -5.160   3.146   0.987  0.00  0.00    -0.166 F 
ATOM      2  F   UNL     1      -6.866   1.819   0.808  0.00  0.00    -0.166 F 
ATOM      3  F   UNL     1      -6.033   2.759  -0.966  0.00  0.00    -0.166 F 
ATOM     29  C   UNL     1      -5.686   2.156   0.208  0.00  0.00    +0.417 C 
ENDBRANCH  28  29
ENDBRANCH  18  20
BRANCH   7  17
ATOM     17  C   UNL     1       4.291   0.645   1.267  0.00  0.00    +0.183 C 
BRANCH  17  19
ATOM      9  N   UNL     1       5.563   2.326  -0.099  0.00  0.00    -0.336 N 
ATOM     10  N   UNL     1       4.838   0.527  -1.180  0.00  0.00    -0.239 NA
ATOM     19  C   UNL     1       4.887   1.141  -0.019  0.00  0.00    +0.127 A 
ATOM     23  C   UNL     1       5.971   2.478  -1.394  0.00  0.00    +0.106 A 
ATOM     24  C   UNL     1       5.810   3.259   0.976  0.00  0.00    +0.150 C 
ATOM     25  C   UNL     1       5.512   1.356  -2.042  0.00  0.00    +0.130 A 
ENDBRANCH  17  19
ENDBRANCH   7  17
TORSDOF 4
