REMARK  Name = 56775440
REMARK  11 active torsions:
REMARK  status: ('A' for Active; 'I' for Inactive)
REMARK    1  A    between atoms: N_3  and  C_6
REMARK    2  A    between atoms: N_3  and  C_10
REMARK    3  A    between atoms: N_5  and  C_17
REMARK    4  A    between atoms: N_5  and  C_18
REMARK    5  A    between atoms: N_5  and  C_19
REMARK    6  A    between atoms: C_6  and  C_9
REMARK    7  A    between atoms: C_9  and  C_11
REMARK    8  A    between atoms: C_10  and  C_12
REMARK    9  A    between atoms: C_12  and  C_14
REMARK   10  A    between atoms: C_12  and  C_15
REMARK   11  A    between atoms: C_16  and  C_17
REMARK                            x       y       z     vdW  Elec       q    Type
REMARK                         _______ _______ _______ _____ _____    ______ ____
ROOT
ATOM      1  O   UNL     1      -3.190  -2.171   1.245  0.00  0.00    -0.376 OA
ATOM      6  C   UNL     1      -1.924  -0.998  -0.011  0.00  0.00    +0.072 C 
ATOM      7  C   UNL     1      -3.389  -1.419   0.026  0.00  0.00    +0.184 C 
ATOM      8  C   UNL     1      -1.815  -1.731   1.321  0.00  0.00    +0.184 C 
ENDROOT
BRANCH   6   3
ATOM      3  N   UNL     1      -1.841   0.445   0.236  0.00  0.00    -0.306 NA
ATOM     20  H   UNL     1      -0.907   0.801   0.429  0.00  0.00    +0.123 HD
BRANCH   3  10
ATOM     10  C   UNL     1      -2.441   1.162  -0.884  0.00  0.00    +0.084 C 
BRANCH  10  12
ATOM     12  C   UNL     1      -2.777   2.622  -0.535  0.00  0.00    -0.003 C 
ATOM     14  C   UNL     1      -3.770   2.659   0.630  0.00  0.00    +0.008 C 
ATOM     15  C   UNL     1      -1.535   3.442  -0.179  0.00  0.00    +0.008 C 
ENDBRANCH  10  12
ENDBRANCH   3  10
ENDBRANCH   6   3
BRANCH   6   9
ATOM      9  C   UNL     1      -1.069  -1.444  -1.157  0.00  0.00    +0.085 C 
BRANCH   9  11
ATOM      2  O   UNL     1       2.338  -1.938  -0.060  0.00  0.00    -0.358 OA
ATOM      4  N   UNL     1       1.030  -2.369  -0.243  0.00  0.00    -0.083 NA
ATOM     11  C   UNL     1       0.401  -1.334  -0.806  0.00  0.00    +0.086 A 
ATOM     13  C   UNL     1       1.253  -0.233  -1.001  0.00  0.00    +0.072 A 
ATOM     16  C   UNL     1       2.459  -0.665  -0.515  0.00  0.00    +0.151 A 
BRANCH  16  17
ATOM     17  C   UNL     1       3.786  -0.051  -0.398  0.00  0.00    +0.161 C 
BRANCH  17   5
ATOM      5  N   UNL     1       3.786   1.185   0.404  0.00  0.00    -0.301 NA
ATOM     18  C   UNL     1       4.971   1.979   0.101  0.00  0.00    +0.105 C 
ATOM     19  C   UNL     1       3.728   0.860   1.825  0.00  0.00    +0.105 C 
ENDBRANCH  17   5
ENDBRANCH  16  17
ENDBRANCH   9  11
ENDBRANCH   6   9
TORSDOF 7
