REMARK  Name = 7114655
REMARK  12 active torsions:
REMARK  status: ('A' for Active; 'I' for Inactive)
REMARK    1  A    between atoms: S_1  and  N_14
REMARK    2  A    between atoms: S_1  and  C_28
REMARK    3  A    between atoms: O_4  and  C_26
REMARK    4  A    between atoms: O_4  and  C_30
REMARK    5  A    between atoms: O_9  and  C_27
REMARK    6  A    between atoms: O_9  and  C_31
REMARK    7  A    between atoms: O_10  and  C_34
REMARK    8  A    between atoms: N_14  and  C_16
REMARK    9  A    between atoms: C_15  and  C_21
REMARK   10  A    between atoms: C_20  and  C_26
REMARK   11  A    between atoms: C_25  and  C_27
REMARK   12  A    between atoms: C_31  and  C_34
REMARK                            x       y       z     vdW  Elec       q    Type
REMARK                         _______ _______ _______ _____ _____    ______ ____
ROOT
ATOM      5  O   UNL     1      -2.963   2.580   1.482  0.00  0.00    -0.273 OA
ATOM     12  N   UNL     1      -0.965   1.749   0.621  0.00  0.00    -0.288 N 
ATOM     15  C   UNL     1      -0.249   0.833  -0.283  0.00  0.00    +0.164 C 
ATOM     16  C   UNL     1       1.917   2.044   0.317  0.00  0.00    +0.080 C 
ATOM     17  C   UNL     1       1.078   1.403  -0.789  0.00  0.00    +0.052 C 
ATOM     18  C   UNL     1       1.088   3.056   1.101  0.00  0.00    +0.039 C 
ATOM     19  C   UNL     1      -0.166   2.401   1.665  0.00  0.00    +0.110 C 
ATOM     25  C   UNL     1      -2.355   1.915   0.638  0.00  0.00    +0.242 C 
ENDROOT
BRANCH  15  21
ATOM      3  O   UNL     1       0.084  -0.452   1.686  0.00  0.00    -0.274 OA
ATOM     13  N   UNL     1      -0.080  -1.604  -0.315  0.00  0.00    -0.286 N 
ATOM     20  C   UNL     1       0.244  -2.919   0.222  0.00  0.00    +0.185 C 
ATOM     21  C   UNL     1      -0.062  -0.456   0.463  0.00  0.00    +0.237 C 
ATOM     22  C   UNL     1      -0.251  -1.654  -1.765  0.00  0.00    +0.109 C 
ATOM     23  C   UNL     1       0.554  -3.771  -1.003  0.00  0.00    +0.035 C 
ATOM     24  C   UNL     1      -0.295  -3.137  -2.101  0.00  0.00    +0.021 C 
BRANCH  20  26
ATOM      6  O   UNL     1      -2.015  -2.780   1.044  0.00  0.00    -0.249 OA
ATOM     26  C   UNL     1      -0.971  -3.410   0.950  0.00  0.00    +0.328 C 
BRANCH  26   4
ATOM      4  O   UNL     1      -0.720  -4.644   1.473  0.00  0.00    -0.467 OA
ATOM     30  C   UNL     1      -1.803  -5.236   2.199  0.00  0.00    +0.280 C 
ENDBRANCH  26   4
ENDBRANCH  20  26
ENDBRANCH  15  21
BRANCH  16  14
ATOM     14  N   UNL     1       3.087   2.727  -0.289  0.00  0.00    -0.186 NA
ATOM     35  H   UNL     1       2.952   3.703  -0.580  0.00  0.00    +0.148 HD
BRANCH  14   1
ATOM      1  S   UNL     1       4.646   2.198   0.172  0.00  0.00    +0.065 S 
ATOM      7  O   UNL     1       4.758   2.228   1.617  0.00  0.00    -0.153 OA
ATOM      8  O   UNL     1       5.629   2.845  -0.675  0.00  0.00    -0.153 OA
BRANCH   1  28
ATOM      2  S   UNL     1       4.846   0.170  -1.966  0.00  0.00    -0.077 S 
ATOM     28  C   UNL     1       4.774   0.468  -0.281  0.00  0.00    +0.142 A 
ATOM     29  C   UNL     1       4.828  -0.697   0.453  0.00  0.00    +0.036 A 
ATOM     32  C   UNL     1       4.929  -1.849  -0.380  0.00  0.00    +0.010 A 
ATOM     33  C   UNL     1       4.950  -1.521  -1.717  0.00  0.00    +0.047 A 
ENDBRANCH   1  28
ENDBRANCH  14   1
ENDBRANCH  16  14
BRANCH  25  27
ATOM     27  C   UNL     1      -3.135   1.236  -0.461  0.00  0.00    +0.256 C 
BRANCH  27   9
ATOM      9  O   UNL     1      -4.493   1.511  -0.218  0.00  0.00    -0.359 OA
BRANCH   9  31
ATOM     31  C   UNL     1      -5.343   0.918  -1.199  0.00  0.00    +0.280 C 
BRANCH  31  34
ATOM     11  O   UNL     1      -7.176   1.893   0.065  0.00  0.00    -0.248 OA
ATOM     34  C   UNL     1      -6.779   1.243  -0.891  0.00  0.00    +0.331 C 
BRANCH  34  10
ATOM     10  O   UNL     1      -7.593   0.709  -1.835  0.00  0.00    -0.479 OA
ATOM     36  H   UNL     1      -8.538   0.906  -1.659  0.00  0.00    +0.295 HD
ENDBRANCH  34  10
ENDBRANCH  31  34
ENDBRANCH   9  31
ENDBRANCH  27   9
ENDBRANCH  25  27
TORSDOF 11
