REMARK  Name = 51137369
REMARK  5 active torsions:
REMARK  status: ('A' for Active; 'I' for Inactive)
REMARK    1  A    between atoms: N_4  and  C_12
REMARK    2  A    between atoms: C_8  and  C_13
REMARK    3  A    between atoms: C_12  and  C_14
REMARK    4  A    between atoms: C_15  and  C_18
REMARK    5  A    between atoms: C_18  and  C_20
REMARK                            x       y       z     vdW  Elec       q    Type
REMARK                         _______ _______ _______ _____ _____    ______ ____
ROOT
ATOM      1  O   UNL     1       2.709  -0.349  -0.027  0.00  0.00    -0.424 OA
ATOM      5  N   UNL     1       4.004  -1.383  -1.530  0.00  0.00    -0.112 NA
ATOM      6  N   UNL     1       4.309  -0.035  -1.558  0.00  0.00    -0.112 NA
ATOM     13  C   UNL     1       3.066  -1.520  -0.623  0.00  0.00    +0.222 A 
ATOM     15  C   UNL     1       3.530   0.529  -0.666  0.00  0.00    +0.222 A 
ENDROOT
BRANCH  13   8
ATOM      4  N   UNL     1       0.302  -2.723   1.047  0.00  0.00    -0.297 NA
ATOM      8  C   UNL     1       2.348  -2.768  -0.160  0.00  0.00    +0.092 C 
ATOM      9  C   UNL     1       2.574  -3.065   1.330  0.00  0.00    +0.029 C 
ATOM     10  C   UNL     1       0.818  -2.729  -0.325  0.00  0.00    +0.097 C 
ATOM     11  C   UNL     1       1.222  -3.554   1.820  0.00  0.00    +0.085 C 
BRANCH   4  12
ATOM     12  C   UNL     1      -1.075  -3.186   1.129  0.00  0.00    +0.119 C 
BRANCH  12  14
ATOM      2  O   UNL     1      -3.721   0.926   0.367  0.00  0.00    -0.453 OA
ATOM      3  O   UNL     1      -4.539   0.147  -1.761  0.00  0.00    -0.453 OA
ATOM     14  C   UNL     1      -2.008  -2.318   0.327  0.00  0.00    -0.030 A 
ATOM     16  C   UNL     1      -2.389  -1.069   0.822  0.00  0.00    +0.054 A 
ATOM     17  C   UNL     1      -2.485  -2.772  -0.915  0.00  0.00    +0.009 A 
ATOM     19  C   UNL     1      -3.244  -0.308   0.050  0.00  0.00    +0.167 A 
ATOM     21  C   UNL     1      -3.349  -1.982  -1.677  0.00  0.00    +0.050 A 
ATOM     22  C   UNL     1      -3.711  -0.753  -1.165  0.00  0.00    +0.166 A 
ATOM     26  C   UNL     1      -4.541   1.209  -0.785  0.00  0.00    +0.466 C 
ENDBRANCH  12  14
ENDBRANCH   4  12
ENDBRANCH  13   8
BRANCH  15  18
ATOM     18  C   UNL     1       3.427   1.940  -0.271  0.00  0.00    +0.135 C 
BRANCH  18  20
ATOM      7  N   UNL     1       0.263   3.572  -1.272  0.00  0.00    -0.360 N 
ATOM     20  C   UNL     1       2.034   2.543  -0.417  0.00  0.00    -0.013 A 
ATOM     23  C   UNL     1       1.010   2.561   0.571  0.00  0.00    +0.003 A 
ATOM     24  C   UNL     1      -0.090   3.212   0.009  0.00  0.00    +0.047 A 
ATOM     25  C   UNL     1       1.545   3.172  -1.539  0.00  0.00    +0.087 A 
ATOM     27  C   UNL     1       0.914   2.085   1.893  0.00  0.00    +0.010 A 
ATOM     28  C   UNL     1      -1.287   3.411   0.706  0.00  0.00    +0.026 A 
ATOM     29  C   UNL     1      -0.277   2.277   2.603  0.00  0.00    +0.001 A 
ATOM     30  C   UNL     1      -1.359   2.930   2.017  0.00  0.00    +0.002 A 
ATOM     31  H   UNL     1      -0.339   4.060  -1.922  0.00  0.00    +0.165 HD
ENDBRANCH  18  20
ENDBRANCH  15  18
TORSDOF 5
