REMARK  Name = 51137550
REMARK  7 active torsions:
REMARK  status: ('A' for Active; 'I' for Inactive)
REMARK    1  A    between atoms: N_3  and  C_8
REMARK    2  A    between atoms: N_7  and  C_26
REMARK    3  A    between atoms: N_7  and  C_27
REMARK    4  A    between atoms: N_7  and  C_28
REMARK    5  A    between atoms: C_10  and  C_17
REMARK    6  A    between atoms: C_18  and  C_19
REMARK    7  A    between atoms: C_20  and  C_21
REMARK                            x       y       z     vdW  Elec       q    Type
REMARK                         _______ _______ _______ _____ _____    ______ ____
ROOT
ATOM      3  N   UNL     1       2.570   1.180   0.574  0.00  0.00    -0.299 NA
ATOM      9  C   UNL     1       1.520   1.438  -0.414  0.00  0.00    +0.097 C 
ATOM     10  C   UNL     1       0.666   2.515   0.269  0.00  0.00    +0.092 C 
ATOM     11  C   UNL     1       1.874   1.133   1.860  0.00  0.00    +0.085 C 
ATOM     12  C   UNL     1       0.920   2.317   1.773  0.00  0.00    +0.029 C 
ENDROOT
BRANCH   3   8
ATOM      2  O   UNL     1       7.963  -1.772   0.489  0.00  0.00    -0.276 OA
ATOM      4  N   UNL     1       5.798  -1.413  -0.273  0.00  0.00    -0.302 N 
ATOM      8  C   UNL     1       3.308  -0.049   0.295  0.00  0.00    +0.060 C 
ATOM     13  C   UNL     1       3.975   0.038  -1.083  0.00  0.00    +0.038 C 
ATOM     14  C   UNL     1       4.359  -0.291   1.386  0.00  0.00    +0.038 C 
ATOM     15  C   UNL     1       4.832  -1.198  -1.357  0.00  0.00    +0.109 C 
ATOM     16  C   UNL     1       5.207  -1.521   1.063  0.00  0.00    +0.109 C 
ATOM     18  C   UNL     1       7.175  -1.555  -0.436  0.00  0.00    +0.212 C 
ATOM     19  C   UNL     1       7.706  -1.429  -1.841  0.00  0.00    +0.109 C 
ENDBRANCH   3   8
BRANCH  10  17
ATOM      1  O   UNL     1      -1.460   1.307   0.122  0.00  0.00    -0.420 OA
ATOM      5  N   UNL     1      -1.524   3.375  -0.730  0.00  0.00    -0.112 NA
ATOM      6  N   UNL     1      -2.779   2.813  -0.877  0.00  0.00    -0.107 NA
ATOM     17  C   UNL     1      -0.788   2.461  -0.142  0.00  0.00    +0.222 A 
ATOM     20  C   UNL     1      -2.694   1.607  -0.366  0.00  0.00    +0.248 A 
BRANCH  20  21
ATOM     21  C   UNL     1      -3.684   0.576  -0.244  0.00  0.00    +0.039 A 
ATOM     22  C   UNL     1      -4.978   0.792  -0.716  0.00  0.00    +0.015 A 
ATOM     23  C   UNL     1      -3.351  -0.644   0.345  0.00  0.00    +0.015 A 
ATOM     24  C   UNL     1      -5.940  -0.211  -0.599  0.00  0.00    +0.024 A 
ATOM     25  C   UNL     1      -4.313  -1.647   0.463  0.00  0.00    +0.024 A 
ATOM     26  C   UNL     1      -5.608  -1.431  -0.009  0.00  0.00    +0.029 A 
BRANCH  26   7
ATOM      7  N   UNL     1      -6.581  -2.444   0.111  0.00  0.00    -0.336 N 
ATOM     27  C   UNL     1      -6.244  -3.718   0.715  0.00  0.00    +0.129 C 
ATOM     28  C   UNL     1      -7.929  -2.228  -0.375  0.00  0.00    +0.129 C 
ENDBRANCH  26   7
ENDBRANCH  20  21
ENDBRANCH  10  17
TORSDOF 4
