REMARK  Name = 26743860
REMARK  7 active torsions:
REMARK  status: ('A' for Active; 'I' for Inactive)
REMARK    1  A    between atoms: O_1  and  C_9
REMARK    2  A    between atoms: O_3  and  C_14
REMARK    3  A    between atoms: N_4  and  C_11
REMARK    4  A    between atoms: C_7  and  C_12
REMARK    5  A    between atoms: C_11  and  C_13
REMARK    6  A    between atoms: C_16  and  C_17
REMARK    7  A    between atoms: C_23  and  C_26
REMARK                            x       y       z     vdW  Elec       q    Type
REMARK                         _______ _______ _______ _____ _____    ______ ____
ROOT
ATOM      4  N   UNL     1       2.802   0.084   0.418  0.00  0.00    -0.284 NA
ATOM      7  C   UNL     1       2.479  -0.868  -0.664  0.00  0.00    +0.149 C 
ATOM      8  C   UNL     1       3.127  -2.195  -0.227  0.00  0.00    +0.061 C 
ATOM      9  C   UNL     1       3.828  -1.878   1.088  0.00  0.00    +0.130 C 
ATOM     10  C   UNL     1       4.052  -0.379   1.018  0.00  0.00    +0.116 C 
ENDROOT
BRANCH   7  12
ATOM      2  O   UNL     1       0.605  -1.345  -2.159  0.00  0.00    -0.336 OA
ATOM      5  N   UNL     1      -0.004  -0.813  -0.070  0.00  0.00    -0.190 NA
ATOM      6  N   UNL     1      -0.794  -1.397  -2.137  0.00  0.00    -0.056 NA
ATOM     12  C   UNL     1       0.989  -0.995  -0.904  0.00  0.00    +0.245 A 
ATOM     16  C   UNL     1      -1.078  -1.072  -0.872  0.00  0.00    +0.202 A 
BRANCH  16  17
ATOM     17  C   UNL     1      -2.422  -0.997  -0.378  0.00  0.00    +0.023 A 
ATOM     21  C   UNL     1      -2.658  -0.651   0.953  0.00  0.00    +0.015 A 
ATOM     22  C   UNL     1      -3.494  -1.268  -1.229  0.00  0.00    +0.012 A 
ATOM     23  C   UNL     1      -3.966  -0.577   1.433  0.00  0.00    -0.050 A 
ATOM     24  C   UNL     1      -4.801  -1.194  -0.749  0.00  0.00    +0.001 A 
ATOM     25  C   UNL     1      -5.038  -0.848   0.582  0.00  0.00    +0.003 A 
ATOM     26  C   UNL     1      -4.219  -0.207   2.855  0.00  0.00    +0.044 C 
ENDBRANCH  16  17
ENDBRANCH   7  12
BRANCH   9   1
ATOM      1  O   UNL     1       5.048  -2.587   1.190  0.00  0.00    -0.390 OA
ATOM     27  H   UNL     1       4.838  -3.535   1.153  0.00  0.00    +0.210 HD
ENDBRANCH   9   1
BRANCH   4  11
ATOM     11  C   UNL     1       2.892   1.464  -0.039  0.00  0.00    +0.124 C 
BRANCH  11  13
ATOM     13  C   UNL     1       1.532   2.091  -0.201  0.00  0.00    +0.008 A 
ATOM     14  C   UNL     1       0.652   2.173   0.878  0.00  0.00    +0.121 A 
ATOM     15  C   UNL     1       1.155   2.590  -1.448  0.00  0.00    +0.008 A 
ATOM     18  C   UNL     1      -0.605   2.754   0.711  0.00  0.00    +0.046 A 
ATOM     19  C   UNL     1      -0.102   3.172  -1.615  0.00  0.00    +0.001 A 
ATOM     20  C   UNL     1      -0.982   3.254  -0.536  0.00  0.00    +0.004 A 
BRANCH  14   3
ATOM      3  O   UNL     1       1.003   1.688   2.102  0.00  0.00    -0.506 OA
ATOM     28  H   UNL     1       0.266   1.825   2.721  0.00  0.00    +0.292 HD
ENDBRANCH  14   3
ENDBRANCH  11  13
ENDBRANCH   4  11
TORSDOF 6
