REMARK  Name = 45784296
REMARK  5 active torsions:
REMARK  status: ('A' for Active; 'I' for Inactive)
REMARK    1  A    between atoms: O_1  and  C_18
REMARK    2  A    between atoms: O_1  and  C_23
REMARK    3  A    between atoms: N_2  and  C_11
REMARK    4  A    between atoms: C_6  and  C_10
REMARK    5  A    between atoms: C_11  and  C_13
REMARK                            x       y       z     vdW  Elec       q    Type
REMARK                         _______ _______ _______ _____ _____    ______ ____
ROOT
ATOM      2  N   UNL     1      -2.380  -0.272  -0.108  0.00  0.00    -0.296 NA
ATOM      6  C   UNL     1      -0.162  -0.743   0.494  0.00  0.00    +0.070 C 
ATOM      7  C   UNL     1      -0.888  -0.083   1.679  0.00  0.00    +0.028 C 
ATOM      8  C   UNL     1      -1.062  -0.462  -0.718  0.00  0.00    +0.096 C 
ATOM      9  C   UNL     1      -2.133   0.554   1.074  0.00  0.00    +0.085 C 
ENDROOT
BRANCH   6  10
ATOM      3  N   UNL     1       2.307  -1.167   0.339  0.00  0.00    -0.341 N 
ATOM      4  N   UNL     1       1.668   0.942   0.049  0.00  0.00    -0.232 NA
ATOM     10  C   UNL     1       1.263  -0.285   0.288  0.00  0.00    +0.113 A 
ATOM     12  C   UNL     1       3.462  -0.462   0.118  0.00  0.00    +0.070 A 
ATOM     14  C   UNL     1       3.037   0.852  -0.060  0.00  0.00    +0.089 A 
ATOM     15  C   UNL     1       4.801  -0.848   0.060  0.00  0.00    +0.073 A 
ATOM     16  C   UNL     1       3.990   1.853  -0.312  0.00  0.00    +0.033 A 
ATOM     18  C   UNL     1       5.737   0.161  -0.192  0.00  0.00    +0.122 A 
ATOM     19  C   UNL     1       5.341   1.488  -0.374  0.00  0.00    +0.048 A 
ATOM     24  H   UNL     1       2.243  -2.162   0.509  0.00  0.00    +0.167 HD
BRANCH  18   1
ATOM      1  O   UNL     1       7.061  -0.159  -0.259  0.00  0.00    -0.495 OA
ATOM     23  C   UNL     1       7.406  -1.529  -0.065  0.00  0.00    +0.277 C 
ENDBRANCH  18   1
ENDBRANCH   6  10
BRANCH   2  11
ATOM     11  C   UNL     1      -3.332   0.341  -1.022  0.00  0.00    +0.139 C 
BRANCH  11  13
ATOM      5  N   UNL     1      -5.367   1.200  -0.003  0.00  0.00    -0.259 NA
ATOM     13  C   UNL     1      -4.753   0.138  -0.571  0.00  0.00    +0.055 A 
ATOM     17  C   UNL     1      -5.354  -1.098  -0.753  0.00  0.00    +0.024 A 
ATOM     20  C   UNL     1      -6.668  -1.252  -0.326  0.00  0.00    +0.003 A 
ATOM     21  C   UNL     1      -6.643   1.013   0.400  0.00  0.00    +0.111 A 
ATOM     22  C   UNL     1      -7.332  -0.182   0.262  0.00  0.00    +0.020 A 
ENDBRANCH  11  13
ENDBRANCH   2  11
TORSDOF 4
