REMARK  Name = 75536638
REMARK  7 active torsions:
REMARK  status: ('A' for Active; 'I' for Inactive)
REMARK    1  A    between atoms: O_3  and  C_9
REMARK    2  A    between atoms: N_5  and  C_8
REMARK    3  A    between atoms: N_5  and  C_13
REMARK    4  A    between atoms: N_6  and  C_12
REMARK    5  A    between atoms: C_10  and  C_12
REMARK    6  A    between atoms: C_13  and  C_14
REMARK    7  A    between atoms: C_15  and  C_17
REMARK                            x       y       z     vdW  Elec       q    Type
REMARK                         _______ _______ _______ _____ _____    ______ ____
ROOT
ATOM      2  O   UNL     1       0.080  -0.839   0.125  0.00  0.00    -0.371 OA
ATOM      8  C   UNL     1      -2.006   0.219  -0.291  0.00  0.00    +0.111 C 
ATOM      9  C   UNL     1      -1.136   1.148   0.534  0.00  0.00    +0.164 C 
ATOM     10  C   UNL     1       0.249   0.583   0.251  0.00  0.00    +0.165 C 
ATOM     11  C   UNL     1      -1.318  -1.118  -0.064  0.00  0.00    +0.181 C 
ENDROOT
BRANCH   9   3
ATOM      3  O   UNL     1      -1.246   2.500   0.133  0.00  0.00    -0.388 OA
ATOM     27  H   UNL     1      -1.028   2.557  -0.813  0.00  0.00    +0.210 HD
ENDBRANCH   9   3
BRANCH   8   5
ATOM      5  N   UNL     1      -3.402   0.213   0.114  0.00  0.00    -0.303 NA
ATOM     26  H   UNL     1      -3.714   1.175   0.249  0.00  0.00    +0.123 HD
BRANCH   5  13
ATOM     13  C   UNL     1      -4.240  -0.417  -0.900  0.00  0.00    +0.137 C 
BRANCH  13  14
ATOM      7  N   UNL     1      -6.504   0.455  -1.082  0.00  0.00    -0.259 NA
ATOM     14  C   UNL     1      -5.689  -0.446  -0.490  0.00  0.00    +0.055 A 
ATOM     16  C   UNL     1      -6.109  -1.373   0.451  0.00  0.00    +0.024 A 
ATOM     18  C   UNL     1      -7.453  -1.375   0.807  0.00  0.00    +0.003 A 
ATOM     21  C   UNL     1      -7.804   0.422  -0.711  0.00  0.00    +0.111 A 
ATOM     22  C   UNL     1      -8.323  -0.464   0.219  0.00  0.00    +0.020 A 
ENDBRANCH  13  14
ENDBRANCH   5  13
ENDBRANCH   8   5
BRANCH  10  12
ATOM     12  C   UNL     1       1.257   0.885   1.345  0.00  0.00    +0.138 C 
BRANCH  12   6
ATOM      4  O   UNL     1       3.378   2.174  -0.099  0.00  0.00    -0.270 OA
ATOM      6  N   UNL     1       2.544   0.331   1.037  0.00  0.00    -0.309 N 
ATOM     15  C   UNL     1       3.516   1.031   0.329  0.00  0.00    +0.244 C 
ATOM     28  H   UNL     1       2.697  -0.636   1.301  0.00  0.00    +0.149 HD
BRANCH  15  17
ATOM      1  F   UNL     1       8.321  -1.702  -0.654  0.00  0.00    -0.205 F 
ATOM     17  C   UNL     1       4.787   0.308   0.069  0.00  0.00    +0.037 A 
ATOM     19  C   UNL     1       5.563   0.639  -1.042  0.00  0.00    +0.016 A 
ATOM     20  C   UNL     1       5.205  -0.703   0.935  0.00  0.00    +0.016 A 
ATOM     23  C   UNL     1       6.757  -0.040  -1.287  0.00  0.00    +0.039 A 
ATOM     24  C   UNL     1       6.398  -1.382   0.691  0.00  0.00    +0.039 A 
ATOM     25  C   UNL     1       7.174  -1.050  -0.420  0.00  0.00    +0.123 A 
ENDBRANCH  15  17
ENDBRANCH  12   6
ENDBRANCH  10  12
TORSDOF 7
