REMARK  Name = 45361714
REMARK  7 active torsions:
REMARK  status: ('A' for Active; 'I' for Inactive)
REMARK    1  A    between atoms: N_9  and  C_29
REMARK    2  A    between atoms: C_12  and  C_26
REMARK    3  A    between atoms: C_14  and  C_18
REMARK    4  A    between atoms: C_16  and  C_19
REMARK    5  A    between atoms: C_29  and  C_30
REMARK    6  A    between atoms: C_29  and  C_32
REMARK    7  A    between atoms: C_30  and  C_31
REMARK                            x       y       z     vdW  Elec       q    Type
REMARK                         _______ _______ _______ _____ _____    ______ ____
ROOT
ATOM      1  O   UNL     1      -0.561  -3.994   1.005  0.00  0.00    -0.275 OA
ATOM      2  O   UNL     1       4.253   0.992  -1.381  0.00  0.00    -0.275 OA
ATOM      5  N   UNL     1       0.584  -2.109   0.269  0.00  0.00    -0.287 N 
ATOM      6  N   UNL     1       3.074  -0.712  -0.328  0.00  0.00    -0.298 N 
ATOM     12  C   UNL     1       0.582  -0.788  -0.374  0.00  0.00    +0.179 C 
ATOM     13  C   UNL     1       1.873  -0.502  -1.141  0.00  0.00    +0.139 C 
ATOM     15  C   UNL     1       1.885  -2.765   0.423  0.00  0.00    +0.127 C 
ATOM     17  C   UNL     1       3.018  -1.779   0.676  0.00  0.00    +0.127 C 
ATOM     18  C   UNL     1      -0.569  -2.831   0.594  0.00  0.00    +0.219 C 
ATOM     19  C   UNL     1       4.196   0.093  -0.539  0.00  0.00    +0.219 C 
ENDROOT
BRANCH  18  14
ATOM      7  N   UNL     1      -3.997  -4.043  -0.253  0.00  0.00    -0.316 NA
ATOM     14  C   UNL     1      -1.883  -2.123   0.414  0.00  0.00    +0.078 C 
ATOM     20  C   UNL     1      -2.409  -2.304  -1.011  0.00  0.00    +0.028 C 
ATOM     21  C   UNL     1      -2.908  -2.608   1.442  0.00  0.00    +0.028 C 
ATOM     24  C   UNL     1      -2.977  -3.705  -1.246  0.00  0.00    +0.081 C 
ATOM     25  C   UNL     1      -3.455  -3.996   1.104  0.00  0.00    +0.081 C 
ATOM     40  H   UNL     1      -4.354  -4.979  -0.442  0.00  0.00    +0.122 HD
ENDBRANCH  18  14
BRANCH  19  16
ATOM      8  N   UNL     1       7.869   0.459  -1.093  0.00  0.00    -0.316 NA
ATOM     16  C   UNL     1       5.388  -0.190   0.330  0.00  0.00    +0.078 C 
ATOM     22  C   UNL     1       6.181   1.090   0.601  0.00  0.00    +0.028 C 
ATOM     23  C   UNL     1       6.280  -1.263  -0.300  0.00  0.00    +0.028 C 
ATOM     27  C   UNL     1       7.000   1.532  -0.613  0.00  0.00    +0.081 C 
ATOM     28  C   UNL     1       7.095  -0.721  -1.476  0.00  0.00    +0.081 C 
ATOM     41  H   UNL     1       8.400   0.790  -1.898  0.00  0.00    +0.122 HD
ENDBRANCH  19  16
BRANCH  12  26
ATOM      3  O   UNL     1       0.797   0.078   1.842  0.00  0.00    -0.274 OA
ATOM      9  N   UNL     1      -0.316   1.348   0.240  0.00  0.00    -0.302 N 
ATOM     26  C   UNL     1       0.384   0.245   0.698  0.00  0.00    +0.236 C 
ATOM     42  H   UNL     1      -0.547   1.411  -0.748  0.00  0.00    +0.150 HD
BRANCH   9  29
ATOM     29  C   UNL     1      -0.657   2.473   1.081  0.00  0.00    +0.163 C 
BRANCH  29  32
ATOM      4  O   UNL     1       1.231   3.613   0.060  0.00  0.00    -0.274 OA
ATOM     11  N   UNL     1       0.694   4.110   2.237  0.00  0.00    -0.328 N 
ATOM     32  C   UNL     1       0.526   3.429   1.050  0.00  0.00    +0.231 C 
ATOM     44  H   UNL     1       1.440   4.789   2.347  0.00  0.00    +0.145 HD
ATOM     45  H   UNL     1       0.090   3.964   3.040  0.00  0.00    +0.145 HD
ENDBRANCH  29  32
BRANCH  29  30
ATOM     30  C   UNL     1      -1.931   3.184   0.610  0.00  0.00    +0.069 C 
BRANCH  30  31
ATOM     10  N   UNL     1      -4.720   0.863   1.244  0.00  0.00    -0.360 N 
ATOM     31  C   UNL     1      -3.135   2.274   0.592  0.00  0.00    -0.020 A 
ATOM     33  C   UNL     1      -3.968   1.993  -0.526  0.00  0.00    +0.003 A 
ATOM     34  C   UNL     1      -3.622   1.565   1.666  0.00  0.00    +0.087 A 
ATOM     35  C   UNL     1      -4.955   1.106  -0.090  0.00  0.00    +0.047 A 
ATOM     36  C   UNL     1      -3.979   2.410  -1.872  0.00  0.00    +0.010 A 
ATOM     37  C   UNL     1      -5.954   0.613  -0.936  0.00  0.00    +0.026 A 
ATOM     38  C   UNL     1      -4.973   1.925  -2.730  0.00  0.00    +0.001 A 
ATOM     39  C   UNL     1      -5.944   1.040  -2.267  0.00  0.00    +0.002 A 
ATOM     43  H   UNL     1      -5.277   0.254   1.828  0.00  0.00    +0.165 HD
ENDBRANCH  30  31
ENDBRANCH  29  30
ENDBRANCH   9  29
ENDBRANCH  12  26
TORSDOF 7
