REMARK  Name = 26743766
REMARK  6 active torsions:
REMARK  status: ('A' for Active; 'I' for Inactive)
REMARK    1  A    between atoms: O_2  and  C_9
REMARK    2  A    between atoms: N_4  and  C_11
REMARK    3  A    between atoms: C_7  and  C_12
REMARK    4  A    between atoms: C_11  and  C_13
REMARK    5  A    between atoms: C_14  and  C_17
REMARK    6  A    between atoms: C_25  and  C_26
REMARK                            x       y       z     vdW  Elec       q    Type
REMARK                         _______ _______ _______ _____ _____    ______ ____
ROOT
ATOM      4  N   UNL     1      -2.420   0.831  -0.025  0.00  0.00    -0.285 NA
ATOM      7  C   UNL     1      -1.698   2.054  -0.430  0.00  0.00    +0.149 C 
ATOM      8  C   UNL     1      -2.007   3.079   0.677  0.00  0.00    +0.061 C 
ATOM      9  C   UNL     1      -2.946   2.354   1.634  0.00  0.00    +0.130 C 
ATOM     10  C   UNL     1      -3.564   1.270   0.772  0.00  0.00    +0.116 C 
ENDROOT
BRANCH   7  12
ATOM      3  O   UNL     1       0.424   2.638  -1.493  0.00  0.00    -0.336 OA
ATOM      5  N   UNL     1       0.564   0.933  -0.046  0.00  0.00    -0.190 NA
ATOM      6  N   UNL     1       1.766   2.236  -1.493  0.00  0.00    -0.056 NA
ATOM     12  C   UNL     1      -0.213   1.820  -0.614  0.00  0.00    +0.245 A 
ATOM     14  C   UNL     1       1.768   1.227  -0.617  0.00  0.00    +0.202 A 
BRANCH  14  17
ATOM      1  F   UNL     1       3.990  -2.263   1.845  0.00  0.00    -0.205 F 
ATOM     17  C   UNL     1       2.957   0.494  -0.287  0.00  0.00    +0.025 A 
ATOM     21  C   UNL     1       2.899  -0.549   0.637  0.00  0.00    +0.050 A 
ATOM     22  C   UNL     1       4.170   0.824  -0.892  0.00  0.00    +0.012 A 
ATOM     23  C   UNL     1       4.055  -1.262   0.956  0.00  0.00    +0.127 A 
ATOM     24  C   UNL     1       5.325   0.111  -0.573  0.00  0.00    +0.007 A 
ATOM     25  C   UNL     1       5.268  -0.932   0.351  0.00  0.00    -0.015 A 
ATOM     26  C   UNL     1       6.505  -1.693   0.691  0.00  0.00    +0.047 C 
ENDBRANCH  14  17
ENDBRANCH   7  12
BRANCH   9   2
ATOM      2  O   UNL     1      -3.923   3.240   2.145  0.00  0.00    -0.390 OA
ATOM     27  H   UNL     1      -3.455   3.948   2.620  0.00  0.00    +0.210 HD
ENDBRANCH   9   2
BRANCH   4  11
ATOM     11  C   UNL     1      -2.824   0.001  -1.153  0.00  0.00    +0.120 C 
BRANCH  11  13
ATOM     13  C   UNL     1      -3.096  -1.419  -0.735  0.00  0.00    -0.033 A 
ATOM     15  C   UNL     1      -2.066  -2.360  -0.748  0.00  0.00    +0.005 A 
ATOM     16  C   UNL     1      -4.379  -1.795  -0.335  0.00  0.00    +0.005 A 
ATOM     18  C   UNL     1      -2.319  -3.676  -0.360  0.00  0.00    +0.000 A 
ATOM     19  C   UNL     1      -4.631  -3.111   0.052  0.00  0.00    +0.000 A 
ATOM     20  C   UNL     1      -3.602  -4.051   0.040  0.00  0.00    +0.000 A 
ENDBRANCH  11  13
ENDBRANCH   4  11
TORSDOF 5
