REMARK  Name = 26761982
REMARK  3 active torsions:
REMARK  status: ('A' for Active; 'I' for Inactive)
REMARK    1  A    between atoms: N_10  and  C_21
REMARK    2  A    between atoms: C_12  and  C_17
REMARK    3  A    between atoms: C_20  and  C_22
REMARK                            x       y       z     vdW  Elec       q    Type
REMARK                         _______ _______ _______ _____ _____    ______ ____
ROOT
ATOM      5  O   UNL     1      -2.615   0.928   1.665  0.00  0.00    -0.252 OA
ATOM      6  N   UNL     1      -1.320  -0.568   0.448  0.00  0.00    -0.267 N 
ATOM      7  N   UNL     1      -0.090  -3.619  -1.337  0.00  0.00    -0.347 N 
ATOM      8  N   UNL     1       0.672  -4.228   0.672  0.00  0.00    -0.240 NA
ATOM     10  N   UNL     1      -3.219   0.445  -0.526  0.00  0.00    -0.269 N 
ATOM     12  C   UNL     1      -0.307  -0.668   1.557  0.00  0.00    +0.172 C 
ATOM     13  C   UNL     1      -0.012  -2.148   1.944  0.00  0.00    +0.089 C 
ATOM     14  C   UNL     1      -1.058  -1.322  -0.813  0.00  0.00    +0.165 C 
ATOM     15  C   UNL     1       0.098  -2.990   0.735  0.00  0.00    +0.066 A 
ATOM     16  C   UNL     1      -0.382  -2.593  -0.489  0.00  0.00    +0.056 A 
ATOM     18  C   UNL     1      -2.420   0.317   0.612  0.00  0.00    +0.307 C 
ATOM     19  C   UNL     1       0.544  -4.581  -0.591  0.00  0.00    +0.197 A 
ATOM     33  H   UNL     1      -0.298  -3.667  -2.326  0.00  0.00    +0.167 HD
ATOM     34  H   UNL     1      -2.783   0.296  -1.431  0.00  0.00    +0.156 HD
ENDROOT
BRANCH  10  21
ATOM      2 CL   UNL     1      -9.031   1.591  -0.735  0.00  0.00    -0.084 Cl
ATOM     21  C   UNL     1      -4.608   0.720  -0.576  0.00  0.00    +0.035 A 
ATOM     23  C   UNL     1      -5.256   0.816  -1.808  0.00  0.00    +0.025 A 
ATOM     24  C   UNL     1      -5.328   0.893   0.606  0.00  0.00    +0.025 A 
ATOM     27  C   UNL     1      -6.624   1.085  -1.857  0.00  0.00    +0.022 A 
ATOM     28  C   UNL     1      -6.696   1.163   0.557  0.00  0.00    +0.022 A 
ATOM     31  C   UNL     1      -7.344   1.259  -0.675  0.00  0.00    +0.041 A 
ENDBRANCH  10  21
BRANCH  12  17
ATOM      4  O   UNL     1       0.807   1.520   1.598  0.00  0.00    -0.336 OA
ATOM      9  N   UNL     1       2.046  -0.113   0.697  0.00  0.00    -0.190 NA
ATOM     11  N   UNL     1       2.020   2.113   1.225  0.00  0.00    -0.056 NA
ATOM     17  C   UNL     1       0.905   0.210   1.252  0.00  0.00    +0.249 A 
ATOM     20  C   UNL     1       2.697   1.086   0.702  0.00  0.00    +0.202 A 
BRANCH  20  22
ATOM      1 CL   UNL     1       6.782  -1.118  -1.525  0.00  0.00    -0.081 Cl
ATOM      3  F   UNL     1       7.847   1.641  -1.332  0.00  0.00    -0.204 F 
ATOM     22  C   UNL     1       4.024   1.224   0.177  0.00  0.00    +0.024 A 
ATOM     25  C   UNL     1       4.683   0.117  -0.357  0.00  0.00    +0.034 A 
ATOM     26  C   UNL     1       4.657   2.468   0.199  0.00  0.00    +0.014 A 
ATOM     29  C   UNL     1       5.974   0.252  -0.868  0.00  0.00    +0.077 A 
ATOM     30  C   UNL     1       5.948   2.603  -0.311  0.00  0.00    +0.040 A 
ATOM     32  C   UNL     1       6.606   1.495  -0.845  0.00  0.00    +0.142 A 
ENDBRANCH  20  22
ENDBRANCH  12  17
TORSDOF 3
