REMARK  Name = 38026427
REMARK  11 active torsions:
REMARK  status: ('A' for Active; 'I' for Inactive)
REMARK    1  A    between atoms: O_3  and  C_16
REMARK    2  A    between atoms: N_6  and  C_14
REMARK    3  A    between atoms: N_6  and  C_17
REMARK    4  A    between atoms: N_6  and  C_18
REMARK    5  A    between atoms: C_7  and  C_11
REMARK    6  A    between atoms: C_8  and  C_13
REMARK    7  A    between atoms: C_11  and  C_14
REMARK    8  A    between atoms: C_13  and  C_16
REMARK    9  A    between atoms: C_15  and  C_19
REMARK   10  A    between atoms: C_17  and  C_20
REMARK   11  A    between atoms: C_18  and  C_21
REMARK                            x       y       z     vdW  Elec       q    Type
REMARK                         _______ _______ _______ _____ _____    ______ ____
ROOT
ATOM      2  O   UNL     1       0.871  -3.180   1.768  0.00  0.00    -0.270 OA
ATOM      5  N   UNL     1      -0.340  -2.141   0.057  0.00  0.00    -0.297 N 
ATOM      7  C   UNL     1      -1.423  -0.112  -0.884  0.00  0.00    +0.011 C 
ATOM      8  C   UNL     1      -2.797  -0.705  -0.480  0.00  0.00    +0.006 C 
ATOM      9  C   UNL     1      -2.668  -1.670   0.711  0.00  0.00    +0.023 C 
ATOM     10  C   UNL     1      -0.406  -1.247  -1.107  0.00  0.00    +0.112 C 
ATOM     12  C   UNL     1      -1.615  -2.742   0.443  0.00  0.00    +0.108 C 
ATOM     15  C   UNL     1       0.811  -2.437   0.790  0.00  0.00    +0.247 C 
ENDROOT
BRANCH  15  19
ATOM      1  F   UNL     1       5.625  -0.067  -0.799  0.00  0.00    -0.205 F 
ATOM     19  C   UNL     1       2.073  -1.815   0.373  0.00  0.00    +0.037 A 
ATOM     22  C   UNL     1       2.451  -0.581   0.902  0.00  0.00    +0.016 A 
ATOM     23  C   UNL     1       2.896  -2.459  -0.552  0.00  0.00    +0.016 A 
ATOM     24  C   UNL     1       3.650   0.010   0.506  0.00  0.00    +0.039 A 
ATOM     25  C   UNL     1       4.095  -1.867  -0.948  0.00  0.00    +0.039 A 
ATOM     26  C   UNL     1       4.473  -0.633  -0.419  0.00  0.00    +0.123 A 
ENDBRANCH  15  19
BRANCH   7  11
ATOM     11  C   UNL     1      -0.868   0.910   0.116  0.00  0.00    +0.020 C 
BRANCH  11  14
ATOM     14  C   UNL     1       0.078   1.885  -0.572  0.00  0.00    +0.084 C 
BRANCH  14   6
ATOM      6  N   UNL     1       0.605   2.834   0.401  0.00  0.00    -0.303 NA
BRANCH   6  17
ATOM     17  C   UNL     1      -0.370   3.893   0.668  0.00  0.00    +0.081 C 
ATOM     20  C   UNL     1       0.139   4.853   1.730  0.00  0.00    +0.020 C 
ENDBRANCH   6  17
BRANCH   6  18
ATOM     18  C   UNL     1       1.864   3.412  -0.072  0.00  0.00    +0.081 C 
ATOM     21  C   UNL     1       1.659   4.202  -1.353  0.00  0.00    +0.020 C 
ENDBRANCH   6  18
ENDBRANCH  14   6
ENDBRANCH  11  14
ENDBRANCH   7  11
BRANCH   8  13
ATOM     13  C   UNL     1      -3.853   0.363  -0.197  0.00  0.00    +0.124 C 
BRANCH  13  16
ATOM      4  O   UNL     1      -5.552  -1.325  -0.647  0.00  0.00    -0.251 OA
ATOM     16  C   UNL     1      -5.246  -0.181  -0.345  0.00  0.00    +0.305 C 
BRANCH  16   3
ATOM      3  O   UNL     1      -6.150   0.800  -0.090  0.00  0.00    -0.481 OA
ATOM     27  H   UNL     1      -7.073   0.478  -0.178  0.00  0.00    +0.295 HD
ENDBRANCH  16   3
ENDBRANCH  13  16
ENDBRANCH   8  13
TORSDOF 9
