REMARK  Name = 38028898
REMARK  12 active torsions:
REMARK  status: ('A' for Active; 'I' for Inactive)
REMARK    1  A    between atoms: S_1  and  N_5
REMARK    2  A    between atoms: S_1  and  C_26
REMARK    3  A    between atoms: N_5  and  C_16
REMARK    4  A    between atoms: C_9  and  C_13
REMARK    5  A    between atoms: C_10  and  C_16
REMARK    6  A    between atoms: C_12  and  C_17
REMARK    7  A    between atoms: C_13  and  C_18
REMARK    8  A    between atoms: C_13  and  C_19
REMARK    9  A    between atoms: C_14  and  C_20
REMARK   10  A    between atoms: C_17  and  C_21
REMARK   11  A    between atoms: C_26  and  C_27
REMARK   12  A    between atoms: C_27  and  C_29
REMARK                            x       y       z     vdW  Elec       q    Type
REMARK                         _______ _______ _______ _____ _____    ______ ____
ROOT
ATOM      9  C   UNL     1      -2.771   1.465   0.898  0.00  0.00    +0.000 C 
ATOM     10  C   UNL     1      -3.958   1.397  -0.095  0.00  0.00    +0.030 C 
ATOM     11  C   UNL     1      -1.886   2.683   0.594  0.00  0.00    +0.012 C 
ATOM     12  C   UNL     1      -1.322   2.650  -0.840  0.00  0.00    +0.023 C 
ATOM     14  C   UNL     1      -2.394   2.320  -1.859  0.00  0.00    -0.073 C 
ATOM     15  C   UNL     1      -3.571   1.773  -1.506  0.00  0.00    -0.023 C 
ATOM     20  C   UNL     1      -2.100   2.676  -3.290  0.00  0.00    +0.039 C 
ENDROOT
BRANCH   9  13
ATOM     13  C   UNL     1      -3.248   1.521   2.353  0.00  0.00    -0.013 C 
ATOM     18  C   UNL     1      -2.165   0.995   3.289  0.00  0.00    +0.007 C 
ATOM     19  C   UNL     1      -3.642   2.946   2.728  0.00  0.00    +0.007 C 
ENDBRANCH   9  13
BRANCH  10  16
ATOM     16  C   UNL     1      -4.599   0.004  -0.095  0.00  0.00    +0.113 C 
BRANCH  16   5
ATOM      5  N   UNL     1      -3.632  -0.971  -0.620  0.00  0.00    -0.194 NA
ATOM     34  H   UNL     1      -3.424  -0.853  -1.620  0.00  0.00    +0.148 HD
BRANCH   5   1
ATOM      1  S   UNL     1      -3.691  -2.587  -0.068  0.00  0.00    +0.029 S 
ATOM      3  O   UNL     1      -3.491  -2.622   1.368  0.00  0.00    -0.158 OA
ATOM      4  O   UNL     1      -2.882  -3.406  -0.949  0.00  0.00    -0.158 OA
BRANCH   1  26
ATOM     26  C   UNL     1      -5.394  -2.979  -0.393  0.00  0.00    +0.185 C 
BRANCH  26  27
ATOM     27  C   UNL     1      -5.722  -4.405   0.020  0.00  0.00    +0.021 C 
ATOM     29  C   UNL     1      -7.173  -4.749  -0.275  0.00  0.00    +0.005 C 
ENDBRANCH  26  27
ENDBRANCH   1  26
ENDBRANCH   5   1
ENDBRANCH  16   5
ENDBRANCH  10  16
BRANCH  12  17
ATOM     17  C   UNL     1      -0.144   1.675  -0.947  0.00  0.00    +0.103 C 
BRANCH  17  21
ATOM      2  O   UNL     1       1.017   3.405   0.192  0.00  0.00    -0.276 OA
ATOM      6  N   UNL     1       2.234   1.492  -0.318  0.00  0.00    -0.298 N 
ATOM      7  N   UNL     1       4.619  -0.134  -0.100  0.00  0.00    -0.312 N 
ATOM      8  N   UNL     1       6.355  -1.397  -1.084  0.00  0.00    -0.240 NA
ATOM     21  C   UNL     1       1.081   2.277  -0.303  0.00  0.00    +0.216 C 
ATOM     22  C   UNL     1       3.463   2.006   0.282  0.00  0.00    +0.126 C 
ATOM     23  C   UNL     1       2.304   0.148  -0.896  0.00  0.00    +0.126 C 
ATOM     24  C   UNL     1       4.306   0.892   0.899  0.00  0.00    +0.125 C 
ATOM     25  C   UNL     1       3.731  -0.267  -1.257  0.00  0.00    +0.125 C 
ATOM     28  C   UNL     1       5.752  -0.934   0.034  0.00  0.00    +0.121 A 
ATOM     30  C   UNL     1       6.189  -1.204   1.321  0.00  0.00    +0.043 A 
ATOM     31  C   UNL     1       7.318  -2.002   1.470  0.00  0.00    +0.005 A 
ATOM     32  C   UNL     1       7.449  -2.169  -0.899  0.00  0.00    +0.113 A 
ATOM     33  C   UNL     1       7.966  -2.498   0.344  0.00  0.00    +0.020 A 
ENDBRANCH  17  21
ENDBRANCH  12  17
TORSDOF 8
