REMARK  Name = 51137077
REMARK  3 active torsions:
REMARK  status: ('A' for Active; 'I' for Inactive)
REMARK    1  A    between atoms: N_3  and  C_9
REMARK    2  A    between atoms: C_5  and  C_10
REMARK    3  A    between atoms: C_9  and  C_11
REMARK                            x       y       z     vdW  Elec       q    Type
REMARK                         _______ _______ _______ _____ _____    ______ ____
ROOT
ATOM      3  N   UNL     1      -1.531  -0.214  -0.003  0.00  0.00    -0.297 NA
ATOM      5  C   UNL     1       0.637  -0.830   0.644  0.00  0.00    +0.060 C 
ATOM      6  C   UNL     1      -0.005   0.028   1.748  0.00  0.00    +0.027 C 
ATOM      7  C   UNL     1      -0.246  -0.601  -0.590  0.00  0.00    +0.095 C 
ATOM      8  C   UNL     1      -1.189   0.712   1.077  0.00  0.00    +0.085 C 
ENDROOT
BRANCH   5  10
ATOM      1  S   UNL     1       3.243  -1.795   0.588  0.00  0.00    -0.072 S 
ATOM      4  N   UNL     1       2.567   0.625   0.007  0.00  0.00    -0.244 NA
ATOM     10  C   UNL     1       2.098  -0.541   0.385  0.00  0.00    +0.084 A 
ATOM     12  C   UNL     1       4.501  -0.706   0.135  0.00  0.00    +0.039 A 
ATOM     13  C   UNL     1       3.944   0.547  -0.140  0.00  0.00    +0.078 A 
ATOM     16  C   UNL     1       5.881  -0.943   0.031  0.00  0.00    +0.017 A 
ATOM     17  C   UNL     1       4.800   1.597  -0.533  0.00  0.00    +0.029 A 
ATOM     20  C   UNL     1       6.706   0.114  -0.360  0.00  0.00    +0.001 A 
ATOM     21  C   UNL     1       6.175   1.369  -0.639  0.00  0.00    +0.002 A 
ENDBRANCH   5  10
BRANCH   3   9
ATOM      9  C   UNL     1      -2.431   0.382  -0.979  0.00  0.00    +0.122 C 
BRANCH   9  11
ATOM      2  F   UNL     1      -4.049  -1.944  -0.989  0.00  0.00    -0.205 F 
ATOM     11  C   UNL     1      -3.860   0.372  -0.504  0.00  0.00    +0.002 A 
ATOM     14  C   UNL     1      -4.601  -0.809  -0.537  0.00  0.00    +0.128 A 
ATOM     15  C   UNL     1      -4.442   1.548  -0.031  0.00  0.00    +0.008 A 
ATOM     18  C   UNL     1      -5.924  -0.815  -0.096  0.00  0.00    +0.038 A 
ATOM     19  C   UNL     1      -5.766   1.542   0.410  0.00  0.00    +0.000 A 
ATOM     22  C   UNL     1      -6.506   0.361   0.378  0.00  0.00    +0.003 A 
ENDBRANCH   9  11
ENDBRANCH   3   9
TORSDOF 3
