REMARK  Name = 51137355
REMARK  6 active torsions:
REMARK  status: ('A' for Active; 'I' for Inactive)
REMARK    1  A    between atoms: S_1  and  C_19
REMARK    2  A    between atoms: S_1  and  C_23
REMARK    3  A    between atoms: N_5  and  C_13
REMARK    4  A    between atoms: C_9  and  C_14
REMARK    5  A    between atoms: C_13  and  C_15
REMARK    6  A    between atoms: C_18  and  C_22
REMARK                            x       y       z     vdW  Elec       q    Type
REMARK                         _______ _______ _______ _____ _____    ______ ____
ROOT
ATOM      5  N   UNL     1      -0.781  -0.781  -0.337  0.00  0.00    -0.297 NA
ATOM      9  C   UNL     1       1.212  -1.863   0.258  0.00  0.00    +0.092 C 
ATOM     10  C   UNL     1       0.493  -1.201  -0.925  0.00  0.00    +0.097 C 
ATOM     11  C   UNL     1       0.583  -1.220   1.506  0.00  0.00    +0.029 C 
ATOM     12  C   UNL     1      -0.428  -0.218   0.966  0.00  0.00    +0.085 C 
ENDROOT
BRANCH   9  14
ATOM      2  O   UNL     1       3.235  -0.488   0.151  0.00  0.00    -0.420 OA
ATOM      6  N   UNL     1       3.627  -2.691   0.116  0.00  0.00    -0.112 NA
ATOM      7  N   UNL     1       4.844  -2.039   0.050  0.00  0.00    -0.107 NA
ATOM     14  C   UNL     1       2.716  -1.746   0.173  0.00  0.00    +0.222 A 
ATOM     18  C   UNL     1       4.567  -0.756   0.074  0.00  0.00    +0.250 A 
BRANCH  18  22
ATOM      8  N   UNL     1       7.684   1.264  -0.090  0.00  0.00    -0.263 NA
ATOM     22  C   UNL     1       5.436   0.384   0.031  0.00  0.00    +0.057 A 
ATOM     24  C   UNL     1       4.924   1.677   0.068  0.00  0.00    +0.016 A 
ATOM     25  C   UNL     1       6.811   0.233  -0.047  0.00  0.00    +0.124 A 
ATOM     26  C   UNL     1       5.791   2.763   0.026  0.00  0.00    +0.020 A 
ATOM     27  C   UNL     1       7.150   2.505  -0.052  0.00  0.00    +0.111 A 
ENDBRANCH  18  22
ENDBRANCH   9  14
BRANCH   5  13
ATOM     13  C   UNL     1      -1.493   0.170  -1.178  0.00  0.00    +0.119 C 
BRANCH  13  15
ATOM     15  C   UNL     1      -2.951   0.262  -0.810  0.00  0.00    -0.033 A 
ATOM     16  C   UNL     1      -3.832  -0.748  -1.198  0.00  0.00    +0.007 A 
ATOM     17  C   UNL     1      -3.419   1.355  -0.083  0.00  0.00    +0.007 A 
ATOM     19  C   UNL     1      -5.651   0.431  -0.130  0.00  0.00    +0.088 A 
ATOM     20  C   UNL     1      -5.182  -0.663  -0.857  0.00  0.00    +0.027 A 
ATOM     21  C   UNL     1      -4.769   1.440   0.257  0.00  0.00    +0.027 A 
BRANCH  19   1
ATOM      1  S   UNL     1      -7.340   0.534   0.299  0.00  0.00    -0.006 S 
ATOM      3  O   UNL     1      -7.686   1.932   0.518  0.00  0.00    -0.170 OA
ATOM      4  O   UNL     1      -8.096  -0.255  -0.663  0.00  0.00    -0.170 OA
ATOM     23  C   UNL     1      -7.446  -0.279   1.877  0.00  0.00    +0.200 C 
ENDBRANCH  19   1
ENDBRANCH  13  15
ENDBRANCH   5  13
TORSDOF 5
