REMARK  Name = 45784008
REMARK  4 active torsions:
REMARK  status: ('A' for Active; 'I' for Inactive)
REMARK    1  A    between atoms: O_6  and  C_27
REMARK    2  A    between atoms: O_6  and  C_28
REMARK    3  A    between atoms: N_9  and  C_18
REMARK    4  A    between atoms: C_10  and  C_14
REMARK                            x       y       z     vdW  Elec       q    Type
REMARK                         _______ _______ _______ _____ _____    ______ ____
ROOT
ATOM      5  O   UNL     1       0.605  -1.280   1.773  0.00  0.00    -0.252 OA
ATOM      7  N   UNL     1      -1.007  -1.796   0.222  0.00  0.00    -0.285 N 
ATOM      9  N   UNL     1       1.151  -1.243  -0.495  0.00  0.00    -0.269 N 
ATOM     10  C   UNL     1      -3.364  -2.042   0.425  0.00  0.00    +0.094 C 
ATOM     11  C   UNL     1      -2.908  -2.603  -0.930  0.00  0.00    +0.033 C 
ATOM     12  C   UNL     1      -2.051  -2.019   1.216  0.00  0.00    +0.122 C 
ATOM     13  C   UNL     1      -1.520  -2.005  -1.130  0.00  0.00    +0.110 C 
ATOM     15  C   UNL     1       0.293  -1.426   0.590  0.00  0.00    +0.306 C 
ATOM     29  H   UNL     1       0.769  -1.367  -1.427  0.00  0.00    +0.156 HD
ENDROOT
BRANCH  10  14
ATOM      4  O   UNL     1      -5.434  -0.789   0.078  0.00  0.00    -0.439 OA
ATOM      8  N   UNL     1      -3.579   0.498   0.283  0.00  0.00    -0.213 NA
ATOM     14  C   UNL     1      -4.086  -0.715   0.265  0.00  0.00    +0.201 A 
ATOM     16  C   UNL     1      -5.814   0.517  -0.033  0.00  0.00    +0.155 A 
ATOM     17  C   UNL     1      -4.677   1.302   0.093  0.00  0.00    +0.110 A 
ATOM     19  C   UNL     1      -7.098   1.010  -0.235  0.00  0.00    +0.048 A 
ATOM     20  C   UNL     1      -4.804   2.696   0.014  0.00  0.00    +0.031 A 
ATOM     21  C   UNL     1      -7.206   2.403  -0.311  0.00  0.00    +0.004 A 
ATOM     22  C   UNL     1      -6.084   3.231  -0.189  0.00  0.00    +0.002 A 
ENDBRANCH  10  14
BRANCH   9  18
ATOM     18  C   UNL     1       2.517  -0.870  -0.469  0.00  0.00    +0.035 A 
ATOM     23  C   UNL     1       3.218  -0.709  -1.665  0.00  0.00    +0.027 A 
ATOM     24  C   UNL     1       3.162  -0.664   0.750  0.00  0.00    +0.027 A 
ATOM     25  C   UNL     1       4.564  -0.342  -1.640  0.00  0.00    +0.048 A 
ATOM     26  C   UNL     1       4.507  -0.298   0.775  0.00  0.00    +0.048 A 
ATOM     27  C   UNL     1       5.208  -0.137  -0.420  0.00  0.00    +0.130 A 
BRANCH  27   6
ATOM      6  O   UNL     1       6.521   0.222  -0.396  0.00  0.00    -0.406 OA
BRANCH   6  28
ATOM      1  F   UNL     1       7.957   1.963  -0.411  0.00  0.00    -0.133 F 
ATOM      2  F   UNL     1       5.870   2.357   0.104  0.00  0.00    -0.133 F 
ATOM      3  F   UNL     1       7.187   1.283   1.518  0.00  0.00    -0.133 F 
ATOM     28  C   UNL     1       6.871   1.458   0.217  0.00  0.00    +0.575 C 
ENDBRANCH   6  28
ENDBRANCH  27   6
ENDBRANCH   9  18
TORSDOF 4
