REMARK  Name = 71693765
REMARK  5 active torsions:
REMARK  status: ('A' for Active; 'I' for Inactive)
REMARK    1  A    between atoms: O_1  and  C_8
REMARK    2  A    between atoms: O_2  and  C_10
REMARK    3  A    between atoms: N_4  and  C_6
REMARK    4  A    between atoms: C_7  and  C_15
REMARK    5  A    between atoms: C_11  and  C_14
REMARK                            x       y       z     vdW  Elec       q    Type
REMARK                         _______ _______ _______ _____ _____    ______ ____
ROOT
ATOM      6  C   UNL     1       0.000  -1.237   0.079  0.00  0.00    +0.111 C 
ATOM      7  C   UNL     1       0.800  -0.417  -0.958  0.00  0.00    +0.046 C 
ATOM      8  C   UNL     1       0.415  -2.679  -0.212  0.00  0.00    +0.164 C 
ATOM      9  C   UNL     1       2.013  -1.299  -1.351  0.00  0.00    +0.044 C 
ATOM     10  C   UNL     1       1.908  -2.559  -0.493  0.00  0.00    +0.145 C 
ENDROOT
BRANCH   7  15
ATOM      5  N   UNL     1       2.308   2.339   1.170  0.00  0.00    -0.263 NA
ATOM     15  C   UNL     1       1.169   0.966  -0.462  0.00  0.00    -0.024 A 
ATOM     16  C   UNL     1       0.740   2.106  -1.133  0.00  0.00    +0.007 A 
ATOM     17  C   UNL     1       1.944   1.135   0.674  0.00  0.00    +0.114 A 
ATOM     18  C   UNL     1       1.094   3.362  -0.654  0.00  0.00    +0.020 A 
ATOM     19  C   UNL     1       1.872   3.424   0.491  0.00  0.00    +0.111 A 
ENDBRANCH   7  15
BRANCH   6   4
ATOM      3  O   UNL     1      -1.681   0.679   1.479  0.00  0.00    -0.276 OA
ATOM      4  N   UNL     1      -1.421  -1.047  -0.063  0.00  0.00    -0.309 N 
ATOM     14  C   UNL     1      -2.137  -0.103   0.653  0.00  0.00    +0.216 C 
ATOM     20  H   UNL     1      -1.912  -1.617  -0.747  0.00  0.00    +0.149 HD
BRANCH  14  11
ATOM     11  C   UNL     1      -3.597  -0.080   0.346  0.00  0.00    +0.075 C 
ATOM     12  C   UNL     1      -4.023   0.096  -1.074  0.00  0.00    +0.013 C 
ATOM     13  C   UNL     1      -4.214   1.208  -0.088  0.00  0.00    +0.013 C 
ENDBRANCH  14  11
ENDBRANCH   6   4
BRANCH   8   1
ATOM      1  O   UNL     1       0.169  -3.539   0.884  0.00  0.00    -0.387 OA
ATOM     21  H   UNL     1       0.542  -4.409   0.662  0.00  0.00    +0.210 HD
ENDBRANCH   8   1
BRANCH  10   2
ATOM      2  O   UNL     1       2.640  -2.353   0.712  0.00  0.00    -0.389 OA
ATOM     22  H   UNL     1       3.575  -2.246   0.470  0.00  0.00    +0.210 HD
ENDBRANCH  10   2
TORSDOF 5
