REMARK  Name = 45783657
REMARK  6 active torsions:
REMARK  status: ('A' for Active; 'I' for Inactive)
REMARK    1  A    between atoms: N_2  and  C_13
REMARK    2  A    between atoms: N_6  and  C_26
REMARK    3  A    between atoms: C_9  and  C_14
REMARK    4  A    between atoms: C_13  and  C_15
REMARK    5  A    between atoms: C_18  and  C_21
REMARK    6  A    between atoms: C_22  and  C_27
REMARK                            x       y       z     vdW  Elec       q    Type
REMARK                         _______ _______ _______ _____ _____    ______ ____
ROOT
ATOM      1  O   UNL     1      -2.186  -1.540   2.014  0.00  0.00    -0.336 OA
ATOM      3  N   UNL     1      -1.391  -1.119  -0.038  0.00  0.00    -0.190 NA
ATOM      4  N   UNL     1      -0.793  -1.464   2.143  0.00  0.00    -0.056 NA
ATOM     14  C   UNL     1      -2.453  -1.326   0.699  0.00  0.00    +0.245 A 
ATOM     18  C   UNL     1      -0.397  -1.214   0.892  0.00  0.00    +0.204 A 
ENDROOT
BRANCH  18  21
ATOM      5  N   UNL     1       3.301  -1.009   1.225  0.00  0.00    -0.237 NA
ATOM     21  C   UNL     1       0.984  -1.054   0.537  0.00  0.00    +0.041 A 
ATOM     23  C   UNL     1       1.361  -0.795  -0.776  0.00  0.00    +0.017 A 
ATOM     24  C   UNL     1       1.983  -1.150   1.492  0.00  0.00    +0.124 A 
ATOM     25  C   UNL     1       2.707  -0.643  -1.090  0.00  0.00    +0.047 A 
ATOM     26  C   UNL     1       3.630  -0.758  -0.062  0.00  0.00    +0.139 A 
BRANCH  26   6
ATOM      6  N   UNL     1       4.973  -0.608  -0.369  0.00  0.00    -0.290 N 
ATOM      7  N   UNL     1       7.173  -0.499  -0.086  0.00  0.00    -0.244 NA
ATOM     28  C   UNL     1       5.497  -0.352  -1.605  0.00  0.00    +0.114 A 
ATOM     29  C   UNL     1       6.017  -0.688   0.510  0.00  0.00    +0.205 A 
ATOM     30  C   UNL     1       6.856  -0.290  -1.405  0.00  0.00    +0.130 A 
ENDBRANCH  26   6
ENDBRANCH  18  21
BRANCH  14   9
ATOM      2  N   UNL     1      -4.189  -0.528  -0.896  0.00  0.00    -0.287 NA
ATOM      9  C   UNL     1      -3.912  -1.357   0.294  0.00  0.00    +0.146 C 
ATOM     10  C   UNL     1      -4.392  -2.768  -0.093  0.00  0.00    +0.030 C 
ATOM     11  C   UNL     1      -4.977  -2.620  -1.490  0.00  0.00    +0.017 C 
ATOM     12  C   UNL     1      -5.325  -1.148  -1.578  0.00  0.00    +0.085 C 
BRANCH   2  13
ATOM     13  C   UNL     1      -4.439   0.872  -0.576  0.00  0.00    +0.120 C 
BRANCH  13  15
ATOM     15  C   UNL     1      -3.161   1.629  -0.332  0.00  0.00    -0.033 A 
ATOM     16  C   UNL     1      -2.949   2.264   0.892  0.00  0.00    +0.006 A 
ATOM     17  C   UNL     1      -2.188   1.694  -1.329  0.00  0.00    +0.006 A 
ATOM     19  C   UNL     1      -1.764   2.965   1.118  0.00  0.00    +0.019 A 
ATOM     20  C   UNL     1      -1.003   2.396  -1.103  0.00  0.00    +0.019 A 
ATOM     22  C   UNL     1      -0.792   3.031   0.120  0.00  0.00    +0.052 A 
BRANCH  22  27
ATOM      8  N   UNL     1       1.407   4.332   0.540  0.00  0.00    -0.191 NA
ATOM     27  C   UNL     1       0.422   3.749   0.352  0.00  0.00    +0.099 C 
ENDBRANCH  22  27
ENDBRANCH  13  15
ENDBRANCH   2  13
ENDBRANCH  14   9
TORSDOF 6
