REMARK  Name = 45361094
REMARK  8 active torsions:
REMARK  status: ('A' for Active; 'I' for Inactive)
REMARK    1  A    between atoms: N_3  and  C_15
REMARK    2  A    between atoms: N_6  and  C_18
REMARK    3  A    between atoms: N_6  and  C_19
REMARK    4  A    between atoms: C_10  and  C_13
REMARK    5  A    between atoms: C_13  and  C_16
REMARK    6  A    between atoms: C_16  and  C_17
REMARK    7  A    between atoms: C_18  and  C_20
REMARK    8  A    between atoms: C_19  and  C_21
REMARK                            x       y       z     vdW  Elec       q    Type
REMARK                         _______ _______ _______ _____ _____    ______ ____
ROOT
ATOM      1  O   UNL     1      -3.526  -1.867   1.702  0.00  0.00    -0.274 OA
ATOM      3  N   UNL     1      -1.714   1.096  -0.072  0.00  0.00    -0.296 NA
ATOM      4  N   UNL     1      -5.030  -0.436  -0.004  0.00  0.00    -0.304 NA
ATOM      5  N   UNL     1      -1.622  -1.752   0.437  0.00  0.00    -0.312 N 
ATOM      7  C   UNL     1      -3.028   0.766  -0.666  0.00  0.00    +0.084 C 
ATOM      8  C   UNL     1      -3.627  -0.640  -0.393  0.00  0.00    +0.158 C 
ATOM      9  C   UNL     1      -4.169   1.693  -0.209  0.00  0.00    +0.036 C 
ATOM     10  C   UNL     1      -0.585   0.261  -0.567  0.00  0.00    +0.074 C 
ATOM     11  C   UNL     1      -5.415   0.881  -0.485  0.00  0.00    +0.083 C 
ATOM     12  C   UNL     1      -0.900  -1.241  -0.711  0.00  0.00    +0.123 C 
ATOM     14  C   UNL     1      -2.948  -1.461   0.696  0.00  0.00    +0.232 C 
ATOM     15  C   UNL     1      -1.405   2.525  -0.248  0.00  0.00    +0.105 C 
ATOM     22  H   UNL     1      -5.098  -0.431   1.015  0.00  0.00    +0.123 HD
ATOM     23  H   UNL     1      -1.115  -2.316   1.113  0.00  0.00    +0.149 HD
ENDROOT
BRANCH  10  13
ATOM     13  C   UNL     1       0.633   0.394   0.371  0.00  0.00    +0.029 C 
BRANCH  13  16
ATOM     16  C   UNL     1       1.921   0.078  -0.372  0.00  0.00    +0.097 C 
BRANCH  16  17
ATOM      2  O   UNL     1       3.010   0.524   1.716  0.00  0.00    -0.276 OA
ATOM      6  N   UNL     1       4.378  -0.071  -0.059  0.00  0.00    -0.302 N 
ATOM     17  C   UNL     1       3.140   0.201   0.533  0.00  0.00    +0.216 C 
BRANCH   6  18
ATOM     18  C   UNL     1       4.582  -0.457  -1.454  0.00  0.00    +0.104 C 
ATOM     20  C   UNL     1       4.532  -1.961  -1.626  0.00  0.00    +0.024 C 
ENDBRANCH   6  18
BRANCH   6  19
ATOM     19  C   UNL     1       5.594   0.035   0.738  0.00  0.00    +0.104 C 
ATOM     21  C   UNL     1       6.179   1.431   0.674  0.00  0.00    +0.024 C 
ENDBRANCH   6  19
ENDBRANCH  16  17
ENDBRANCH  13  16
ENDBRANCH  10  13
TORSDOF 5
