REMARK  Name = 45361190
REMARK  8 active torsions:
REMARK  status: ('A' for Active; 'I' for Inactive)
REMARK    1  A    between atoms: O_3  and  C_24
REMARK    2  A    between atoms: O_3  and  C_25
REMARK    3  A    between atoms: N_4  and  C_16
REMARK    4  A    between atoms: N_5  and  C_19
REMARK    5  A    between atoms: C_11  and  C_14
REMARK    6  A    between atoms: C_14  and  C_17
REMARK    7  A    between atoms: C_17  and  C_23
REMARK    8  A    between atoms: C_18  and  C_24
REMARK                            x       y       z     vdW  Elec       q    Type
REMARK                         _______ _______ _______ _____ _____    ______ ____
ROOT
ATOM      1  O   UNL     1      -2.582   2.284   0.510  0.00  0.00    -0.274 OA
ATOM      4  N   UNL     1      -1.805  -1.399  -0.397  0.00  0.00    -0.296 NA
ATOM      5  N   UNL     1      -4.616   0.931  -0.641  0.00  0.00    -0.293 NA
ATOM      6  N   UNL     1      -1.846   0.516   1.762  0.00  0.00    -0.312 N 
ATOM      8  C   UNL     1      -3.243  -1.065  -0.490  0.00  0.00    +0.084 C 
ATOM      9  C   UNL     1      -3.770   0.171   0.298  0.00  0.00    +0.160 C 
ATOM     10  C   UNL     1      -3.723  -0.761  -1.921  0.00  0.00    +0.036 C 
ATOM     11  C   UNL     1      -1.347  -1.778   0.970  0.00  0.00    +0.074 C 
ATOM     12  C   UNL     1      -5.006   0.014  -1.706  0.00  0.00    +0.086 C 
ATOM     13  C   UNL     1      -1.894  -0.891   2.106  0.00  0.00    +0.123 C 
ATOM     15  C   UNL     1      -2.688   1.103   0.836  0.00  0.00    +0.232 C 
ATOM     16  C   UNL     1      -1.447  -2.450  -1.364  0.00  0.00    +0.105 C 
ATOM     19  C   UNL     1      -5.769   1.554  -0.005  0.00  0.00    +0.105 C 
ATOM     26  H   UNL     1      -1.154   1.103   2.216  0.00  0.00    +0.149 HD
ENDROOT
BRANCH  11  14
ATOM     14  C   UNL     1       0.193  -1.740   1.052  0.00  0.00    +0.029 C 
BRANCH  14  17
ATOM     17  C   UNL     1       0.760  -0.450   0.493  0.00  0.00    +0.097 C 
BRANCH  17  23
ATOM      2  O   UNL     1       2.869  -1.373   1.101  0.00  0.00    -0.276 OA
ATOM      7  N   UNL     1       2.877   0.723   0.121  0.00  0.00    -0.296 N 
ATOM     18  C   UNL     1       4.318   0.957   0.240  0.00  0.00    +0.102 C 
ATOM     20  C   UNL     1       4.464   2.461  -0.008  0.00  0.00    +0.026 C 
ATOM     21  C   UNL     1       2.201   1.874  -0.472  0.00  0.00    +0.108 C 
ATOM     22  C   UNL     1       3.324   2.772  -0.971  0.00  0.00    +0.021 C 
ATOM     23  C   UNL     1       2.264  -0.420   0.607  0.00  0.00    +0.216 C 
BRANCH  18  24
ATOM     24  C   UNL     1       5.104   0.127  -0.773  0.00  0.00    +0.181 C 
BRANCH  24   3
ATOM      3  O   UNL     1       5.316  -1.162  -0.228  0.00  0.00    -0.381 OA
ATOM     25  C   UNL     1       6.047  -1.998  -1.119  0.00  0.00    +0.194 C 
ENDBRANCH  24   3
ENDBRANCH  18  24
ENDBRANCH  17  23
ENDBRANCH  14  17
ENDBRANCH  11  14
TORSDOF 5
