REMARK  Name = 26743884
REMARK  8 active torsions:
REMARK  status: ('A' for Active; 'I' for Inactive)
REMARK    1  A    between atoms: O_4  and  C_12
REMARK    2  A    between atoms: O_6  and  C_20
REMARK    3  A    between atoms: O_6  and  C_30
REMARK    4  A    between atoms: N_7  and  C_14
REMARK    5  A    between atoms: C_10  and  C_15
REMARK    6  A    between atoms: C_14  and  C_16
REMARK    7  A    between atoms: C_19  and  C_22
REMARK    8  A    between atoms: C_26  and  C_29
REMARK                            x       y       z     vdW  Elec       q    Type
REMARK                         _______ _______ _______ _____ _____    ______ ____
ROOT
ATOM      7  N   UNL     1      -3.002   0.260   0.433  0.00  0.00    -0.285 NA
ATOM     10  C   UNL     1      -2.664   1.414  -0.424  0.00  0.00    +0.149 C 
ATOM     11  C   UNL     1      -3.055   2.650   0.407  0.00  0.00    +0.061 C 
ATOM     12  C   UNL     1      -3.646   2.089   1.695  0.00  0.00    +0.130 C 
ATOM     13  C   UNL     1      -4.096   0.695   1.300  0.00  0.00    +0.116 C 
ENDROOT
BRANCH  10  15
ATOM      5  O   UNL     1      -0.958   1.432  -2.174  0.00  0.00    -0.336 OA
ATOM      8  N   UNL     1      -0.132   1.428  -0.092  0.00  0.00    -0.190 NA
ATOM      9  N   UNL     1       0.436   1.441  -2.309  0.00  0.00    -0.056 NA
ATOM     15  C   UNL     1      -1.207   1.425  -0.839  0.00  0.00    +0.245 A 
ATOM     19  C   UNL     1       0.852   1.437  -1.039  0.00  0.00    +0.202 A 
BRANCH  19  22
ATOM     22  C   UNL     1       2.241   1.444  -0.681  0.00  0.00    +0.023 A 
ATOM     24  C   UNL     1       2.616   1.440   0.662  0.00  0.00    +0.015 A 
ATOM     25  C   UNL     1       3.217   1.454  -1.678  0.00  0.00    +0.012 A 
ATOM     26  C   UNL     1       3.967   1.446   1.009  0.00  0.00    -0.050 A 
ATOM     27  C   UNL     1       4.568   1.460  -1.331  0.00  0.00    +0.001 A 
ATOM     28  C   UNL     1       4.943   1.456   0.012  0.00  0.00    +0.003 A 
ATOM     29  C   UNL     1       4.369   1.442   2.445  0.00  0.00    +0.044 C 
ENDBRANCH  19  22
ENDBRANCH  10  15
BRANCH  12   4
ATOM      4  O   UNL     1      -4.728   2.884   2.139  0.00  0.00    -0.390 OA
ATOM     31  H   UNL     1      -4.386   3.779   2.301  0.00  0.00    +0.210 HD
ENDBRANCH  12   4
BRANCH   7  14
ATOM     14  C   UNL     1      -3.345  -0.936  -0.324  0.00  0.00    +0.120 C 
BRANCH  14  16
ATOM     16  C   UNL     1      -2.120  -1.653  -0.826  0.00  0.00    -0.030 A 
ATOM     17  C   UNL     1      -1.158  -2.106   0.078  0.00  0.00    +0.051 A 
ATOM     18  C   UNL     1      -1.946  -1.864  -2.193  0.00  0.00    +0.005 A 
ATOM     20  C   UNL     1      -0.022  -2.769  -0.387  0.00  0.00    +0.130 A 
ATOM     21  C   UNL     1      -0.810  -2.527  -2.658  0.00  0.00    +0.004 A 
ATOM     23  C   UNL     1       0.151  -2.980  -1.755  0.00  0.00    +0.046 A 
BRANCH  20   6
ATOM      6  O   UNL     1       0.916  -3.210   0.495  0.00  0.00    -0.406 OA
BRANCH   6  30
ATOM      1  F   UNL     1       0.804  -1.179   1.541  0.00  0.00    -0.133 F 
ATOM      2  F   UNL     1       2.387  -2.583   2.088  0.00  0.00    -0.133 F 
ATOM      3  F   UNL     1       0.331  -3.003   2.696  0.00  0.00    -0.133 F 
ATOM     30  C   UNL     1       1.093  -2.487   1.708  0.00  0.00    +0.575 C 
ENDBRANCH   6  30
ENDBRANCH  20   6
ENDBRANCH  14  16
ENDBRANCH   7  14
TORSDOF 7
