REMARK  Name = 75536885
REMARK  5 active torsions:
REMARK  status: ('A' for Active; 'I' for Inactive)
REMARK    1  A    between atoms: O_2  and  C_8
REMARK    2  A    between atoms: O_2  and  C_16
REMARK    3  A    between atoms: N_5  and  C_17
REMARK    4  A    between atoms: C_12  and  C_13
REMARK    5  A    between atoms: C_15  and  C_18
REMARK                            x       y       z     vdW  Elec       q    Type
REMARK                         _______ _______ _______ _____ _____    ______ ____
ROOT
ATOM      1  O   UNL     1      -3.627  -0.982  -0.612  0.00  0.00    -0.376 OA
ATOM      3  O   UNL     1       0.687  -2.465   0.969  0.00  0.00    -0.268 OA
ATOM      4  N   UNL     1      -0.810  -0.677   0.727  0.00  0.00    -0.292 N 
ATOM      7  C   UNL     1      -1.037   0.724   0.356  0.00  0.00    +0.142 C 
ATOM      8  C   UNL     1      -2.452   1.094  -0.099  0.00  0.00    +0.161 C 
ATOM      9  C   UNL     1      -1.964  -1.491   1.111  0.00  0.00    +0.136 C 
ATOM     10  C   UNL     1      -2.998   0.163  -1.179  0.00  0.00    +0.193 C 
ATOM     11  C   UNL     1      -2.730  -1.970  -0.116  0.00  0.00    +0.179 C 
ATOM     12  C   UNL     1       0.455  -1.287   0.697  0.00  0.00    +0.265 C 
ENDROOT
BRANCH  12  13
ATOM      5  N   UNL     1       2.435  -0.708  -0.753  0.00  0.00    -0.262 N 
ATOM      6  N   UNL     1       3.425   0.190  -0.889  0.00  0.00    -0.176 NA
ATOM     13  C   UNL     1       1.616  -0.469   0.311  0.00  0.00    +0.123 A 
ATOM     14  C   UNL     1       2.105   0.665   0.914  0.00  0.00    +0.057 A 
ATOM     15  C   UNL     1       3.218   1.026   0.132  0.00  0.00    +0.061 A 
ATOM     17  C   UNL     1       2.331  -1.794  -1.700  0.00  0.00    +0.173 C 
ATOM     18  C   UNL     1       4.119   2.174   0.330  0.00  0.00    +0.067 C 
ENDBRANCH  12  13
BRANCH   8   2
ATOM      2  O   UNL     1      -2.382   2.422  -0.621  0.00  0.00    -0.376 OA
ATOM     16  C   UNL     1      -2.389   3.385   0.421  0.00  0.00    +0.194 C 
ENDBRANCH   8   2
TORSDOF 2
