REMARK  Name = 45783945
REMARK  11 active torsions:
REMARK  status: ('A' for Active; 'I' for Inactive)
REMARK    1  A    between atoms: N_4  and  C_15
REMARK    2  A    between atoms: N_6  and  C_24
REMARK    3  A    between atoms: C_8  and  C_12
REMARK    4  A    between atoms: C_9  and  C_15
REMARK    5  A    between atoms: C_11  and  C_16
REMARK    6  A    between atoms: C_12  and  C_17
REMARK    7  A    between atoms: C_12  and  C_18
REMARK    8  A    between atoms: C_13  and  C_19
REMARK    9  A    between atoms: C_16  and  C_20
REMARK   10  A    between atoms: C_22  and  C_23
REMARK   11  A    between atoms: C_24  and  C_25
REMARK                            x       y       z     vdW  Elec       q    Type
REMARK                         _______ _______ _______ _____ _____    ______ ____
ROOT
ATOM      8  C   UNL     1       1.841  -0.604   1.260  0.00  0.00    +0.000 C 
ATOM      9  C   UNL     1       3.364  -0.868   1.150  0.00  0.00    +0.032 C 
ATOM     10  C   UNL     1       1.053  -1.893   0.982  0.00  0.00    +0.012 C 
ATOM     11  C   UNL     1       1.349  -2.467  -0.417  0.00  0.00    +0.024 C 
ATOM     13  C   UNL     1       2.836  -2.508  -0.705  0.00  0.00    -0.073 C 
ATOM     14  C   UNL     1       3.723  -1.797   0.014  0.00  0.00    -0.022 C 
ATOM     19  C   UNL     1       3.287  -3.421  -1.811  0.00  0.00    +0.039 C 
ENDROOT
BRANCH   8  12
ATOM     12  C   UNL     1       1.458  -0.049   2.635  0.00  0.00    -0.013 C 
ATOM     17  C   UNL     1       0.157   0.742   2.546  0.00  0.00    +0.007 C 
ATOM     18  C   UNL     1       1.334  -1.180   3.651  0.00  0.00    +0.007 C 
ENDBRANCH   8  12
BRANCH   9  15
ATOM     15  C   UNL     1       4.143   0.444   1.002  0.00  0.00    +0.113 C 
BRANCH  15   4
ATOM      3  O   UNL     1       2.993   3.066   0.641  0.00  0.00    -0.253 OA
ATOM      4  N   UNL     1       3.830   1.083  -0.237  0.00  0.00    -0.299 N 
ATOM      6  N   UNL     1       3.067   2.743  -1.656  0.00  0.00    -0.300 N 
ATOM     21  C   UNL     1       3.270   2.364  -0.331  0.00  0.00    +0.300 C 
ATOM     31  H   UNL     1       4.084   0.616  -1.102  0.00  0.00    +0.150 HD
ATOM     32  H   UNL     1       3.314   2.091  -2.393  0.00  0.00    +0.150 HD
BRANCH   6  24
ATOM     24  C   UNL     1       2.502   4.019  -2.027  0.00  0.00    +0.102 C 
ATOM     25  C   UNL     1       0.993   4.016  -1.897  0.00  0.00    +0.024 C 
ENDBRANCH   6  24
ENDBRANCH  15   4
ENDBRANCH   9  15
BRANCH  11  16
ATOM     16  C   UNL     1       0.601  -1.687  -1.504  0.00  0.00    +0.105 C 
BRANCH  16  20
ATOM      2  O   UNL     1      -1.404  -0.516  -0.750  0.00  0.00    -0.420 OA
ATOM      5  N   UNL     1      -1.770  -2.616  -1.429  0.00  0.00    -0.112 NA
ATOM      7  N   UNL     1      -2.980  -2.078  -1.034  0.00  0.00    -0.107 NA
ATOM     20  C   UNL     1      -0.879  -1.670  -1.247  0.00  0.00    +0.218 A 
ATOM     22  C   UNL     1      -2.719  -0.852  -0.645  0.00  0.00    +0.251 A 
BRANCH  22  23
ATOM      1  F   UNL     1      -5.472  -1.270  -0.326  0.00  0.00    -0.205 F 
ATOM     23  C   UNL     1      -3.588   0.169  -0.137  0.00  0.00    +0.074 A 
ATOM     26  C   UNL     1      -4.953  -0.078   0.005  0.00  0.00    +0.136 A 
ATOM     27  C   UNL     1      -3.064   1.414   0.213  0.00  0.00    +0.016 A 
ATOM     28  C   UNL     1      -5.795   0.918   0.499  0.00  0.00    +0.039 A 
ATOM     29  C   UNL     1      -3.906   2.411   0.706  0.00  0.00    +0.001 A 
ATOM     30  C   UNL     1      -5.271   2.163   0.849  0.00  0.00    +0.003 A 
ENDBRANCH  22  23
ENDBRANCH  16  20
ENDBRANCH  11  16
TORSDOF 7
