REMARK  Name = 45784185
REMARK  3 active torsions:
REMARK  status: ('A' for Active; 'I' for Inactive)
REMARK    1  A    between atoms: N_2  and  C_4
REMARK    2  A    between atoms: C_9  and  C_12
REMARK    3  A    between atoms: C_17  and  C_19
REMARK                            x       y       z     vdW  Elec       q    Type
REMARK                         _______ _______ _______ _____ _____    ______ ____
ROOT
ATOM      1  O   UNL     1      -1.376  -1.358   0.748  0.00  0.00    -0.439 OA
ATOM      3  N   UNL     1      -1.014   0.393  -0.645  0.00  0.00    -0.213 NA
ATOM     12  C   UNL     1      -0.499  -0.629   0.002  0.00  0.00    +0.201 A 
ATOM     13  C   UNL     1      -2.345   0.345  -0.306  0.00  0.00    +0.110 A 
ATOM     14  C   UNL     1      -2.570  -0.726   0.546  0.00  0.00    +0.155 A 
ATOM     15  C   UNL     1      -3.425   1.160  -0.671  0.00  0.00    +0.035 A 
ATOM     16  C   UNL     1      -3.807  -1.065   1.082  0.00  0.00    +0.049 A 
ATOM     17  C   UNL     1      -4.690   0.850  -0.150  0.00  0.00    -0.048 A 
ATOM     18  C   UNL     1      -4.874  -0.241   0.708  0.00  0.00    +0.007 A 
ATOM     19  C   UNL     1      -5.861   1.700  -0.520  0.00  0.00    +0.044 C 
ENDROOT
BRANCH  12   9
ATOM      2  N   UNL     1       3.154  -0.350  -0.134  0.00  0.00    -0.299 NA
ATOM      8  C   UNL     1       1.905  -0.038   0.568  0.00  0.00    +0.097 C 
ATOM      9  C   UNL     1       0.937  -1.099   0.027  0.00  0.00    +0.090 C 
ATOM     10  C   UNL     1       2.751  -0.616  -1.516  0.00  0.00    +0.085 C 
ATOM     11  C   UNL     1       1.513  -1.488  -1.346  0.00  0.00    +0.029 C 
BRANCH   2   4
ATOM      4  C   UNL     1       4.083   0.784  -0.072  0.00  0.00    +0.057 C 
ATOM      5  C   UNL     1       5.502   0.310  -0.451  0.00  0.00    +0.019 C 
ATOM      6  C   UNL     1       4.605   0.947   1.370  0.00  0.00    +0.019 C 
ATOM      7  C   UNL     1       6.012   1.120   0.760  0.00  0.00    +0.003 C 
ENDBRANCH   2   4
ENDBRANCH  12   9
TORSDOF 2
