REMARK  Name = 44716179
REMARK  8 active torsions:
REMARK  status: ('A' for Active; 'I' for Inactive)
REMARK    1  A    between atoms: O_2  and  C_24
REMARK    2  A    between atoms: N_4  and  C_16
REMARK    3  A    between atoms: N_5  and  C_19
REMARK    4  A    between atoms: C_10  and  C_16
REMARK    5  A    between atoms: C_11  and  C_17
REMARK    6  A    between atoms: C_19  and  C_21
REMARK    7  A    between atoms: C_20  and  C_22
REMARK    8  A    between atoms: C_22  and  C_24
REMARK                            x       y       z     vdW  Elec       q    Type
REMARK                         _______ _______ _______ _____ _____    ______ ____
ROOT
ATOM      3  N   UNL     1      -0.161   2.915  -1.313  0.00  0.00    -0.297 NA
ATOM      9  C   UNL     1      -0.068   2.825   1.286  0.00  0.00    +0.005 C 
ATOM     10  C   UNL     1      -1.222   2.008  -0.799  0.00  0.00    +0.078 C 
ATOM     11  C   UNL     1       1.313   2.532   0.667  0.00  0.00    +0.092 C 
ATOM     12  C   UNL     1      -1.092   1.817   0.729  0.00  0.00    +0.025 C 
ATOM     13  C   UNL     1      -0.486   4.223   0.795  0.00  0.00    +0.020 C 
ATOM     14  C   UNL     1       1.175   2.452  -0.863  0.00  0.00    +0.097 C 
ATOM     15  C   UNL     1      -0.399   4.265  -0.743  0.00  0.00    +0.085 C 
ENDROOT
BRANCH  11  17
ATOM      1  O   UNL     1       1.330   0.592   2.061  0.00  0.00    -0.275 OA
ATOM      5  N   UNL     1       3.180   1.032   0.718  0.00  0.00    -0.311 N 
ATOM     17  C   UNL     1       1.918   1.279   1.229  0.00  0.00    +0.218 C 
ATOM     28  H   UNL     1       3.576   1.672   0.035  0.00  0.00    +0.149 HD
BRANCH   5  19
ATOM     19  C   UNL     1       3.986  -0.100   1.114  0.00  0.00    +0.141 C 
BRANCH  19  21
ATOM      8  N   UNL     1       3.037  -3.605   0.059  0.00  0.00    -0.263 NA
ATOM     21  C   UNL     1       3.737  -1.299   0.245  0.00  0.00    -0.012 A 
ATOM     23  C   UNL     1       3.959  -1.248  -1.127  0.00  0.00    +0.008 A 
ATOM     25  C   UNL     1       3.279  -2.490   0.784  0.00  0.00    +0.115 A 
ATOM     26  C   UNL     1       3.721  -2.375  -1.906  0.00  0.00    +0.020 A 
ATOM     27  C   UNL     1       3.264  -3.518  -1.270  0.00  0.00    +0.111 A 
ENDBRANCH  19  21
ENDBRANCH   5  19
ENDBRANCH  11  17
BRANCH  10  16
ATOM     16  C   UNL     1      -1.254   0.670  -1.539  0.00  0.00    +0.164 C 
BRANCH  16   4
ATOM      4  N   UNL     1      -2.442  -0.157  -1.132  0.00  0.00    -0.250 N 
ATOM      6  N   UNL     1      -3.690   0.315  -1.283  0.00  0.00    -0.065 NA
ATOM      7  N   UNL     1      -4.521  -0.621  -0.838  0.00  0.00    -0.134 NA
ATOM     18  C   UNL     1      -2.439  -1.405  -0.589  0.00  0.00    +0.133 A 
ATOM     20  C   UNL     1      -3.771  -1.681  -0.410  0.00  0.00    +0.085 A 
BRANCH  20  22
ATOM     22  C   UNL     1      -4.400  -2.886   0.144  0.00  0.00    +0.086 C 
BRANCH  22  24
ATOM     24  C   UNL     1      -4.608  -2.833   1.670  0.00  0.00    +0.162 C 
BRANCH  24   2
ATOM      2  O   UNL     1      -3.345  -2.706   2.312  0.00  0.00    -0.395 OA
ATOM     29  H   UNL     1      -3.514  -2.678   3.269  0.00  0.00    +0.209 HD
ENDBRANCH  24   2
ENDBRANCH  22  24
ENDBRANCH  20  22
ENDBRANCH  16   4
ENDBRANCH  10  16
TORSDOF 8
