REMARK  Name = 75536766
REMARK  8 active torsions:
REMARK  status: ('A' for Active; 'I' for Inactive)
REMARK    1  A    between atoms: O_2  and  C_8
REMARK    2  A    between atoms: N_4  and  C_7
REMARK    3  A    between atoms: N_4  and  C_12
REMARK    4  A    between atoms: N_5  and  C_11
REMARK    5  A    between atoms: N_6  and  C_16
REMARK    6  A    between atoms: C_9  and  C_11
REMARK    7  A    between atoms: C_12  and  C_13
REMARK    8  A    between atoms: C_12  and  C_14
REMARK                            x       y       z     vdW  Elec       q    Type
REMARK                         _______ _______ _______ _____ _____    ______ ____
ROOT
ATOM     11  C   UNL     1      -0.454   0.127   1.658  0.00  0.00    +0.140 C 
ENDROOT
BRANCH  11   5
ATOM      3  O   UNL     1       1.835   1.391   0.488  0.00  0.00    -0.253 OA
ATOM      5  N   UNL     1       0.795  -0.497   1.327  0.00  0.00    -0.297 N 
ATOM      6  N   UNL     1       2.955  -0.671   0.543  0.00  0.00    -0.269 N 
ATOM     15  C   UNL     1       1.876   0.192   0.753  0.00  0.00    +0.304 C 
ATOM     24  H   UNL     1       0.896  -1.491   1.506  0.00  0.00    +0.150 HD
ATOM     25  H   UNL     1       2.824  -1.641   0.820  0.00  0.00    +0.156 HD
BRANCH   6  16
ATOM     16  C   UNL     1       4.219  -0.362  -0.012  0.00  0.00    +0.035 A 
ATOM     17  C   UNL     1       5.183  -1.361  -0.148  0.00  0.00    +0.023 A 
ATOM     18  C   UNL     1       4.500   0.940  -0.423  0.00  0.00    +0.023 A 
ATOM     19  C   UNL     1       6.430  -1.056  -0.695  0.00  0.00    +0.002 A 
ATOM     20  C   UNL     1       5.746   1.245  -0.970  0.00  0.00    +0.002 A 
ATOM     21  C   UNL     1       6.711   0.247  -1.106  0.00  0.00    +0.000 A 
ENDBRANCH   6  16
ENDBRANCH  11   5
BRANCH  11   9
ATOM      1  O   UNL     1      -1.711  -1.307   0.171  0.00  0.00    -0.371 OA
ATOM      7  C   UNL     1      -3.675  -0.018  -0.178  0.00  0.00    +0.111 C 
ATOM      8  C   UNL     1      -2.772   0.712   0.799  0.00  0.00    +0.164 C 
ATOM      9  C   UNL     1      -1.427   0.065   0.495  0.00  0.00    +0.165 C 
ATOM     10  C   UNL     1      -3.116  -1.430  -0.107  0.00  0.00    +0.181 C 
BRANCH   8   2
ATOM      2  O   UNL     1      -2.746   2.109   0.581  0.00  0.00    -0.388 OA
ATOM     23  H   UNL     1      -2.478   2.269  -0.340  0.00  0.00    +0.210 HD
ENDBRANCH   8   2
BRANCH   7   4
ATOM      4  N   UNL     1      -5.085   0.051   0.169  0.00  0.00    -0.307 NA
ATOM     22  H   UNL     1      -5.330   0.998   0.456  0.00  0.00    +0.123 HD
BRANCH   4  12
ATOM     12  C   UNL     1      -5.922  -0.361  -0.952  0.00  0.00    +0.048 C 
ATOM     13  C   UNL     1      -7.290  -0.791  -0.432  0.00  0.00    +0.023 C 
ATOM     14  C   UNL     1      -6.052   0.776  -1.961  0.00  0.00    +0.023 C 
ENDBRANCH   4  12
ENDBRANCH   7   4
ENDBRANCH  11   9
TORSDOF 6
