REMARK  Name = 7135085
REMARK  12 active torsions:
REMARK  status: ('A' for Active; 'I' for Inactive)
REMARK    1  A    between atoms: O_2  and  C_14
REMARK    2  A    between atoms: O_3  and  C_19
REMARK    3  A    between atoms: C_9  and  C_17
REMARK    4  A    between atoms: C_11  and  C_19
REMARK    5  A    between atoms: C_11  and  C_20
REMARK    6  A    between atoms: C_12  and  C_22
REMARK    7  A    between atoms: C_22  and  C_23
REMARK    8  A    between atoms: C_29  and  C_31
REMARK    9  A    between atoms: C_30  and  C_32
REMARK   10  A    between atoms: C_32  and  C_33
REMARK   11  A    between atoms: C_32  and  C_34
REMARK   12  A    between atoms: C_32  and  C_35
REMARK                            x       y       z     vdW  Elec       q    Type
REMARK                         _______ _______ _______ _____ _____    ______ ____
ROOT
ATOM      1  S   UNL     1      -0.096   3.538   0.250  0.00  0.00    -0.057 S 
ATOM      5  O   UNL     1       3.982   1.365  -0.188  0.00  0.00    -0.275 OA
ATOM      6  N   UNL     1       1.046   1.237  -0.064  0.00  0.00    -0.229 NA
ATOM      8  N   UNL     1       2.494   3.159   0.088  0.00  0.00    -0.264 N 
ATOM      9  C   UNL     1      -2.427  -0.393   0.318  0.00  0.00    -0.019 C 
ATOM     10  C   UNL     1      -3.173   0.861  -0.319  0.00  0.00    +0.011 C 
ATOM     11  C   UNL     1      -4.750   0.828  -0.326  0.00  0.00    +0.021 C 
ATOM     12  C   UNL     1      -0.905  -0.359  -0.166  0.00  0.00    +0.054 C 
ATOM     13  C   UNL     1      -3.077  -1.700  -0.206  0.00  0.00    +0.010 C 
ATOM     14  C   UNL     1      -5.231  -0.561  -0.832  0.00  0.00    +0.123 C 
ATOM     15  C   UNL     1      -2.577   2.202   0.202  0.00  0.00    +0.049 C 
ATOM     16  C   UNL     1      -4.594  -1.727  -0.084  0.00  0.00    +0.032 C 
ATOM     17  C   UNL     1      -2.476  -0.400   1.866  0.00  0.00    +0.012 C 
ATOM     18  C   UNL     1      -0.319   1.021  -0.014  0.00  0.00    +0.058 A 
ATOM     20  C   UNL     1      -5.275   1.893  -1.331  0.00  0.00    +0.016 C 
ATOM     21  C   UNL     1      -1.088   2.158   0.131  0.00  0.00    +0.015 A 
ATOM     24  C   UNL     1       1.280   2.525   0.072  0.00  0.00    +0.165 A 
ATOM     30  C   UNL     1       3.765   2.566  -0.040  0.00  0.00    +0.224 C 
ATOM     38  H   UNL     1       2.436   4.166   0.206  0.00  0.00    +0.157 HD
ENDROOT
BRANCH  30  32
ATOM     32  C   UNL     1       4.936   3.579   0.023  0.00  0.00    +0.039 C 
ATOM     33  C   UNL     1       4.907   4.313   1.377  0.00  0.00    +0.020 C 
ATOM     34  C   UNL     1       4.796   4.623  -1.097  0.00  0.00    +0.020 C 
ATOM     35  C   UNL     1       6.281   2.845  -0.102  0.00  0.00    +0.020 C 
ENDBRANCH  30  32
BRANCH  14   2
ATOM      2  O   UNL     1      -6.651  -0.670  -0.730  0.00  0.00    -0.391 OA
ATOM     36  H   UNL     1      -6.908  -1.532  -1.099  0.00  0.00    +0.210 HD
ENDBRANCH  14   2
BRANCH  11  19
ATOM     19  C   UNL     1      -5.405   1.178   1.029  0.00  0.00    +0.165 C 
BRANCH  19   3
ATOM      3  O   UNL     1      -6.804   1.117   0.861  0.00  0.00    -0.394 OA
ATOM     37  H   UNL     1      -7.208   1.347   1.714  0.00  0.00    +0.209 HD
ENDBRANCH  19   3
ENDBRANCH  11  19
BRANCH  12  22
ATOM     22  C   UNL     1      -0.007  -1.424   0.478  0.00  0.00    +0.106 C 
BRANCH  22  23
ATOM      4  O   UNL     1       1.213  -1.187  -1.540  0.00  0.00    -0.276 OA
ATOM      7  N   UNL     1       2.049  -2.709   0.004  0.00  0.00    -0.301 N 
ATOM     23  C   UNL     1       1.137  -1.756  -0.448  0.00  0.00    +0.216 C 
ATOM     25  C   UNL     1       3.208  -3.057  -0.821  0.00  0.00    +0.108 C 
ATOM     26  C   UNL     1       1.985  -3.402   1.295  0.00  0.00    +0.108 C 
ATOM     27  C   UNL     1       3.273  -4.563  -1.062  0.00  0.00    +0.022 C 
ATOM     28  C   UNL     1       2.026  -4.917   1.100  0.00  0.00    +0.022 C 
ATOM     29  C   UNL     1       3.244  -5.339   0.264  0.00  0.00    -0.011 C 
ATOM     31  C   UNL     1       3.235  -6.845   0.012  0.00  0.00    +0.007 C 
ENDBRANCH  22  23
ENDBRANCH  12  22
TORSDOF 6
