REMARK  Name = 11886125
REMARK  5 active torsions:
REMARK  status: ('A' for Active; 'I' for Inactive)
REMARK    1  A    between atoms: S_1  and  N_7
REMARK    2  A    between atoms: S_1  and  C_18
REMARK    3  A    between atoms: N_6  and  C_14
REMARK    4  A    between atoms: N_7  and  C_13
REMARK    5  A    between atoms: C_17  and  C_19
REMARK                            x       y       z     vdW  Elec       q    Type
REMARK                         _______ _______ _______ _____ _____    ______ ____
ROOT
ATOM      2  O   UNL     1       1.578  -2.340   0.912  0.00  0.00    -0.370 OA
ATOM      3  O   UNL     1      -0.428  -0.146   1.940  0.00  0.00    -0.370 OA
ATOM     11  C   UNL     1      -0.322  -0.919   0.734  0.00  0.00    +0.170 C 
ATOM     12  C   UNL     1       1.152  -1.062   0.407  0.00  0.00    +0.175 C 
ATOM     13  C   UNL     1      -0.790  -2.336   0.976  0.00  0.00    +0.133 C 
ATOM     14  C   UNL     1       1.829   0.051   1.184  0.00  0.00    +0.168 C 
ATOM     15  C   UNL     1       0.460  -3.001   1.522  0.00  0.00    +0.183 C 
ATOM     16  C   UNL     1       0.878   0.280   2.354  0.00  0.00    +0.190 C 
ENDROOT
BRANCH  14   6
ATOM      6  N   UNL     1       2.093   1.233   0.359  0.00  0.00    -0.217 N 
ATOM      8  N   UNL     1       1.168   2.189   0.227  0.00  0.00    -0.043 NA
ATOM      9  N   UNL     1       2.995   2.706  -0.941  0.00  0.00    -0.108 NA
ATOM     10  N   UNL     1       1.726   3.091  -0.571  0.00  0.00    -0.023 NA
ATOM     17  C   UNL     1       3.201   1.551  -0.351  0.00  0.00    +0.182 A 
BRANCH  17  19
ATOM     19  C   UNL     1       4.388   0.739  -0.428  0.00  0.00    +0.021 A 
ATOM     22  C   UNL     1       5.418   0.916   0.498  0.00  0.00    +0.011 A 
ATOM     23  C   UNL     1       4.512  -0.228  -1.428  0.00  0.00    +0.011 A 
ATOM     27  C   UNL     1       6.568   0.131   0.423  0.00  0.00    +0.001 A 
ATOM     28  C   UNL     1       5.662  -1.013  -1.502  0.00  0.00    +0.001 A 
ATOM     31  C   UNL     1       6.690  -0.834  -0.576  0.00  0.00    +0.000 A 
ENDBRANCH  17  19
ENDBRANCH  14   6
BRANCH  13   7
ATOM      7  N   UNL     1      -1.220  -2.961  -0.251  0.00  0.00    -0.182 NA
ATOM     34  H   UNL     1      -0.519  -3.064  -0.995  0.00  0.00    +0.148 HD
BRANCH   7   1
ATOM      1  S   UNL     1      -2.864  -2.941  -0.678  0.00  0.00    +0.059 S 
ATOM      4  O   UNL     1      -3.652  -3.486   0.411  0.00  0.00    -0.153 OA
ATOM      5  O   UNL     1      -3.005  -3.475  -2.019  0.00  0.00    -0.153 OA
BRANCH   1  18
ATOM     18  C   UNL     1      -3.194  -1.208  -0.777  0.00  0.00    +0.106 A 
ATOM     20  C   UNL     1      -3.624  -0.536   0.355  0.00  0.00    +0.037 A 
ATOM     21  C   UNL     1      -3.017  -0.555  -1.981  0.00  0.00    +0.029 A 
ATOM     24  C   UNL     1      -3.892   0.841   0.293  0.00  0.00    -0.016 A 
ATOM     25  C   UNL     1      -3.277   0.813  -2.061  0.00  0.00    +0.010 A 
ATOM     26  C   UNL     1      -3.715   1.526  -0.933  0.00  0.00    -0.018 A 
ATOM     29  C   UNL     1      -4.329   1.554   1.421  0.00  0.00    +0.008 A 
ATOM     30  C   UNL     1      -3.983   2.903  -0.995  0.00  0.00    +0.008 A 
ATOM     32  C   UNL     1      -4.590   2.922   1.341  0.00  0.00    +0.001 A 
ATOM     33  C   UNL     1      -4.417   3.595   0.136  0.00  0.00    +0.001 A 
ENDBRANCH   1  18
ENDBRANCH   7   1
ENDBRANCH  13   7
TORSDOF 5
