REMARK  Name = 56774668
REMARK  7 active torsions:
REMARK  status: ('A' for Active; 'I' for Inactive)
REMARK    1  A    between atoms: O_3  and  C_10
REMARK    2  A    between atoms: N_6  and  C_12
REMARK    3  A    between atoms: N_7  and  C_23
REMARK    4  A    between atoms: N_8  and  C_28
REMARK    5  A    between atoms: C_9  and  C_10
REMARK    6  A    between atoms: C_10  and  C_14
REMARK    7  A    between atoms: C_12  and  C_16
REMARK                            x       y       z     vdW  Elec       q    Type
REMARK                         _______ _______ _______ _____ _____    ______ ____
ROOT
ATOM     10  C   UNL     1      -1.606   0.849  -0.999  0.00  0.00    +0.167 C 
ENDROOT
BRANCH  10   9
ATOM      2  O   UNL     1      -2.142   2.312   1.487  0.00  0.00    -0.369 OA
ATOM      4  O   UNL     1      -5.457   2.544   0.074  0.00  0.00    -0.273 OA
ATOM      6  N   UNL     1      -3.904   0.820  -0.104  0.00  0.00    -0.287 N 
ATOM      9  C   UNL     1      -2.524   0.379   0.134  0.00  0.00    +0.135 C 
ATOM     11  C   UNL     1      -2.037   0.893   1.483  0.00  0.00    +0.185 C 
ATOM     13  C   UNL     1      -4.375   2.039   0.379  0.00  0.00    +0.242 C 
ATOM     15  C   UNL     1      -3.490   2.719   1.418  0.00  0.00    +0.255 C 
BRANCH   6  12
ATOM     12  C   UNL     1      -4.716   0.027  -1.017  0.00  0.00    +0.146 C 
BRANCH  12  16
ATOM      1  F   UNL     1      -7.495   0.510  -0.766  0.00  0.00    -0.205 F 
ATOM     16  C   UNL     1      -5.645  -0.897  -0.285  0.00  0.00    +0.005 A 
ATOM     21  C   UNL     1      -7.005  -0.601  -0.199  0.00  0.00    +0.128 A 
ATOM     22  C   UNL     1      -5.145  -2.055   0.310  0.00  0.00    +0.008 A 
ATOM     24  C   UNL     1      -7.865  -1.462   0.483  0.00  0.00    +0.038 A 
ATOM     25  C   UNL     1      -6.005  -2.917   0.992  0.00  0.00    +0.000 A 
ATOM     26  C   UNL     1      -7.365  -2.620   1.079  0.00  0.00    +0.003 A 
ENDBRANCH  12  16
ENDBRANCH   6  12
ENDBRANCH  10   9
BRANCH  10  14
ATOM     14  C   UNL     1      -0.187   0.378  -0.801  0.00  0.00    -0.017 A 
ATOM     17  C   UNL     1       0.089  -0.986  -0.708  0.00  0.00    +0.008 A 
ATOM     18  C   UNL     1       0.849   1.308  -0.712  0.00  0.00    +0.008 A 
ATOM     19  C   UNL     1       1.402  -1.421  -0.525  0.00  0.00    +0.024 A 
ATOM     20  C   UNL     1       2.162   0.873  -0.530  0.00  0.00    +0.024 A 
ATOM     23  C   UNL     1       2.438  -0.491  -0.436  0.00  0.00    +0.035 A 
BRANCH  23   7
ATOM      5  O   UNL     1       4.970   1.073  -0.188  0.00  0.00    -0.252 OA
ATOM      7  N   UNL     1       3.752  -0.926  -0.254  0.00  0.00    -0.269 N 
ATOM      8  N   UNL     1       6.042  -0.993   0.034  0.00  0.00    -0.269 N 
ATOM     27  C   UNL     1       4.932  -0.152  -0.140  0.00  0.00    +0.308 C 
ATOM     35  H   UNL     1       3.873  -1.935  -0.196  0.00  0.00    +0.156 HD
ATOM     36  H   UNL     1       5.859  -1.993   0.053  0.00  0.00    +0.156 HD
BRANCH   8  28
ATOM     28  C   UNL     1       7.399  -0.624   0.187  0.00  0.00    +0.035 A 
ATOM     29  C   UNL     1       8.375  -1.607   0.351  0.00  0.00    +0.023 A 
ATOM     30  C   UNL     1       7.762   0.723   0.175  0.00  0.00    +0.023 A 
ATOM     31  C   UNL     1       9.713  -1.244   0.502  0.00  0.00    +0.002 A 
ATOM     32  C   UNL     1       9.100   1.087   0.326  0.00  0.00    +0.002 A 
ATOM     33  C   UNL     1      10.076   0.103   0.489  0.00  0.00    +0.000 A 
ENDBRANCH   8  28
ENDBRANCH  23   7
ENDBRANCH  10  14
BRANCH  10   3
ATOM      3  O   UNL     1      -2.100   0.357  -2.240  0.00  0.00    -0.385 OA
ATOM     34  H   UNL     1      -1.935  -0.599  -2.295  0.00  0.00    +0.210 HD
ENDBRANCH  10   3
TORSDOF 7
