REMARK  Name = 75537111
REMARK  4 active torsions:
REMARK  status: ('A' for Active; 'I' for Inactive)
REMARK    1  A    between atoms: N_3  and  C_13
REMARK    2  A    between atoms: N_4  and  C_14
REMARK    3  A    between atoms: N_5  and  C_17
REMARK    4  A    between atoms: C_13  and  C_15
REMARK                            x       y       z     vdW  Elec       q    Type
REMARK                         _______ _______ _______ _____ _____    ______ ____
ROOT
ATOM      1  O   UNL     1       4.458   1.176  -0.014  0.00  0.00    -0.252 OA
ATOM      2  N   UNL     1       2.177   0.646  -0.193  0.00  0.00    -0.278 N 
ATOM      3  N   UNL     1      -0.584   0.713   0.342  0.00  0.00    -0.292 NA
ATOM      4  N   UNL     1       3.665  -1.036  -0.209  0.00  0.00    -0.287 N 
ATOM      7  C   UNL     1       1.383  -0.538  -0.448  0.00  0.00    +0.109 C 
ATOM      8  C   UNL     1       0.155  -0.561   0.461  0.00  0.00    +0.109 C 
ATOM      9  C   UNL     1       2.366  -1.687  -0.227  0.00  0.00    +0.132 C 
ATOM     10  C   UNL     1       1.525   1.938  -0.140  0.00  0.00    +0.125 C 
ATOM     11  C   UNL     1       0.269   1.854   0.731  0.00  0.00    +0.104 C 
ATOM     12  C   UNL     1       3.549   0.366  -0.129  0.00  0.00    +0.305 C 
ATOM     14  C   UNL     1       4.898  -1.788  -0.130  0.00  0.00    +0.133 C 
ENDROOT
BRANCH   3  13
ATOM     13  C   UNL     1      -1.794   0.678   1.162  0.00  0.00    +0.158 C 
BRANCH  13  15
ATOM      5  N   UNL     1      -3.629   0.351  -0.528  0.00  0.00    -0.336 N 
ATOM      6  N   UNL     1      -3.252  -1.347   0.853  0.00  0.00    -0.239 NA
ATOM     15  C   UNL     1      -2.887  -0.130   0.515  0.00  0.00    +0.124 A 
ATOM     16  C   UNL     1      -4.524  -0.621  -0.877  0.00  0.00    +0.106 A 
ATOM     17  C   UNL     1      -3.503   1.645  -1.158  0.00  0.00    +0.150 C 
ATOM     18  C   UNL     1      -4.272  -1.658  -0.011  0.00  0.00    +0.130 A 
ENDBRANCH  13  15
ENDBRANCH   3  13
TORSDOF 2
