REMARK  Name = 11865813
REMARK  8 active torsions:
REMARK  status: ('A' for Active; 'I' for Inactive)
REMARK    1  A    between atoms: O_3  and  C_28
REMARK    2  A    between atoms: O_3  and  C_34
REMARK    3  A    between atoms: N_8  and  C_12
REMARK    4  A    between atoms: N_9  and  C_20
REMARK    5  A    between atoms: N_10  and  C_33
REMARK    6  A    between atoms: C_11  and  C_15
REMARK    7  A    between atoms: C_16  and  C_28
REMARK    8  A    between atoms: C_21  and  C_29
REMARK                            x       y       z     vdW  Elec       q    Type
REMARK                         _______ _______ _______ _____ _____    ______ ____
ROOT
ATOM      2  O   UNL     1       2.050   1.495   1.562  0.00  0.00    -0.268 OA
ATOM      6  N   UNL     1       0.655   1.283  -0.264  0.00  0.00    -0.283 N 
ATOM     11  C   UNL     1       0.459  -0.157  -0.123  0.00  0.00    +0.183 C 
ATOM     12  C   UNL     1      -0.714  -0.488  -1.047  0.00  0.00    +0.105 C 
ATOM     13  C   UNL     1      -0.624   0.588  -2.132  0.00  0.00    +0.043 C 
ATOM     14  C   UNL     1      -0.126   1.816  -1.381  0.00  0.00    +0.111 C 
ATOM     21  C   UNL     1       1.418   2.022   0.645  0.00  0.00    +0.264 C 
ENDROOT
BRANCH  11  15
ATOM      1  O   UNL     1       2.417  -0.289  -1.472  0.00  0.00    -0.273 OA
ATOM      7  N   UNL     1       2.047  -2.014   0.026  0.00  0.00    -0.286 N 
ATOM     15  C   UNL     1       1.730  -0.817  -0.596  0.00  0.00    +0.239 C 
ATOM     16  C   UNL     1       3.148  -2.859  -0.419  0.00  0.00    +0.185 C 
ATOM     17  C   UNL     1       1.263  -2.675   1.066  0.00  0.00    +0.109 C 
ATOM     18  C   UNL     1       2.861  -4.225   0.195  0.00  0.00    +0.035 C 
ATOM     19  C   UNL     1       2.091  -3.886   1.469  0.00  0.00    +0.021 C 
BRANCH  16  28
ATOM      5  O   UNL     1       4.450  -1.246   0.805  0.00  0.00    -0.249 OA
ATOM     28  C   UNL     1       4.411  -2.260   0.123  0.00  0.00    +0.328 C 
BRANCH  28   3
ATOM      3  O   UNL     1       5.477  -3.017  -0.265  0.00  0.00    -0.467 OA
ATOM     34  C   UNL     1       6.755  -2.556   0.186  0.00  0.00    +0.280 C 
ENDBRANCH  28   3
ENDBRANCH  16  28
ENDBRANCH  11  15
BRANCH  12   8
ATOM      4  O   UNL     1      -3.137  -1.893  -1.695  0.00  0.00    -0.253 OA
ATOM      8  N   UNL     1      -1.972  -0.410  -0.343  0.00  0.00    -0.294 N 
ATOM      9  N   UNL     1      -4.176  -0.875   0.115  0.00  0.00    -0.297 N 
ATOM     27  C   UNL     1      -3.099  -1.130  -0.730  0.00  0.00    +0.300 C 
ATOM     35  H   UNL     1      -2.060   0.247   0.426  0.00  0.00    +0.151 HD
ATOM     36  H   UNL     1      -4.056  -0.173   0.838  0.00  0.00    +0.151 HD
BRANCH   9  20
ATOM     20  C   UNL     1      -5.475  -1.488  -0.051  0.00  0.00    +0.074 C 
ATOM     22  C   UNL     1      -6.357  -0.663  -0.995  0.00  0.00    +0.022 C 
ATOM     23  C   UNL     1      -6.160  -1.703   1.302  0.00  0.00    +0.022 C 
ATOM     24  C   UNL     1      -6.829   0.645  -0.361  0.00  0.00    +0.002 C 
ATOM     25  C   UNL     1      -6.633  -0.393   1.933  0.00  0.00    +0.002 C 
ATOM     26  C   UNL     1      -7.517   0.405   0.979  0.00  0.00    +0.000 C 
ENDBRANCH   9  20
ENDBRANCH  12   8
BRANCH  21  29
ATOM     10  N   UNL     1       2.598   4.187   0.207  0.00  0.00    -0.346 N 
ATOM     29  C   UNL     1       1.457   3.464   0.439  0.00  0.00    +0.104 A 
ATOM     30  C   UNL     1       0.395   4.342   0.441  0.00  0.00    +0.032 A 
ATOM     31  C   UNL     1       2.281   5.512   0.059  0.00  0.00    +0.086 A 
ATOM     32  C   UNL     1       0.917   5.637   0.201  0.00  0.00    +0.020 A 
ATOM     33  C   UNL     1       3.939   3.650   0.125  0.00  0.00    +0.149 C 
ENDBRANCH  21  29
TORSDOF 6
