REMARK  Name = 75536037
REMARK  8 active torsions:
REMARK  status: ('A' for Active; 'I' for Inactive)
REMARK    1  A    between atoms: O_3  and  C_24
REMARK    2  A    between atoms: O_3  and  C_29
REMARK    3  A    between atoms: N_5  and  C_10
REMARK    4  A    between atoms: N_8  and  C_22
REMARK    5  A    between atoms: C_16  and  C_21
REMARK    6  A    between atoms: C_22  and  C_23
REMARK    7  A    between atoms: C_22  and  C_24
REMARK    8  A    between atoms: C_23  and  C_25
REMARK                            x       y       z     vdW  Elec       q    Type
REMARK                         _______ _______ _______ _____ _____    ______ ____
ROOT
ATOM      1  O   UNL     1      -4.470  -1.417  -0.744  0.00  0.00    -0.253 OA
ATOM      5  N   UNL     1      -3.246   0.055   0.521  0.00  0.00    -0.296 N 
ATOM      6  N   UNL     1      -2.292  -1.999  -0.174  0.00  0.00    -0.272 N 
ATOM      7  N   UNL     1      -0.293  -4.058   0.095  0.00  0.00    -0.312 NA
ATOM     16  C   UNL     1      -0.959  -1.662   0.352  0.00  0.00    +0.177 C 
ATOM     17  C   UNL     1      -2.396  -3.275  -0.892  0.00  0.00    +0.125 C 
ATOM     18  C   UNL     1      -0.220  -2.867   0.942  0.00  0.00    +0.113 C 
ATOM     19  C   UNL     1      -3.411  -1.140  -0.171  0.00  0.00    +0.303 C 
ATOM     20  C   UNL     1      -1.686  -4.409  -0.166  0.00  0.00    +0.100 C 
ATOM     31  H   UNL     1      -2.332   0.339   0.843  0.00  0.00    +0.151 HD
ATOM     32  H   UNL     1       0.169  -4.835   0.566  0.00  0.00    +0.122 HD
ENDROOT
BRANCH   5  10
ATOM     10  C   UNL     1      -4.299   1.043   0.611  0.00  0.00    +0.074 C 
ATOM     11  C   UNL     1      -4.250   2.010  -0.576  0.00  0.00    +0.022 C 
ATOM     12  C   UNL     1      -4.234   1.796   1.944  0.00  0.00    +0.022 C 
ATOM     13  C   UNL     1      -3.062   2.970  -0.500  0.00  0.00    +0.002 C 
ATOM     14  C   UNL     1      -3.048   2.756   2.017  0.00  0.00    +0.002 C 
ATOM     15  C   UNL     1      -3.026   3.716   0.831  0.00  0.00    +0.000 C 
ENDBRANCH   5  10
BRANCH  16  21
ATOM      2  O   UNL     1      -0.384  -1.375  -1.948  0.00  0.00    -0.274 OA
ATOM      8  N   UNL     1       0.726  -0.106  -0.343  0.00  0.00    -0.301 N 
ATOM     21  C   UNL     1      -0.195  -1.043  -0.781  0.00  0.00    +0.236 C 
ATOM     33  H   UNL     1       0.815   0.073   0.653  0.00  0.00    +0.150 HD
BRANCH   8  22
ATOM     22  C   UNL     1       1.603   0.618  -1.234  0.00  0.00    +0.186 C 
BRANCH  22  24
ATOM      4  O   UNL     1       1.436   2.467   0.313  0.00  0.00    -0.249 OA
ATOM     24  C   UNL     1       1.853   2.043  -0.761  0.00  0.00    +0.328 C 
BRANCH  24   3
ATOM      3  O   UNL     1       2.563   2.769  -1.669  0.00  0.00    -0.467 OA
ATOM     29  C   UNL     1       2.826   4.129  -1.308  0.00  0.00    +0.280 C 
ENDBRANCH  24   3
ENDBRANCH  22  24
BRANCH  22  23
ATOM     23  C   UNL     1       2.914  -0.142  -1.487  0.00  0.00    +0.070 C 
BRANCH  23  25
ATOM      9  N   UNL     1       5.549   0.497   1.163  0.00  0.00    -0.263 NA
ATOM     25  C   UNL     1       3.781  -0.331  -0.263  0.00  0.00    -0.027 A 
ATOM     26  C   UNL     1       3.641  -1.451   0.549  0.00  0.00    +0.006 A 
ATOM     27  C   UNL     1       4.742   0.606   0.085  0.00  0.00    +0.114 A 
ATOM     28  C   UNL     1       4.454  -1.598   1.667  0.00  0.00    +0.020 A 
ATOM     30  C   UNL     1       5.384  -0.605   1.929  0.00  0.00    +0.111 A 
ENDBRANCH  23  25
ENDBRANCH  22  23
ENDBRANCH   8  22
ENDBRANCH  16  21
TORSDOF 7
