REMARK  Name = 40777705
REMARK  13 active torsions:
REMARK  status: ('A' for Active; 'I' for Inactive)
REMARK    1  A    between atoms: S_1  and  N_5
REMARK    2  A    between atoms: S_1  and  C_22
REMARK    3  A    between atoms: N_5  and  C_11
REMARK    4  A    between atoms: N_6  and  C_18
REMARK    5  A    between atoms: N_8  and  C_34
REMARK    6  A    between atoms: C_9  and  C_12
REMARK    7  A    between atoms: C_15  and  C_17
REMARK    8  A    between atoms: C_16  and  C_20
REMARK    9  A    between atoms: C_19  and  C_21
REMARK   10  A    between atoms: C_19  and  C_27
REMARK   11  A    between atoms: C_19  and  C_28
REMARK   12  A    between atoms: C_19  and  C_29
REMARK   13  A    between atoms: C_35  and  C_36
REMARK                            x       y       z     vdW  Elec       q    Type
REMARK                         _______ _______ _______ _____ _____    ______ ____
ROOT
ATOM      9  C   UNL     1      -0.001  -2.325  -0.667  0.00  0.00    +0.047 C 
ATOM     10  C   UNL     1      -0.704  -2.038   0.673  0.00  0.00    +0.037 C 
ATOM     11  C   UNL     1      -2.090  -1.474   0.318  0.00  0.00    +0.100 C 
ATOM     13  C   UNL     1      -0.742  -1.426  -1.613  0.00  0.00    -0.021 C 
ATOM     14  C   UNL     1      -1.880  -0.973  -1.077  0.00  0.00    -0.010 C 
ENDROOT
BRANCH   9  12
ATOM      6  N   UNL     1       3.483  -1.223  -0.406  0.00  0.00    -0.236 N 
ATOM      7  N   UNL     1       3.738  -2.501  -0.736  0.00  0.00    -0.171 NA
ATOM     12  C   UNL     1       1.493  -2.096  -0.619  0.00  0.00    +0.003 A 
ATOM     15  C   UNL     1       2.154  -0.930  -0.323  0.00  0.00    +0.046 A 
ATOM     16  C   UNL     1       2.518  -3.029  -0.864  0.00  0.00    +0.064 A 
ATOM     17  C   UNL     1       1.639   0.410   0.026  0.00  0.00    +0.066 C 
ATOM     20  C   UNL     1       2.379  -4.451  -1.227  0.00  0.00    +0.068 C 
BRANCH   6  18
ATOM     18  C   UNL     1       4.542  -0.341  -0.186  0.00  0.00    +0.066 A 
ATOM     21  C   UNL     1       6.662   1.417   0.258  0.00  0.00    -0.042 A 
ATOM     23  C   UNL     1       5.459  -0.083  -1.205  0.00  0.00    +0.028 A 
ATOM     24  C   UNL     1       4.685   0.279   1.055  0.00  0.00    +0.028 A 
ATOM     25  C   UNL     1       6.519   0.796  -0.983  0.00  0.00    +0.006 A 
ATOM     26  C   UNL     1       5.745   1.158   1.277  0.00  0.00    +0.006 A 
BRANCH  21  19
ATOM     19  C   UNL     1       7.796   2.356   0.496  0.00  0.00    -0.013 C 
ATOM     27  C   UNL     1       7.748   3.562  -0.492  0.00  0.00    +0.015 C 
ATOM     28  C   UNL     1       9.171   1.643   0.301  0.00  0.00    +0.015 C 
ATOM     29  C   UNL     1       7.855   2.990   1.925  0.00  0.00    +0.015 C 
ENDBRANCH  21  19
ENDBRANCH   6  18
ENDBRANCH   9  12
BRANCH  11   5
ATOM      5  N   UNL     1      -3.127  -2.498   0.366  0.00  0.00    -0.183 NA
ATOM     37  H   UNL     1      -3.127  -3.220  -0.364  0.00  0.00    +0.149 HD
BRANCH   5   1
ATOM      1  S   UNL     1      -4.496  -2.280   1.354  0.00  0.00    +0.059 S 
ATOM      2  O   UNL     1      -4.068  -2.000   2.712  0.00  0.00    -0.153 OA
ATOM      3  O   UNL     1      -5.442  -3.348   1.093  0.00  0.00    -0.153 OA
BRANCH   1  22
ATOM     22  C   UNL     1      -5.191  -0.799   0.686  0.00  0.00    +0.105 A 
ATOM     30  C   UNL     1      -4.806   0.443   1.192  0.00  0.00    +0.030 A 
ATOM     31  C   UNL     1      -6.126  -0.871  -0.347  0.00  0.00    +0.030 A 
ATOM     32  C   UNL     1      -5.355   1.612   0.665  0.00  0.00    +0.025 A 
ATOM     33  C   UNL     1      -6.675   0.298  -0.874  0.00  0.00    +0.025 A 
ATOM     34  C   UNL     1      -6.289   1.539  -0.368  0.00  0.00    +0.033 A 
BRANCH  34   8
ATOM      4  O   UNL     1      -5.803   4.423   0.348  0.00  0.00    -0.276 OA
ATOM      8  N   UNL     1      -6.838   2.709  -0.896  0.00  0.00    -0.286 N 
ATOM     35  C   UNL     1      -6.575   4.033  -0.522  0.00  0.00    +0.214 C 
ATOM     36  C   UNL     1      -7.376   5.015  -1.340  0.00  0.00    +0.109 C 
ATOM     38  H   UNL     1      -7.512   2.572  -1.647  0.00  0.00    +0.155 HD
ENDBRANCH  34   8
ENDBRANCH   1  22
ENDBRANCH   5   1
ENDBRANCH  11   5
TORSDOF 7
