REMARK  Name = 11943126
REMARK  7 active torsions:
REMARK  status: ('A' for Active; 'I' for Inactive)
REMARK    1  A    between atoms: O_1  and  C_12
REMARK    2  A    between atoms: O_1  and  C_15
REMARK    3  A    between atoms: N_4  and  C_16
REMARK    4  A    between atoms: C_6  and  C_12
REMARK    5  A    between atoms: C_8  and  C_13
REMARK    6  A    between atoms: C_16  and  C_17
REMARK    7  A    between atoms: C_17  and  C_18
REMARK                            x       y       z     vdW  Elec       q    Type
REMARK                         _______ _______ _______ _____ _____    ______ ____
ROOT
ATOM      3  N   UNL     1       2.348  -1.353   0.639  0.00  0.00    -0.295 NA
ATOM      5  C   UNL     1       2.767   0.433  -1.206  0.00  0.00    +0.008 C 
ATOM      6  C   UNL     1       1.109  -1.146  -0.157  0.00  0.00    +0.095 C 
ATOM      7  C   UNL     1       1.280   0.027  -1.148  0.00  0.00    +0.027 C 
ATOM      8  C   UNL     1       3.200   0.958   0.180  0.00  0.00    +0.081 C 
ATOM      9  C   UNL     1       3.581  -0.846  -1.475  0.00  0.00    +0.020 C 
ATOM     10  C   UNL     1       2.787  -0.074   1.251  0.00  0.00    +0.101 C 
ATOM     11  C   UNL     1       3.413  -1.811  -0.287  0.00  0.00    +0.085 C 
ENDROOT
BRANCH   8  13
ATOM     13  C   UNL     1       2.639   2.288   0.467  0.00  0.00    -0.101 C 
ATOM     14  C   UNL     1       2.180   3.373   0.700  0.00  0.00    +0.004 C 
ENDBRANCH   8  13
BRANCH   6  12
ATOM     12  C   UNL     1      -0.128  -0.969   0.726  0.00  0.00    +0.252 C 
BRANCH  12   1
ATOM      1  O   UNL     1      -1.266  -0.897  -0.111  0.00  0.00    -0.449 OA
BRANCH   1  15
ATOM      2  O   UNL     1      -2.616  -0.657   1.733  0.00  0.00    -0.226 OA
ATOM      4  N   UNL     1      -3.496  -0.682  -0.414  0.00  0.00    -0.281 N 
ATOM     15  C   UNL     1      -2.479  -0.737   0.516  0.00  0.00    +0.400 C 
ATOM     19  H   UNL     1      -3.249  -0.757  -1.396  0.00  0.00    +0.152 HD
BRANCH   4  16
ATOM     16  C   UNL     1      -4.889  -0.519  -0.070  0.00  0.00    +0.107 C 
BRANCH  16  17
ATOM     17  C   UNL     1      -5.304   0.946  -0.008  0.00  0.00    +0.015 C 
ATOM     18  C   UNL     1      -5.126   1.665  -1.338  0.00  0.00    +0.005 C 
ENDBRANCH  16  17
ENDBRANCH   4  16
ENDBRANCH   1  15
ENDBRANCH  12   1
ENDBRANCH   6  12
TORSDOF 6
