REMARK  Name = 40777613
REMARK  8 active torsions:
REMARK  status: ('A' for Active; 'I' for Inactive)
REMARK    1  A    between atoms: S_1  and  N_4
REMARK    2  A    between atoms: S_1  and  C_18
REMARK    3  A    between atoms: N_4  and  C_9
REMARK    4  A    between atoms: N_5  and  C_16
REMARK    5  A    between atoms: C_7  and  C_10
REMARK    6  A    between atoms: C_13  and  C_15
REMARK    7  A    between atoms: C_14  and  C_17
REMARK    8  A    between atoms: C_16  and  C_19
REMARK                            x       y       z     vdW  Elec       q    Type
REMARK                         _______ _______ _______ _____ _____    ______ ____
ROOT
ATOM      7  C   UNL     1      -0.195   1.162  -0.718  0.00  0.00    +0.047 C 
ATOM      8  C   UNL     1      -1.368   0.244  -0.315  0.00  0.00    +0.037 C 
ATOM      9  C   UNL     1      -2.239   1.068   0.639  0.00  0.00    +0.100 C 
ATOM     11  C   UNL     1      -0.187   2.180   0.386  0.00  0.00    -0.021 C 
ATOM     12  C   UNL     1      -1.305   2.128   1.118  0.00  0.00    -0.010 C 
ENDROOT
BRANCH   7  10
ATOM      5  N   UNL     1       2.895  -0.801  -0.608  0.00  0.00    -0.264 N 
ATOM      6  N   UNL     1       3.008  -0.386  -1.881  0.00  0.00    -0.176 NA
ATOM     10  C   UNL     1       1.109   0.421  -0.901  0.00  0.00    +0.003 A 
ATOM     13  C   UNL     1       1.775  -0.345   0.023  0.00  0.00    +0.041 A 
ATOM     14  C   UNL     1       1.914   0.360  -2.055  0.00  0.00    +0.064 A 
ATOM     15  C   UNL     1       1.455  -0.680   1.424  0.00  0.00    +0.065 C 
ATOM     17  C   UNL     1       1.675   1.005  -3.358  0.00  0.00    +0.068 C 
BRANCH   5  16
ATOM     16  C   UNL     1       3.921  -1.652  -0.050  0.00  0.00    +0.178 C 
BRANCH  16  19
ATOM     19  C   UNL     1       5.169  -0.902   0.346  0.00  0.00    -0.026 A 
ATOM     22  C   UNL     1       6.086  -0.510  -0.629  0.00  0.00    +0.005 A 
ATOM     23  C   UNL     1       5.405  -0.601   1.687  0.00  0.00    +0.005 A 
ATOM     26  C   UNL     1       7.240   0.183  -0.263  0.00  0.00    +0.000 A 
ATOM     27  C   UNL     1       6.559   0.092   2.054  0.00  0.00    +0.000 A 
ATOM     29  C   UNL     1       7.476   0.484   1.079  0.00  0.00    +0.000 A 
ENDBRANCH  16  19
ENDBRANCH   5  16
ENDBRANCH   7  10
BRANCH   9   4
ATOM      4  N   UNL     1      -3.357   1.702  -0.091  0.00  0.00    -0.183 NA
ATOM     30  H   UNL     1      -3.158   2.089  -1.022  0.00  0.00    +0.149 HD
BRANCH   4   1
ATOM      1  S   UNL     1      -4.961   1.419   0.396  0.00  0.00    +0.059 S 
ATOM      2  O   UNL     1      -5.869   2.033  -0.554  0.00  0.00    -0.153 OA
ATOM      3  O   UNL     1      -5.081   1.711   1.812  0.00  0.00    -0.153 OA
BRANCH   1  18
ATOM     18  C   UNL     1      -5.090  -0.335   0.218  0.00  0.00    +0.105 A 
ATOM     20  C   UNL     1      -4.769  -1.170   1.288  0.00  0.00    +0.028 A 
ATOM     21  C   UNL     1      -5.509  -0.884  -0.994  0.00  0.00    +0.028 A 
ATOM     24  C   UNL     1      -4.866  -2.554   1.147  0.00  0.00    +0.002 A 
ATOM     25  C   UNL     1      -5.607  -2.268  -1.135  0.00  0.00    +0.002 A 
ATOM     28  C   UNL     1      -5.285  -3.103  -0.065  0.00  0.00    +0.000 A 
ENDBRANCH   1  18
ENDBRANCH   4   1
ENDBRANCH   9   4
TORSDOF 6
