REMARK  Name = 75536689
REMARK  8 active torsions:
REMARK  status: ('A' for Active; 'I' for Inactive)
REMARK    1  A    between atoms: S_1  and  N_7
REMARK    2  A    between atoms: S_1  and  C_16
REMARK    3  A    between atoms: O_3  and  C_10
REMARK    4  A    between atoms: N_6  and  C_9
REMARK    5  A    between atoms: N_6  and  C_14
REMARK    6  A    between atoms: N_7  and  C_13
REMARK    7  A    between atoms: C_11  and  C_13
REMARK    8  A    between atoms: C_14  and  C_15
REMARK                            x       y       z     vdW  Elec       q    Type
REMARK                         _______ _______ _______ _____ _____    ______ ____
ROOT
ATOM      2  O   UNL     1       0.135  -1.259   1.390  0.00  0.00    -0.371 OA
ATOM      9  C   UNL     1      -1.829  -1.069   0.068  0.00  0.00    +0.111 C 
ATOM     10  C   UNL     1      -0.631  -0.652  -0.764  0.00  0.00    +0.164 C 
ATOM     11  C   UNL     1       0.504  -1.318   0.002  0.00  0.00    +0.164 C 
ATOM     12  C   UNL     1      -1.269  -0.961   1.477  0.00  0.00    +0.181 C 
ENDROOT
BRANCH  10   3
ATOM      3  O   UNL     1      -0.707  -1.112  -2.100  0.00  0.00    -0.388 OA
ATOM     27  H   UNL     1      -0.809  -2.078  -2.085  0.00  0.00    +0.210 HD
ENDBRANCH  10   3
BRANCH   9   6
ATOM      6  N   UNL     1      -3.003  -0.236  -0.140  0.00  0.00    -0.305 NA
ATOM     26  H   UNL     1      -3.135  -0.092  -1.142  0.00  0.00    +0.123 HD
BRANCH   6  14
ATOM     14  C   UNL     1      -4.198  -0.867   0.408  0.00  0.00    +0.118 C 
BRANCH  14  15
ATOM      8  N   UNL     1      -7.473   0.420  -0.989  0.00  0.00    -0.263 NA
ATOM     15  C   UNL     1      -5.421  -0.010   0.216  0.00  0.00    -0.015 A 
ATOM     17  C   UNL     1      -5.649   1.104   1.016  0.00  0.00    +0.008 A 
ATOM     18  C   UNL     1      -6.355  -0.307  -0.764  0.00  0.00    +0.115 A 
ATOM     21  C   UNL     1      -6.787   1.877   0.815  0.00  0.00    +0.020 A 
ATOM     24  C   UNL     1      -7.660   1.496  -0.191  0.00  0.00    +0.111 A 
ENDBRANCH  14  15
ENDBRANCH   6  14
ENDBRANCH   9   6
BRANCH  11  13
ATOM     13  C   UNL     1       1.846  -0.638  -0.202  0.00  0.00    +0.140 C 
BRANCH  13   7
ATOM      7  N   UNL     1       2.884  -1.346   0.574  0.00  0.00    -0.187 NA
ATOM     28  H   UNL     1       2.718  -1.410   1.586  0.00  0.00    +0.148 HD
BRANCH   7   1
ATOM      1  S   UNL     1       4.489  -1.386   0.012  0.00  0.00    +0.058 S 
ATOM      4  O   UNL     1       4.510  -1.894  -1.347  0.00  0.00    -0.153 OA
ATOM      5  O   UNL     1       5.330  -1.988   1.029  0.00  0.00    -0.153 OA
BRANCH   1  16
ATOM     16  C   UNL     1       4.896   0.333  -0.043  0.00  0.00    +0.105 A 
ATOM     19  C   UNL     1       5.454   0.954   1.075  0.00  0.00    +0.028 A 
ATOM     20  C   UNL     1       4.656   1.070  -1.203  0.00  0.00    +0.028 A 
ATOM     22  C   UNL     1       5.772   2.311   1.033  0.00  0.00    +0.002 A 
ATOM     23  C   UNL     1       4.974   2.428  -1.244  0.00  0.00    +0.002 A 
ATOM     25  C   UNL     1       5.532   3.048  -0.127  0.00  0.00    +0.000 A 
ENDBRANCH   1  16
ENDBRANCH   7   1
ENDBRANCH  13   7
ENDBRANCH  11  13
TORSDOF 8
