REMARK  Name = 45783790
REMARK  6 active torsions:
REMARK  status: ('A' for Active; 'I' for Inactive)
REMARK    1  A    between atoms: N_2  and  C_13
REMARK    2  A    between atoms: N_8  and  C_23
REMARK    3  A    between atoms: N_8  and  C_24
REMARK    4  A    between atoms: C_9  and  C_14
REMARK    5  A    between atoms: C_13  and  C_15
REMARK    6  A    between atoms: C_16  and  C_18
REMARK                            x       y       z     vdW  Elec       q    Type
REMARK                         _______ _______ _______ _____ _____    ______ ____
ROOT
ATOM      1  O   UNL     1      -1.073  -0.284   2.018  0.00  0.00    -0.336 OA
ATOM      3  N   UNL     1      -0.344  -0.989   0.021  0.00  0.00    -0.190 NA
ATOM      6  N   UNL     1       0.305  -0.035   1.996  0.00  0.00    -0.056 NA
ATOM     14  C   UNL     1      -1.372  -0.846   0.818  0.00  0.00    +0.245 A 
ATOM     16  C   UNL     1       0.663  -0.477   0.787  0.00  0.00    +0.204 A 
ENDROOT
BRANCH  16  18
ATOM      7  N   UNL     1       4.322   0.179   0.719  0.00  0.00    -0.240 NA
ATOM     18  C   UNL     1       2.016  -0.424   0.315  0.00  0.00    +0.041 A 
ATOM     20  C   UNL     1       2.353  -0.895  -0.949  0.00  0.00    +0.016 A 
ATOM     21  C   UNL     1       3.029   0.099   1.103  0.00  0.00    +0.124 A 
ATOM     22  C   UNL     1       3.674  -0.830  -1.380  0.00  0.00    +0.044 A 
ATOM     23  C   UNL     1       4.612  -0.289  -0.516  0.00  0.00    +0.118 A 
BRANCH  23   8
ATOM      8  N   UNL     1       5.953  -0.231  -0.969  0.00  0.00    -0.332 N 
ATOM     24  C   UNL     1       7.012   0.303  -0.175  0.00  0.00    +0.127 C 
ATOM     26  H   UNL     1       6.113  -0.368  -1.961  0.00  0.00    +0.147 HD
ENDBRANCH  23   8
ENDBRANCH  16  18
BRANCH  14   9
ATOM      2  N   UNL     1      -3.392  -0.561  -0.607  0.00  0.00    -0.284 NA
ATOM      9  C   UNL     1      -2.823  -1.214   0.589  0.00  0.00    +0.146 C 
ATOM     10  C   UNL     1      -3.023  -2.721   0.343  0.00  0.00    +0.030 C 
ATOM     11  C   UNL     1      -3.765  -2.814  -0.983  0.00  0.00    +0.017 C 
ATOM     12  C   UNL     1      -4.431  -1.459  -1.114  0.00  0.00    +0.085 C 
BRANCH   2  13
ATOM     13  C   UNL     1      -3.906   0.776  -0.342  0.00  0.00    +0.159 C 
BRANCH  13  15
ATOM      4  N   UNL     1      -1.975   2.006  -1.361  0.00  0.00    -0.347 N 
ATOM      5  N   UNL     1      -2.504   2.589   0.716  0.00  0.00    -0.239 NA
ATOM     15  C   UNL     1      -2.804   1.801  -0.293  0.00  0.00    +0.121 A 
ATOM     17  C   UNL     1      -1.090   2.986  -1.011  0.00  0.00    +0.104 A 
ATOM     19  C   UNL     1      -1.437   3.330   0.275  0.00  0.00    +0.130 A 
ATOM     25  H   UNL     1      -2.008   1.519  -2.247  0.00  0.00    +0.167 HD
ENDBRANCH  13  15
ENDBRANCH   2  13
ENDBRANCH  14   9
TORSDOF 5
