REMARK  Name = 75536429
REMARK  10 active torsions:
REMARK  status: ('A' for Active; 'I' for Inactive)
REMARK    1  A    between atoms: O_2  and  C_13
REMARK    2  A    between atoms: O_6  and  C_28
REMARK    3  A    between atoms: O_6  and  C_33
REMARK    4  A    between atoms: N_7  and  C_17
REMARK    5  A    between atoms: N_8  and  C_20
REMARK    6  A    between atoms: N_10  and  C_27
REMARK    7  A    between atoms: C_11  and  C_16
REMARK    8  A    between atoms: C_12  and  C_17
REMARK    9  A    between atoms: C_16  and  C_18
REMARK   10  A    between atoms: C_20  and  C_21
REMARK                            x       y       z     vdW  Elec       q    Type
REMARK                         _______ _______ _______ _____ _____    ______ ____
ROOT
ATOM      1  O   UNL     1       3.368  -0.938   0.632  0.00  0.00    -0.369 OA
ATOM     11  C   UNL     1       3.530  -1.211  -0.762  0.00  0.00    +0.125 C 
ATOM     12  C   UNL     1       4.255   0.054   1.166  0.00  0.00    +0.164 C 
ATOM     13  C   UNL     1       5.722  -0.307   0.899  0.00  0.00    +0.145 C 
ATOM     14  C   UNL     1       4.952  -1.689  -1.056  0.00  0.00    +0.034 C 
ATOM     15  C   UNL     1       5.975  -0.670  -0.562  0.00  0.00    +0.036 C 
ENDROOT
BRANCH  13   2
ATOM      2  O   UNL     1       6.070  -1.441   1.697  0.00  0.00    -0.389 OA
ATOM     34  H   UNL     1       7.014  -1.625   1.550  0.00  0.00    +0.210 HD
ENDBRANCH  13   2
BRANCH  11  16
ATOM     16  C   UNL     1       2.510  -2.277  -1.142  0.00  0.00    +0.090 C 
BRANCH  16  18
ATOM      3  O   UNL     1      -0.833  -0.933  -1.169  0.00  0.00    -0.358 OA
ATOM      9  N   UNL     1       0.397  -1.183  -1.765  0.00  0.00    -0.083 NA
ATOM     18  C   UNL     1       1.104  -1.837  -0.839  0.00  0.00    +0.086 A 
ATOM     19  C   UNL     1       0.379  -2.026   0.350  0.00  0.00    +0.072 A 
ATOM     21  C   UNL     1      -0.832  -1.439   0.090  0.00  0.00    +0.151 A 
BRANCH  21  20
ATOM     20  C   UNL     1      -2.063  -1.262   0.869  0.00  0.00    +0.161 C 
BRANCH  20   8
ATOM      4  O   UNL     1      -5.673  -3.328   0.308  0.00  0.00    -0.377 OA
ATOM      8  N   UNL     1      -3.237  -1.857   0.234  0.00  0.00    -0.291 NA
ATOM     22  C   UNL     1      -3.250  -3.314   0.422  0.00  0.00    +0.113 C 
ATOM     23  C   UNL     1      -4.474  -1.270   0.769  0.00  0.00    +0.113 C 
ATOM     24  C   UNL     1      -4.489  -3.911  -0.238  0.00  0.00    +0.175 C 
ATOM     25  C   UNL     1      -5.685  -1.915   0.102  0.00  0.00    +0.175 C 
ENDBRANCH  20   8
ENDBRANCH  21  20
ENDBRANCH  16  18
ENDBRANCH  11  16
BRANCH  12  17
ATOM     17  C   UNL     1       3.883   1.449   0.669  0.00  0.00    +0.140 C 
BRANCH  17   7
ATOM      5  O   UNL     1       1.859   2.068  -1.260  0.00  0.00    -0.253 OA
ATOM      7  N   UNL     1       2.507   1.739   0.936  0.00  0.00    -0.297 N 
ATOM     10  N   UNL     1       0.308   2.275   0.490  0.00  0.00    -0.266 N 
ATOM     26  C   UNL     1       1.568   2.035  -0.067  0.00  0.00    +0.304 C 
ATOM     35  H   UNL     1       2.205   1.777   1.904  0.00  0.00    +0.150 HD
ATOM     36  H   UNL     1       0.234   2.207   1.502  0.00  0.00    +0.156 HD
BRANCH  10  27
ATOM     27  C   UNL     1      -0.891   2.603  -0.185  0.00  0.00    +0.077 A 
ATOM     28  C   UNL     1      -2.073   2.812   0.526  0.00  0.00    +0.141 A 
ATOM     29  C   UNL     1      -0.884   2.715  -1.575  0.00  0.00    +0.027 A 
ATOM     30  C   UNL     1      -3.248   3.133  -0.153  0.00  0.00    +0.047 A 
ATOM     31  C   UNL     1      -2.060   3.036  -2.255  0.00  0.00    +0.002 A 
ATOM     32  C   UNL     1      -3.242   3.244  -1.544  0.00  0.00    +0.004 A 
BRANCH  28   6
ATOM      6  O   UNL     1      -2.101   2.708   1.885  0.00  0.00    -0.493 OA
ATOM     33  C   UNL     1      -3.353   2.938   2.526  0.00  0.00    +0.277 C 
ENDBRANCH  28   6
ENDBRANCH  10  27
ENDBRANCH  17   7
ENDBRANCH  12  17
TORSDOF 9
