REMARK  Name = 56775464
REMARK  9 active torsions:
REMARK  status: ('A' for Active; 'I' for Inactive)
REMARK    1  A    between atoms: N_4  and  C_6
REMARK    2  A    between atoms: N_4  and  C_11
REMARK    3  A    between atoms: C_6  and  C_9
REMARK    4  A    between atoms: C_9  and  C_10
REMARK    5  A    between atoms: C_11  and  C_15
REMARK    6  A    between atoms: C_12  and  C_14
REMARK    7  A    between atoms: C_12  and  C_16
REMARK    8  A    between atoms: C_12  and  C_17
REMARK    9  A    between atoms: C_12  and  C_18
REMARK                            x       y       z     vdW  Elec       q    Type
REMARK                         _______ _______ _______ _____ _____    ______ ____
ROOT
ATOM      2  O   UNL     1       0.849   3.946  -1.004  0.00  0.00    -0.376 OA
ATOM      6  C   UNL     1       0.389   2.130   0.020  0.00  0.00    +0.072 C 
ATOM      7  C   UNL     1      -0.075   2.858  -1.236  0.00  0.00    +0.184 C 
ATOM      8  C   UNL     1       1.401   3.263   0.145  0.00  0.00    +0.184 C 
ENDROOT
BRANCH   6   4
ATOM      4  N   UNL     1       1.091   0.916  -0.374  0.00  0.00    -0.302 NA
ATOM     24  H   UNL     1       0.513   0.211  -0.829  0.00  0.00    +0.123 HD
BRANCH   4  11
ATOM     11  C   UNL     1       1.761   0.334   0.787  0.00  0.00    +0.120 C 
BRANCH  11  15
ATOM      1  F   UNL     1       1.494  -2.270  -0.296  0.00  0.00    -0.205 F 
ATOM     15  C   UNL     1       2.939  -0.515   0.387  0.00  0.00    +0.002 A 
ATOM     19  C   UNL     1       2.736  -1.790  -0.140  0.00  0.00    +0.128 A 
ATOM     20  C   UNL     1       4.235  -0.023   0.545  0.00  0.00    +0.008 A 
ATOM     21  C   UNL     1       3.829  -2.574  -0.509  0.00  0.00    +0.038 A 
ATOM     22  C   UNL     1       5.328  -0.808   0.176  0.00  0.00    +0.000 A 
ATOM     23  C   UNL     1       5.125  -2.083  -0.351  0.00  0.00    +0.003 A 
ENDBRANCH  11  15
ENDBRANCH   4  11
ENDBRANCH   6   4
BRANCH   6   9
ATOM      9  C   UNL     1      -0.612   1.898   1.159  0.00  0.00    +0.085 C 
BRANCH   9  10
ATOM      3  O   UNL     1      -3.736   0.745  -0.132  0.00  0.00    -0.359 OA
ATOM      5  N   UNL     1      -2.845   1.756   0.207  0.00  0.00    -0.083 NA
ATOM     10  C   UNL     1      -1.774   1.122   0.696  0.00  0.00    +0.086 A 
ATOM     13  C   UNL     1      -1.931  -0.274   0.690  0.00  0.00    +0.071 A 
ATOM     14  C   UNL     1      -3.181  -0.459   0.160  0.00  0.00    +0.143 A 
BRANCH  14  12
ATOM     12  C   UNL     1      -4.032  -1.701  -0.151  0.00  0.00    +0.023 C 
ATOM     16  C   UNL     1      -5.415  -1.375  -0.762  0.00  0.00    +0.019 C 
ATOM     17  C   UNL     1      -3.289  -2.600  -1.163  0.00  0.00    +0.019 C 
ATOM     18  C   UNL     1      -4.284  -2.497   1.147  0.00  0.00    +0.019 C 
ENDBRANCH  14  12
ENDBRANCH   9  10
ENDBRANCH   6   9
TORSDOF 6
