REMARK  Name = 51137800
REMARK  5 active torsions:
REMARK  status: ('A' for Active; 'I' for Inactive)
REMARK    1  A    between atoms: O_3  and  C_21
REMARK    2  A    between atoms: O_3  and  C_26
REMARK    3  A    between atoms: C_7  and  C_14
REMARK    4  A    between atoms: C_8  and  C_18
REMARK    5  A    between atoms: C_19  and  C_20
REMARK                            x       y       z     vdW  Elec       q    Type
REMARK                         _______ _______ _______ _____ _____    ______ ____
ROOT
ATOM      1  O   UNL     1      -2.945  -1.193  -1.992  0.00  0.00    -0.275 OA
ATOM      4  N   UNL     1      -1.762  -1.726  -0.080  0.00  0.00    -0.300 N 
ATOM      8  C   UNL     1       0.077  -3.171   0.346  0.00  0.00    +0.095 C 
ATOM      9  C   UNL     1      -1.037  -2.851  -0.659  0.00  0.00    +0.120 C 
ATOM     12  C   UNL     1      -0.564  -2.749   1.678  0.00  0.00    +0.033 C 
ATOM     13  C   UNL     1      -1.393  -1.522   1.316  0.00  0.00    +0.108 C 
ATOM     14  C   UNL     1      -2.667  -0.978  -0.811  0.00  0.00    +0.219 C 
ENDROOT
BRANCH  14   7
ATOM      7  C   UNL     1      -3.322   0.147  -0.071  0.00  0.00    +0.075 C 
ATOM     10  C   UNL     1      -2.482   1.417  -0.204  0.00  0.00    +0.013 C 
ATOM     11  C   UNL     1      -4.738   0.351  -0.614  0.00  0.00    +0.013 C 
ATOM     15  C   UNL     1      -3.168   2.614   0.451  0.00  0.00    +0.001 C 
ATOM     16  C   UNL     1      -5.421   1.550   0.038  0.00  0.00    +0.001 C 
ATOM     17  C   UNL     1      -4.580   2.817  -0.092  0.00  0.00    +0.000 C 
ENDBRANCH  14   7
BRANCH   8  18
ATOM      2  O   UNL     1       1.399  -1.121   0.068  0.00  0.00    -0.420 OA
ATOM      5  N   UNL     1       2.607  -3.001  -0.024  0.00  0.00    -0.112 NA
ATOM      6  N   UNL     1       3.467  -1.932  -0.194  0.00  0.00    -0.107 NA
ATOM     18  C   UNL     1       1.411  -2.481   0.125  0.00  0.00    +0.222 A 
ATOM     19  C   UNL     1       2.718  -0.856  -0.133  0.00  0.00    +0.252 A 
BRANCH  19  20
ATOM     20  C   UNL     1       3.070   0.530  -0.243  0.00  0.00    +0.080 A 
ATOM     21  C   UNL     1       2.335   1.510   0.423  0.00  0.00    +0.132 A 
ATOM     22  C   UNL     1       4.162   0.893  -1.032  0.00  0.00    +0.017 A 
ATOM     23  C   UNL     1       2.692   2.853   0.302  0.00  0.00    +0.046 A 
ATOM     24  C   UNL     1       4.519   2.236  -1.153  0.00  0.00    +0.001 A 
ATOM     25  C   UNL     1       3.784   3.216  -0.486  0.00  0.00    +0.004 A 
BRANCH  21   3
ATOM      3  O   UNL     1       1.262   1.185   1.200  0.00  0.00    -0.494 OA
ATOM     26  C   UNL     1       0.577   2.259   1.840  0.00  0.00    +0.277 C 
ENDBRANCH  21   3
ENDBRANCH  19  20
ENDBRANCH   8  18
TORSDOF 4
