REMARK  Name = 75536063
REMARK  7 active torsions:
REMARK  status: ('A' for Active; 'I' for Inactive)
REMARK    1  A    between atoms: O_1  and  C_9
REMARK    2  A    between atoms: O_2  and  C_11
REMARK    3  A    between atoms: O_4  and  C_23
REMARK    4  A    between atoms: O_4  and  C_24
REMARK    5  A    between atoms: N_5  and  C_8
REMARK    6  A    between atoms: C_7  and  C_12
REMARK    7  A    between atoms: C_15  and  C_17
REMARK                            x       y       z     vdW  Elec       q    Type
REMARK                         _______ _______ _______ _____ _____    ______ ____
ROOT
ATOM      7  C   UNL     1       2.184   0.446   0.985  0.00  0.00    +0.046 C 
ATOM      8  C   UNL     1       1.385   1.213  -0.093  0.00  0.00    +0.112 C 
ATOM      9  C   UNL     1       1.761   2.673   0.157  0.00  0.00    +0.164 C 
ATOM     10  C   UNL     1       3.369   1.369   1.370  0.00  0.00    +0.044 C 
ATOM     11  C   UNL     1       3.251   2.598   0.469  0.00  0.00    +0.145 C 
ENDROOT
BRANCH   7  12
ATOM      6  N   UNL     1       2.512  -3.333   0.898  0.00  0.00    -0.263 NA
ATOM     12  C   UNL     1       2.594  -0.943   0.542  0.00  0.00    -0.024 A 
ATOM     13  C   UNL     1       3.398  -1.130  -0.577  0.00  0.00    +0.007 A 
ATOM     14  C   UNL     1       2.182  -2.067   1.239  0.00  0.00    +0.114 A 
ATOM     16  C   UNL     1       3.759  -2.417  -0.960  0.00  0.00    +0.020 A 
ATOM     18  C   UNL     1       3.294  -3.475  -0.195  0.00  0.00    +0.111 A 
ENDBRANCH   7  12
BRANCH   8   5
ATOM      3  O   UNL     1      -0.167  -0.777  -1.464  0.00  0.00    -0.270 OA
ATOM      5  N   UNL     1      -0.034   0.994   0.028  0.00  0.00    -0.305 N 
ATOM     15  C   UNL     1      -0.701   0.002  -0.678  0.00  0.00    +0.244 C 
ATOM     25  H   UNL     1      -0.543   1.619   0.643  0.00  0.00    +0.149 HD
BRANCH  15  17
ATOM     17  C   UNL     1      -2.168  -0.076  -0.463  0.00  0.00    +0.037 A 
ATOM     19  C   UNL     1      -2.994  -0.591  -1.463  0.00  0.00    +0.016 A 
ATOM     20  C   UNL     1      -2.721   0.365   0.740  0.00  0.00    +0.016 A 
ATOM     21  C   UNL     1      -4.372  -0.664  -1.261  0.00  0.00    +0.046 A 
ATOM     22  C   UNL     1      -4.099   0.292   0.942  0.00  0.00    +0.046 A 
ATOM     23  C   UNL     1      -4.925  -0.222  -0.059  0.00  0.00    +0.120 A 
BRANCH  23   4
ATOM      4  O   UNL     1      -6.270  -0.293   0.139  0.00  0.00    -0.495 OA
ATOM     24  C   UNL     1      -6.768   0.175   1.391  0.00  0.00    +0.277 C 
ENDBRANCH  23   4
ENDBRANCH  15  17
ENDBRANCH   8   5
BRANCH   9   1
ATOM      1  O   UNL     1       1.516   3.491  -0.972  0.00  0.00    -0.387 OA
ATOM     26  H   UNL     1       1.866   4.376  -0.772  0.00  0.00    +0.210 HD
ENDBRANCH   9   1
BRANCH  11   2
ATOM      2  O   UNL     1       4.010   2.370  -0.714  0.00  0.00    -0.389 OA
ATOM     27  H   UNL     1       4.943   2.292  -0.452  0.00  0.00    +0.210 HD
ENDBRANCH  11   2
TORSDOF 6
