REMARK  Name = 75536655
REMARK  8 active torsions:
REMARK  status: ('A' for Active; 'I' for Inactive)
REMARK    1  A    between atoms: S_1  and  N_9
REMARK    2  A    between atoms: S_1  and  C_22
REMARK    3  A    between atoms: O_3  and  C_12
REMARK    4  A    between atoms: N_7  and  C_10
REMARK    5  A    between atoms: N_7  and  C_11
REMARK    6  A    between atoms: N_9  and  C_19
REMARK    7  A    between atoms: C_13  and  C_19
REMARK    8  A    between atoms: C_20  and  C_21
REMARK                            x       y       z     vdW  Elec       q    Type
REMARK                         _______ _______ _______ _____ _____    ______ ____
ROOT
ATOM      2  O   UNL     1       2.191   0.733   0.807  0.00  0.00    -0.371 OA
ATOM     10  C   UNL     1       0.151  -0.206   0.035  0.00  0.00    +0.111 C 
ATOM     12  C   UNL     1       1.309  -0.916  -0.641  0.00  0.00    +0.164 C 
ATOM     13  C   UNL     1       2.449  -0.593   0.315  0.00  0.00    +0.164 C 
ATOM     14  C   UNL     1       0.822   1.067   0.522  0.00  0.00    +0.181 C 
ENDROOT
BRANCH  12   3
ATOM      3  O   UNL     1       1.101  -2.310  -0.761  0.00  0.00    -0.388 OA
ATOM     24  H   UNL     1       0.930  -2.671   0.126  0.00  0.00    +0.210 HD
ENDBRANCH  12   3
BRANCH  10   7
ATOM      7  N   UNL     1      -0.974   0.049  -0.851  0.00  0.00    -0.306 NA
ATOM     23  H   UNL     1      -1.163  -0.772  -1.425  0.00  0.00    +0.123 HD
BRANCH   7  11
ATOM      4  O   UNL     1      -6.820  -1.184   0.600  0.00  0.00    -0.276 OA
ATOM      8  N   UNL     1      -5.028   0.268   0.322  0.00  0.00    -0.302 N 
ATOM     11  C   UNL     1      -2.165   0.408  -0.086  0.00  0.00    +0.057 C 
ATOM     15  C   UNL     1      -2.838  -0.856   0.465  0.00  0.00    +0.037 C 
ATOM     16  C   UNL     1      -3.142   1.194  -0.970  0.00  0.00    +0.037 C 
ATOM     17  C   UNL     1      -4.139  -0.510   1.188  0.00  0.00    +0.109 C 
ATOM     18  C   UNL     1      -4.438   1.499  -0.219  0.00  0.00    +0.109 C 
ATOM     20  C   UNL     1      -6.336  -0.164   0.104  0.00  0.00    +0.212 C 
ATOM     21  C   UNL     1      -7.187   0.690  -0.802  0.00  0.00    +0.109 C 
ENDBRANCH   7  11
ENDBRANCH  10   7
BRANCH  13  19
ATOM     19  C   UNL     1       3.817  -0.639  -0.344  0.00  0.00    +0.139 C 
BRANCH  19   9
ATOM      9  N   UNL     1       4.857  -0.314   0.652  0.00  0.00    -0.192 NA
ATOM     25  H   UNL     1       4.951  -1.024   1.390  0.00  0.00    +0.148 HD
BRANCH   9   1
ATOM      1  S   UNL     1       6.303   0.428   0.131  0.00  0.00    +0.027 S 
ATOM      5  O   UNL     1       7.290   0.380   1.191  0.00  0.00    -0.158 OA
ATOM      6  O   UNL     1       5.967   1.682  -0.515  0.00  0.00    -0.158 OA
ATOM     22  C   UNL     1       6.811  -0.705  -1.142  0.00  0.00    +0.214 C 
ENDBRANCH   9   1
ENDBRANCH  19   9
ENDBRANCH  13  19
TORSDOF 6
