REMARK  Name = 11883402
REMARK  9 active torsions:
REMARK  status: ('A' for Active; 'I' for Inactive)
REMARK    1  A    between atoms: O_6  and  C_15
REMARK    2  A    between atoms: O_6  and  C_19
REMARK    3  A    between atoms: N_9  and  C_14
REMARK    4  A    between atoms: N_10  and  C_20
REMARK    5  A    between atoms: N_11  and  C_21
REMARK    6  A    between atoms: C_24  and  C_25
REMARK    7  A    between atoms: C_25  and  C_30
REMARK    8  A    between atoms: C_25  and  C_31
REMARK    9  A    between atoms: C_32  and  C_35
REMARK                            x       y       z     vdW  Elec       q    Type
REMARK                         _______ _______ _______ _____ _____    ______ ____
ROOT
ATOM      4  O   UNL     1       0.428  -1.395  -1.260  0.00  0.00    -0.368 OA
ATOM      5  O   UNL     1      -0.513  -3.301   0.950  0.00  0.00    -0.368 OA
ATOM     12  C   UNL     1      -0.979  -1.995   0.553  0.00  0.00    +0.173 C 
ATOM     13  C   UNL     1       0.245  -1.196   0.152  0.00  0.00    +0.192 C 
ATOM     14  C   UNL     1      -1.780  -2.095  -0.724  0.00  0.00    +0.131 C 
ATOM     15  C   UNL     1       1.342  -1.852   0.956  0.00  0.00    +0.235 C 
ATOM     16  C   UNL     1      -0.694  -2.123  -1.785  0.00  0.00    +0.185 C 
ATOM     17  C   UNL     1       0.922  -3.305   0.941  0.00  0.00    +0.207 C 
ENDROOT
BRANCH  14   9
ATOM      7  O   UNL     1      -4.536  -1.911   0.038  0.00  0.00    -0.252 OA
ATOM      9  N   UNL     1      -2.646  -0.954  -0.889  0.00  0.00    -0.292 N 
ATOM     10  N   UNL     1      -4.574   0.291  -0.773  0.00  0.00    -0.269 N 
ATOM     18  C   UNL     1      -3.988  -0.945  -0.488  0.00  0.00    +0.304 C 
ATOM     36  H   UNL     1      -2.248  -0.094  -1.254  0.00  0.00    +0.151 HD
ATOM     37  H   UNL     1      -3.978   0.988  -1.214  0.00  0.00    +0.156 HD
BRANCH  10  20
ATOM     20  C   UNL     1      -5.905   0.699  -0.524  0.00  0.00    +0.035 A 
ATOM     22  C   UNL     1      -6.319   1.983  -0.880  0.00  0.00    +0.023 A 
ATOM     23  C   UNL     1      -6.804  -0.182   0.077  0.00  0.00    +0.023 A 
ATOM     24  C   UNL     1      -8.531   1.504  -0.033  0.00  0.00    -0.045 A 
ATOM     26  C   UNL     1      -7.632   2.385  -0.634  0.00  0.00    +0.006 A 
ATOM     27  C   UNL     1      -8.117   0.221   0.323  0.00  0.00    +0.006 A 
BRANCH  24  25
ATOM     25  C   UNL     1      -9.934   1.935   0.228  0.00  0.00    +0.013 C 
ATOM     30  C   UNL     1     -10.964   1.088  -0.542  0.00  0.00    +0.012 C 
ATOM     31  C   UNL     1     -10.279   1.939   1.730  0.00  0.00    +0.012 C 
ENDBRANCH  24  25
ENDBRANCH  10  20
ENDBRANCH  14   9
BRANCH  15   6
ATOM      6  O   UNL     1       2.628  -1.666   0.411  0.00  0.00    -0.442 OA
BRANCH   6  19
ATOM      8  O   UNL     1       2.926   0.176   1.733  0.00  0.00    -0.226 OA
ATOM     11  N   UNL     1       4.584  -0.554   0.250  0.00  0.00    -0.251 N 
ATOM     19  C   UNL     1       3.356  -0.593   0.882  0.00  0.00    +0.405 C 
ATOM     38  H   UNL     1       4.761  -1.286  -0.434  0.00  0.00    +0.158 HD
BRANCH  11  21
ATOM     21  C   UNL     1       5.630   0.378   0.436  0.00  0.00    +0.037 A 
ATOM     28  C   UNL     1       6.811   0.258  -0.296  0.00  0.00    +0.035 A 
ATOM     29  C   UNL     1       5.480   1.418   1.354  0.00  0.00    +0.023 A 
ATOM     32  C   UNL     1       7.843   1.178  -0.110  0.00  0.00    +0.057 A 
ATOM     33  C   UNL     1       6.512   2.338   1.539  0.00  0.00    +0.002 A 
ATOM     34  C   UNL     1       7.693   2.219   0.807  0.00  0.00    +0.012 A 
BRANCH  32  35
ATOM      1  F   UNL     1       9.758  -0.134  -0.686  0.00  0.00    -0.166 F 
ATOM      2  F   UNL     1      10.028   2.016  -0.606  0.00  0.00    -0.166 F 
ATOM      3  F   UNL     1       8.901   1.125  -2.239  0.00  0.00    -0.166 F 
ATOM     35  C   UNL     1       9.107   1.049  -0.891  0.00  0.00    +0.417 C 
ENDBRANCH  32  35
ENDBRANCH  11  21
ENDBRANCH   6  19
ENDBRANCH  15   6
TORSDOF 7
