REMARK  Name = 75536758
REMARK  6 active torsions:
REMARK  status: ('A' for Active; 'I' for Inactive)
REMARK    1  A    between atoms: O_2  and  C_10
REMARK    2  A    between atoms: N_5  and  C_9
REMARK    3  A    between atoms: N_5  and  C_14
REMARK    4  A    between atoms: N_6  and  C_13
REMARK    5  A    between atoms: C_11  and  C_13
REMARK    6  A    between atoms: C_14  and  C_18
REMARK                            x       y       z     vdW  Elec       q    Type
REMARK                         _______ _______ _______ _____ _____    ______ ____
ROOT
ATOM      1  O   UNL     1      -0.374   0.981  -0.166  0.00  0.00    -0.371 OA
ATOM      9  C   UNL     1       1.676  -0.210  -0.319  0.00  0.00    +0.111 C 
ATOM     10  C   UNL     1       0.737  -0.958   0.610  0.00  0.00    +0.164 C 
ATOM     11  C   UNL     1      -0.611  -0.394   0.181  0.00  0.00    +0.165 C 
ATOM     12  C   UNL     1       1.041   1.171  -0.340  0.00  0.00    +0.181 C 
ENDROOT
BRANCH  10   2
ATOM      2  O   UNL     1       0.801  -2.360   0.437  0.00  0.00    -0.388 OA
ATOM     27  H   UNL     1       0.614  -2.562  -0.495  0.00  0.00    +0.210 HD
ENDBRANCH  10   2
BRANCH   9   5
ATOM      5  N   UNL     1       3.056  -0.192   0.137  0.00  0.00    -0.305 NA
ATOM     25  H   UNL     1       3.319  -1.131   0.438  0.00  0.00    +0.123 HD
BRANCH   5  14
ATOM     14  C   UNL     1       3.956   0.231  -0.929  0.00  0.00    +0.118 C 
BRANCH  14  18
ATOM      8  N   UNL     1       7.581  -0.748  -0.450  0.00  0.00    -0.263 NA
ATOM     18  C   UNL     1       5.389   0.272  -0.470  0.00  0.00    -0.015 A 
ATOM     21  C   UNL     1       5.857   1.310   0.328  0.00  0.00    +0.008 A 
ATOM     22  C   UNL     1       6.284  -0.724  -0.829  0.00  0.00    +0.115 A 
ATOM     23  C   UNL     1       7.186   1.320   0.738  0.00  0.00    +0.020 A 
ATOM     24  C   UNL     1       8.000   0.278   0.325  0.00  0.00    +0.111 A 
ENDBRANCH  14  18
ENDBRANCH   5  14
ENDBRANCH   9   5
BRANCH  11  13
ATOM     13  C   UNL     1      -1.668  -0.474   1.267  0.00  0.00    +0.140 C 
BRANCH  13   6
ATOM      3  O   UNL     1      -7.669   1.046  -0.426  0.00  0.00    -0.377 OA
ATOM      4  O   UNL     1      -3.726  -1.913  -0.003  0.00  0.00    -0.253 OA
ATOM      6  N   UNL     1      -2.929   0.075   0.820  0.00  0.00    -0.297 N 
ATOM      7  N   UNL     1      -5.066  -0.028  -0.184  0.00  0.00    -0.281 N 
ATOM     15  C   UNL     1      -3.897  -0.706   0.199  0.00  0.00    +0.302 C 
ATOM     16  C   UNL     1      -6.136  -0.772  -0.853  0.00  0.00    +0.137 C 
ATOM     17  C   UNL     1      -5.287   1.424  -0.120  0.00  0.00    +0.137 C 
ATOM     19  C   UNL     1      -7.500  -0.368  -0.314  0.00  0.00    +0.179 C 
ATOM     20  C   UNL     1      -6.699   1.737   0.362  0.00  0.00    +0.179 C 
ATOM     26  H   UNL     1      -3.059   1.065   0.970  0.00  0.00    +0.150 HD
ENDBRANCH  13   6
ENDBRANCH  11  13
TORSDOF 6
