REMARK  Name = 45783427
REMARK  11 active torsions:
REMARK  status: ('A' for Active; 'I' for Inactive)
REMARK    1  A    between atoms: O_2  and  C_24
REMARK    2  A    between atoms: O_2  and  C_29
REMARK    3  A    between atoms: O_4  and  C_31
REMARK    4  A    between atoms: O_4  and  C_32
REMARK    5  A    between atoms: N_5  and  C_14
REMARK    6  A    between atoms: N_8  and  C_22
REMARK    7  A    between atoms: C_10  and  C_15
REMARK    8  A    between atoms: C_14  and  C_16
REMARK    9  A    between atoms: C_19  and  C_23
REMARK   10  A    between atoms: C_27  and  C_30
REMARK   11  A    between atoms: C_29  and  C_31
REMARK                            x       y       z     vdW  Elec       q    Type
REMARK                         _______ _______ _______ _____ _____    ______ ____
ROOT
ATOM      5  N   UNL     1      -3.329   0.640  -0.140  0.00  0.00    -0.287 NA
ATOM     10  C   UNL     1      -3.244  -0.086   1.143  0.00  0.00    +0.146 C 
ATOM     11  C   UNL     1      -4.205  -1.279   0.981  0.00  0.00    +0.030 C 
ATOM     12  C   UNL     1      -4.827  -1.104  -0.397  0.00  0.00    +0.017 C 
ATOM     13  C   UNL     1      -4.664   0.376  -0.677  0.00  0.00    +0.085 C 
ENDROOT
BRANCH  10  15
ATOM      1  O   UNL     1      -1.327  -0.073   2.659  0.00  0.00    -0.336 OA
ATOM      6  N   UNL     1      -1.004  -1.260   0.786  0.00  0.00    -0.190 NA
ATOM      7  N   UNL     1      -0.028  -0.590   2.744  0.00  0.00    -0.056 NA
ATOM     15  C   UNL     1      -1.831  -0.515   1.476  0.00  0.00    +0.245 A 
ATOM     19  C   UNL     1       0.088  -1.277   1.604  0.00  0.00    +0.207 A 
BRANCH  19  23
ATOM      9  N   UNL     1       2.780  -2.846  -0.441  0.00  0.00    -0.221 NA
ATOM     23  C   UNL     1       1.281  -1.993   1.253  0.00  0.00    +0.084 A 
ATOM     24  C   UNL     1       1.666  -2.179  -0.065  0.00  0.00    +0.226 A 
ATOM     25  C   UNL     1       2.091  -2.527   2.249  0.00  0.00    +0.018 A 
ATOM     26  C   UNL     1       3.246  -3.219   1.901  0.00  0.00    +0.021 A 
ATOM     28  C   UNL     1       3.543  -3.350   0.554  0.00  0.00    +0.114 A 
BRANCH  24   2
ATOM      2  O   UNL     1       0.899  -1.672  -1.083  0.00  0.00    -0.474 OA
BRANCH   2  29
ATOM     29  C   UNL     1       1.362  -1.904  -2.408  0.00  0.00    +0.258 C 
BRANCH  29  31
ATOM     31  C   UNL     1       0.379  -1.295  -3.389  0.00  0.00    +0.200 C 
BRANCH  31   4
ATOM      4  O   UNL     1      -0.890  -1.916  -3.221  0.00  0.00    -0.380 OA
ATOM     32  C   UNL     1      -1.859  -1.367  -4.104  0.00  0.00    +0.194 C 
ENDBRANCH  31   4
ENDBRANCH  29  31
ENDBRANCH   2  29
ENDBRANCH  24   2
ENDBRANCH  19  23
ENDBRANCH  10  15
BRANCH   5  14
ATOM     14  C   UNL     1      -3.062   2.067  -0.011  0.00  0.00    +0.120 C 
BRANCH  14  16
ATOM     16  C   UNL     1      -1.587   2.357   0.069  0.00  0.00    -0.033 A 
ATOM     17  C   UNL     1      -1.066   3.020   1.180  0.00  0.00    +0.007 A 
ATOM     18  C   UNL     1      -0.742   1.964  -0.969  0.00  0.00    +0.007 A 
ATOM     20  C   UNL     1       0.301   3.289   1.254  0.00  0.00    +0.023 A 
ATOM     21  C   UNL     1       0.625   2.233  -0.895  0.00  0.00    +0.023 A 
ATOM     22  C   UNL     1       1.146   2.896   0.216  0.00  0.00    +0.033 A 
BRANCH  22   8
ATOM      3  O   UNL     1       3.367   2.276  -1.720  0.00  0.00    -0.276 OA
ATOM      8  N   UNL     1       2.513   3.166   0.289  0.00  0.00    -0.286 N 
ATOM     27  C   UNL     1       3.508   2.851  -0.646  0.00  0.00    +0.214 C 
ATOM     30  C   UNL     1       4.869   3.316  -0.192  0.00  0.00    +0.109 C 
ATOM     33  H   UNL     1       2.815   3.652   1.131  0.00  0.00    +0.155 HD
ENDBRANCH  22   8
ENDBRANCH  14  16
ENDBRANCH   5  14
TORSDOF 9
