REMARK  Name = 45784112
REMARK  15 active torsions:
REMARK  status: ('A' for Active; 'I' for Inactive)
REMARK    1  A    between atoms: N_2  and  C_13
REMARK    2  A    between atoms: N_2  and  C_19
REMARK    3  A    between atoms: C_6  and  C_10
REMARK    4  A    between atoms: C_7  and  C_13
REMARK    5  A    between atoms: C_9  and  C_14
REMARK    6  A    between atoms: C_10  and  C_15
REMARK    7  A    between atoms: C_10  and  C_16
REMARK    8  A    between atoms: C_11  and  C_17
REMARK    9  A    between atoms: C_14  and  C_18
REMARK   10  A    between atoms: C_19  and  C_22
REMARK   11  A    between atoms: C_20  and  C_21
REMARK   12  A    between atoms: C_21  and  C_23
REMARK   13  A    between atoms: C_21  and  C_24
REMARK   14  A    between atoms: C_21  and  C_25
REMARK   15  A    between atoms: C_30  and  C_31
REMARK                            x       y       z     vdW  Elec       q    Type
REMARK                         _______ _______ _______ _____ _____    ______ ____
ROOT
ATOM      6  C   UNL     1       1.302  -1.901   0.898  0.00  0.00    +0.000 C 
ATOM      7  C   UNL     1       2.326  -2.561  -0.054  0.00  0.00    +0.029 C 
ATOM      8  C   UNL     1       0.265  -1.100   0.099  0.00  0.00    +0.012 C 
ATOM      9  C   UNL     1      -0.483  -1.945  -0.954  0.00  0.00    +0.024 C 
ATOM     11  C   UNL     1       0.419  -2.939  -1.669  0.00  0.00    -0.073 C 
ATOM     12  C   UNL     1       1.675  -3.192  -1.259  0.00  0.00    -0.023 C 
ATOM     17  C   UNL     1      -0.163  -3.690  -2.836  0.00  0.00    +0.039 C 
ENDROOT
BRANCH   6  10
ATOM     10  C   UNL     1       0.625  -2.942   1.800  0.00  0.00    -0.013 C 
ATOM     15  C   UNL     1       1.672  -3.751   2.558  0.00  0.00    +0.007 C 
ATOM     16  C   UNL     1      -0.338  -2.261   2.767  0.00  0.00    +0.007 C 
ENDBRANCH   6  10
BRANCH   7  13
ATOM     13  C   UNL     1       3.390  -1.563  -0.521  0.00  0.00    +0.089 C 
BRANCH  13   2
ATOM      2  N   UNL     1       4.056  -0.953   0.616  0.00  0.00    -0.311 NA
ATOM     32  H   UNL     1       4.752  -1.602   0.983  0.00  0.00    +0.122 HD
BRANCH   2  19
ATOM     19  C   UNL     1       4.698   0.301   0.238  0.00  0.00    +0.116 C 
BRANCH  19  22
ATOM     22  C   UNL     1       3.711   1.434   0.158  0.00  0.00    -0.034 A 
ATOM     26  C   UNL     1       3.550   2.137  -1.036  0.00  0.00    +0.006 A 
ATOM     27  C   UNL     1       2.956   1.782   1.279  0.00  0.00    +0.006 A 
ATOM     28  C   UNL     1       2.635   3.187  -1.110  0.00  0.00    +0.019 A 
ATOM     29  C   UNL     1       2.041   2.833   1.205  0.00  0.00    +0.019 A 
ATOM     30  C   UNL     1       1.881   3.535   0.010  0.00  0.00    +0.052 A 
BRANCH  30  31
ATOM      5  N   UNL     1       0.182   5.485  -0.128  0.00  0.00    -0.191 NA
ATOM     31  C   UNL     1       0.944   4.611  -0.066  0.00  0.00    +0.099 C 
ENDBRANCH  30  31
ENDBRANCH  19  22
ENDBRANCH   2  19
ENDBRANCH  13   2
ENDBRANCH   7  13
BRANCH   9  14
ATOM     14  C   UNL     1      -1.209  -0.998  -1.917  0.00  0.00    +0.105 C 
BRANCH  14  18
ATOM      1  O   UNL     1      -3.270  -0.522  -0.700  0.00  0.00    -0.424 OA
ATOM      3  N   UNL     1      -1.904   1.237  -0.909  0.00  0.00    -0.112 NA
ATOM      4  N   UNL     1      -3.022   1.645  -0.206  0.00  0.00    -0.112 NA
ATOM     18  C   UNL     1      -2.092  -0.034  -1.177  0.00  0.00    +0.218 A 
ATOM     20  C   UNL     1      -3.791   0.587  -0.107  0.00  0.00    +0.223 A 
BRANCH  20  21
ATOM     21  C   UNL     1      -5.101   0.439   0.540  0.00  0.00    +0.040 C 
ATOM     23  C   UNL     1      -5.592   1.780   1.188  0.00  0.00    +0.020 C 
ATOM     24  C   UNL     1      -5.074  -0.632   1.686  0.00  0.00    +0.020 C 
ATOM     25  C   UNL     1      -6.290  -0.008  -0.392  0.00  0.00    +0.020 C 
ENDBRANCH  20  21
ENDBRANCH  14  18
ENDBRANCH   9  14
TORSDOF 9
