REMARK  Name = 51136852
REMARK  5 active torsions:
REMARK  status: ('A' for Active; 'I' for Inactive)
REMARK    1  A    between atoms: N_4  and  C_14
REMARK    2  A    between atoms: N_6  and  C_25
REMARK    3  A    between atoms: C_10  and  C_15
REMARK    4  A    between atoms: C_14  and  C_16
REMARK    5  A    between atoms: C_22  and  C_26
REMARK                            x       y       z     vdW  Elec       q    Type
REMARK                         _______ _______ _______ _____ _____    ______ ____
ROOT
ATOM      3  O   UNL     1      -2.563  -0.849   2.038  0.00  0.00    -0.336 OA
ATOM      7  N   UNL     1      -1.560  -1.403   0.114  0.00  0.00    -0.190 NA
ATOM      8  N   UNL     1      -1.207  -0.540   2.204  0.00  0.00    -0.056 NA
ATOM     15  C   UNL     1      -2.685  -1.352   0.782  0.00  0.00    +0.245 A 
ATOM     22  C   UNL     1      -0.682  -0.895   1.027  0.00  0.00    +0.204 A 
ENDROOT
BRANCH  22  26
ATOM      5  N   UNL     1       4.747  -0.320  -0.030  0.00  0.00    -0.313 N 
ATOM      6  N   UNL     1       7.577  -0.091  -0.339  0.00  0.00    -0.302 NA
ATOM      9  N   UNL     1       2.919  -0.080   1.455  0.00  0.00    -0.240 NA
ATOM     17  C   UNL     1       5.547  -1.502  -0.364  0.00  0.00    +0.122 C 
ATOM     18  C   UNL     1       5.473   0.773   0.628  0.00  0.00    +0.122 C 
ATOM     19  C   UNL     1       6.825  -1.094  -1.102  0.00  0.00    +0.103 C 
ATOM     20  C   UNL     1       6.753   1.108  -0.142  0.00  0.00    +0.103 C 
ATOM     21  C   UNL     1       3.382  -0.461   0.243  0.00  0.00    +0.121 A 
ATOM     25  C   UNL     1       8.822   0.251  -1.027  0.00  0.00    +0.105 C 
ATOM     26  C   UNL     1       0.714  -0.756   0.732  0.00  0.00    +0.041 A 
ATOM     27  C   UNL     1       2.585  -0.990  -0.760  0.00  0.00    +0.044 A 
ATOM     28  C   UNL     1       1.227  -1.137  -0.503  0.00  0.00    +0.016 A 
ATOM     29  C   UNL     1       1.594  -0.238   1.669  0.00  0.00    +0.124 A 
ENDBRANCH  22  26
BRANCH  15  10
ATOM      4  N   UNL     1      -4.526  -1.070  -0.869  0.00  0.00    -0.287 NA
ATOM     10  C   UNL     1      -4.076  -1.768   0.353  0.00  0.00    +0.146 C 
ATOM     11  C   UNL     1      -4.168  -3.265   0.004  0.00  0.00    +0.030 C 
ATOM     12  C   UNL     1      -4.736  -3.310  -1.408  0.00  0.00    +0.017 C 
ATOM     13  C   UNL     1      -5.447  -1.980  -1.549  0.00  0.00    +0.085 C 
BRANCH   4  14
ATOM     14  C   UNL     1      -5.134   0.226  -0.598  0.00  0.00    +0.120 C 
BRANCH  14  16
ATOM      1  F   UNL     1      -1.282   2.842  -2.060  0.00  0.00    -0.202 F 
ATOM      2  F   UNL     1      -1.260   4.217   0.304  0.00  0.00    -0.202 F 
ATOM     16  C   UNL     1      -4.099   1.293  -0.357  0.00  0.00    -0.030 A 
ATOM     23  C   UNL     1      -3.151   1.579  -1.339  0.00  0.00    +0.046 A 
ATOM     24  C   UNL     1      -4.088   1.994   0.849  0.00  0.00    +0.008 A 
ATOM     30  C   UNL     1      -2.192   2.567  -1.116  0.00  0.00    +0.159 A 
ATOM     31  C   UNL     1      -3.129   2.982   1.072  0.00  0.00    +0.041 A 
ATOM     32  C   UNL     1      -2.181   3.268   0.089  0.00  0.00    +0.158 A 
ENDBRANCH  14  16
ENDBRANCH   4  14
ENDBRANCH  15  10
TORSDOF 4
