REMARK  Name = 26742466
REMARK  6 active torsions:
REMARK  status: ('A' for Active; 'I' for Inactive)
REMARK    1  A    between atoms: N_4  and  C_15
REMARK    2  A    between atoms: N_6  and  C_18
REMARK    3  A    between atoms: C_9  and  C_16
REMARK    4  A    between atoms: C_10  and  C_15
REMARK    5  A    between atoms: C_20  and  C_27
REMARK    6  A    between atoms: C_23  and  C_28
REMARK                            x       y       z     vdW  Elec       q    Type
REMARK                         _______ _______ _______ _____ _____    ______ ____
ROOT
ATOM      3  N   UNL     1      -0.070  -2.853   0.682  0.00  0.00    -0.297 NA
ATOM      8  C   UNL     1       0.445  -1.911  -1.691  0.00  0.00    +0.002 C 
ATOM      9  C   UNL     1       1.714  -1.853  -0.796  0.00  0.00    +0.055 C 
ATOM     10  C   UNL     1      -1.097  -1.849   0.300  0.00  0.00    +0.074 C 
ATOM     11  C   UNL     1      -0.698  -1.131  -1.007  0.00  0.00    +0.024 C 
ATOM     12  C   UNL     1       0.011  -3.391  -1.752  0.00  0.00    +0.019 C 
ATOM     13  C   UNL     1       1.281  -2.237   0.648  0.00  0.00    +0.094 C 
ATOM     14  C   UNL     1      -0.106  -3.944  -0.321  0.00  0.00    +0.085 C 
ENDROOT
BRANCH   9  16
ATOM      5  N   UNL     1       2.129   0.409  -1.631  0.00  0.00    -0.237 NA
ATOM      7  N   UNL     1       4.032   1.708  -0.926  0.00  0.00    -0.229 NA
ATOM     16  C   UNL     1       2.558  -0.587  -0.828  0.00  0.00    +0.050 A 
ATOM     17  C   UNL     1       3.698  -0.511  -0.054  0.00  0.00    +0.055 A 
ATOM     20  C   UNL     1       4.403   0.672  -0.144  0.00  0.00    +0.110 A 
ATOM     23  C   UNL     1       2.902   1.511  -1.631  0.00  0.00    +0.127 A 
ATOM     28  C   UNL     1       2.460   2.635  -2.506  0.00  0.00    +0.088 C 
BRANCH  20  27
ATOM      2  O   UNL     1       6.205   2.095   0.425  0.00  0.00    -0.461 OA
ATOM     27  C   UNL     1       5.611   0.886   0.607  0.00  0.00    +0.153 A 
ATOM     29  C   UNL     1       6.331   0.123   1.498  0.00  0.00    +0.051 A 
ATOM     30  C   UNL     1       7.437   0.915   1.888  0.00  0.00    +0.042 A 
ATOM     31  C   UNL     1       7.315   2.104   1.208  0.00  0.00    +0.196 A 
ENDBRANCH  20  27
ENDBRANCH   9  16
BRANCH  10  15
ATOM     15  C   UNL     1      -1.391  -0.858   1.428  0.00  0.00    +0.124 C 
BRANCH  15   4
ATOM      1  O   UNL     1      -4.194  -1.284   1.906  0.00  0.00    -0.253 OA
ATOM      4  N   UNL     1      -2.463   0.019   1.071  0.00  0.00    -0.298 N 
ATOM      6  N   UNL     1      -4.646   0.754   0.890  0.00  0.00    -0.297 N 
ATOM     19  C   UNL     1      -3.808  -0.262   1.340  0.00  0.00    +0.300 C 
ATOM     32  H   UNL     1      -2.238   0.888   0.596  0.00  0.00    +0.150 HD
ATOM     33  H   UNL     1      -4.228   1.519   0.370  0.00  0.00    +0.151 HD
BRANCH   6  18
ATOM     18  C   UNL     1      -6.084   0.718   1.040  0.00  0.00    +0.074 C 
ATOM     21  C   UNL     1      -6.654   2.129   1.221  0.00  0.00    +0.022 C 
ATOM     22  C   UNL     1      -6.744  -0.000  -0.142  0.00  0.00    +0.022 C 
ATOM     24  C   UNL     1      -6.605   2.949  -0.068  0.00  0.00    +0.002 C 
ATOM     25  C   UNL     1      -6.694   0.824  -1.429  0.00  0.00    +0.002 C 
ATOM     26  C   UNL     1      -7.278   2.219  -1.226  0.00  0.00    +0.000 C 
ENDBRANCH   6  18
ENDBRANCH  15   4
ENDBRANCH  10  15
TORSDOF 5
