REMARK  Name = 40533517
REMARK  5 active torsions:
REMARK  status: ('A' for Active; 'I' for Inactive)
REMARK    1  A    between atoms: N_2  and  C_13
REMARK    2  A    between atoms: C_13  and  C_18
REMARK    3  A    between atoms: C_16  and  C_19
REMARK    4  A    between atoms: C_26  and  C_29
REMARK    5  A    between atoms: C_27  and  C_32
REMARK                            x       y       z     vdW  Elec       q    Type
REMARK                         _______ _______ _______ _____ _____    ______ ____
ROOT
ATOM      1  O   UNL     1       3.552   0.301   1.382  0.00  0.00    -0.267 OA
ATOM      2  N   UNL     1      -0.302   3.416   0.606  0.00  0.00    -0.297 NA
ATOM      3  N   UNL     1       2.458   1.903   0.088  0.00  0.00    -0.311 N 
ATOM      6  C   UNL     1       2.027   4.291   0.914  0.00  0.00    +0.024 C 
ATOM      7  C   UNL     1       1.276   3.623  -1.319  0.00  0.00    +0.050 C 
ATOM      8  C   UNL     1       2.106   4.657  -0.562  0.00  0.00    +0.017 C 
ATOM      9  C   UNL     1       0.558   4.313   1.387  0.00  0.00    +0.090 C 
ATOM     10  C   UNL     1      -0.190   3.684  -0.835  0.00  0.00    +0.094 C 
ATOM     11  C   UNL     1       2.692   2.923   1.120  0.00  0.00    +0.130 C 
ATOM     12  C   UNL     1       1.843   2.230  -1.123  0.00  0.00    +0.026 A 
ATOM     14  C   UNL     1       1.740   1.310  -2.095  0.00  0.00    +0.022 A 
ATOM     15  C   UNL     1       2.974   0.617   0.341  0.00  0.00    +0.259 A 
ATOM     16  C   UNL     1       2.812  -0.403  -0.755  0.00  0.00    +0.047 A 
ATOM     17  C   UNL     1       2.228  -0.026  -1.902  0.00  0.00    +0.015 A 
ENDROOT
BRANCH  16  19
ATOM     19  C   UNL     1       3.275  -1.791  -0.581  0.00  0.00    -0.011 A 
ATOM     24  C   UNL     1       2.753  -2.577   0.447  0.00  0.00    +0.027 A 
ATOM     25  C   UNL     1       4.234  -2.319  -1.445  0.00  0.00    +0.009 A 
ATOM     27  C   UNL     1       3.191  -3.891   0.610  0.00  0.00    +0.052 A 
ATOM     28  C   UNL     1       4.671  -3.633  -1.282  0.00  0.00    +0.002 A 
ATOM     30  C   UNL     1       4.150  -4.420  -0.254  0.00  0.00    +0.019 A 
BRANCH  27  32
ATOM      5  N   UNL     1       2.224  -5.352   2.518  0.00  0.00    -0.191 NA
ATOM     32  C   UNL     1       2.657  -4.697   1.663  0.00  0.00    +0.099 C 
ENDBRANCH  27  32
ENDBRANCH  16  19
BRANCH   2  13
ATOM     13  C   UNL     1      -1.691   3.505   1.049  0.00  0.00    +0.119 C 
BRANCH  13  18
ATOM     18  C   UNL     1      -2.463   2.252   0.730  0.00  0.00    -0.033 A 
ATOM     20  C   UNL     1      -2.040   1.024   1.238  0.00  0.00    +0.005 A 
ATOM     21  C   UNL     1      -3.601   2.319  -0.074  0.00  0.00    +0.005 A 
ATOM     22  C   UNL     1      -2.755  -0.137   0.943  0.00  0.00    +0.010 A 
ATOM     23  C   UNL     1      -4.316   1.158  -0.370  0.00  0.00    +0.010 A 
ATOM     26  C   UNL     1      -3.892  -0.070   0.139  0.00  0.00    +0.000 A 
BRANCH  26  29
ATOM      4  N   UNL     1      -5.923  -1.271   0.240  0.00  0.00    -0.255 NA
ATOM     29  C   UNL     1      -4.634  -1.274  -0.168  0.00  0.00    +0.071 A 
ATOM     31  C   UNL     1      -4.034  -2.332  -0.833  0.00  0.00    +0.028 A 
ATOM     33  C   UNL     1      -4.806  -3.458  -1.095  0.00  0.00    +0.004 A 
ATOM     34  C   UNL     1      -6.642  -2.382  -0.032  0.00  0.00    +0.111 A 
ATOM     35  C   UNL     1      -6.136  -3.492  -0.690  0.00  0.00    +0.020 A 
ENDBRANCH  26  29
ENDBRANCH  13  18
ENDBRANCH   2  13
TORSDOF 5
