REMARK  Name = 44716331
REMARK  5 active torsions:
REMARK  status: ('A' for Active; 'I' for Inactive)
REMARK    1  A    between atoms: N_3  and  C_17
REMARK    2  A    between atoms: N_4  and  C_14
REMARK    3  A    between atoms: C_7  and  C_13
REMARK    4  A    between atoms: C_8  and  C_14
REMARK    5  A    between atoms: C_16  and  C_18
REMARK                            x       y       z     vdW  Elec       q    Type
REMARK                         _______ _______ _______ _____ _____    ______ ____
ROOT
ATOM      2  N   UNL     1      -3.385   0.438   1.071  0.00  0.00    -0.298 NA
ATOM      6  C   UNL     1      -2.395  -0.885  -0.942  0.00  0.00    +0.002 C 
ATOM      7  C   UNL     1      -1.520  -1.088   0.326  0.00  0.00    +0.055 C 
ATOM      8  C   UNL     1      -3.274   1.326  -0.116  0.00  0.00    +0.070 C 
ATOM      9  C   UNL     1      -2.501   0.623  -1.252  0.00  0.00    +0.024 C 
ATOM     10  C   UNL     1      -3.815  -1.376  -0.586  0.00  0.00    +0.019 C 
ATOM     11  C   UNL     1      -2.053  -0.117   1.418  0.00  0.00    +0.094 C 
ATOM     12  C   UNL     1      -4.277  -0.691   0.711  0.00  0.00    +0.085 C 
ENDROOT
BRANCH   7  13
ATOM      3  N   UNL     1       0.767  -2.097  -0.115  0.00  0.00    -0.270 N 
ATOM      5  N   UNL     1       2.079  -1.820  -0.204  0.00  0.00    -0.171 NA
ATOM     13  C   UNL     1      -0.007  -1.012   0.175  0.00  0.00    +0.044 A 
ATOM     15  C   UNL     1       0.859   0.049   0.282  0.00  0.00    +0.053 A 
ATOM     16  C   UNL     1       2.129  -0.507   0.039  0.00  0.00    +0.100 A 
ATOM     17  C   UNL     1       0.317  -3.454  -0.324  0.00  0.00    +0.172 C 
BRANCH  16  18
ATOM      1  S   UNL     1       4.922  -0.495  -0.263  0.00  0.00    -0.095 S 
ATOM     18  C   UNL     1       3.403   0.234   0.040  0.00  0.00    +0.039 A 
ATOM     19  C   UNL     1       3.517   1.585   0.282  0.00  0.00    +0.018 A 
ATOM     20  C   UNL     1       4.870   2.027   0.218  0.00  0.00    +0.008 A 
ATOM     21  C   UNL     1       5.738   0.998  -0.071  0.00  0.00    +0.046 A 
ENDBRANCH  16  18
ENDBRANCH   7  13
BRANCH   8  14
ATOM     14  C   UNL     1      -2.666   2.687   0.230  0.00  0.00    +0.096 C 
BRANCH  14   4
ATOM      4  N   UNL     1      -2.707   3.578  -0.918  0.00  0.00    -0.329 NA
ATOM     22  H   UNL     1      -2.310   4.480  -0.661  0.00  0.00    +0.118 HD
ATOM     23  H   UNL     1      -2.119   3.216  -1.668  0.00  0.00    +0.118 HD
ENDBRANCH  14   4
ENDBRANCH   8  14
TORSDOF 4
