REMARK  Name = 71693321
REMARK  12 active torsions:
REMARK  status: ('A' for Active; 'I' for Inactive)
REMARK    1  A    between atoms: O_2  and  C_11
REMARK    2  A    between atoms: N_5  and  C_9
REMARK    3  A    between atoms: N_6  and  C_21
REMARK    4  A    between atoms: C_7  and  C_11
REMARK    5  A    between atoms: C_8  and  C_13
REMARK    6  A    between atoms: C_9  and  C_10
REMARK    7  A    between atoms: C_10  and  C_15
REMARK    8  A    between atoms: C_10  and  C_16
REMARK    9  A    between atoms: C_22  and  C_23
REMARK   10  A    between atoms: C_22  and  C_25
REMARK   11  A    between atoms: C_22  and  C_26
REMARK   12  A    between atoms: C_23  and  C_24
REMARK                            x       y       z     vdW  Elec       q    Type
REMARK                         _______ _______ _______ _____ _____    ______ ____
ROOT
ATOM      1  O   UNL     1       2.069   1.762   0.958  0.00  0.00    -0.361 OA
ATOM      3  O   UNL     1       5.588   1.425   0.512  0.00  0.00    -0.273 OA
ATOM      5  N   UNL     1       3.875   0.068  -0.297  0.00  0.00    -0.291 N 
ATOM      7  C   UNL     1       2.421  -0.222  -0.351  0.00  0.00    +0.135 C 
ATOM      8  C   UNL     1       1.590   1.067  -0.194  0.00  0.00    +0.171 C 
ATOM     12  C   UNL     1       4.389   1.204   0.331  0.00  0.00    +0.242 C 
ATOM     14  C   UNL     1       3.372   2.249   0.742  0.00  0.00    +0.256 C 
ENDROOT
BRANCH   8  13
ATOM     13  C   UNL     1       0.109   0.830   0.015  0.00  0.00    -0.017 A 
ATOM     17  C   UNL     1      -0.328   0.030   1.070  0.00  0.00    +0.008 A 
ATOM     18  C   UNL     1      -0.819   1.414  -0.849  0.00  0.00    +0.008 A 
ATOM     19  C   UNL     1      -1.692  -0.187   1.262  0.00  0.00    +0.023 A 
ATOM     20  C   UNL     1      -2.183   1.197  -0.656  0.00  0.00    +0.023 A 
ATOM     21  C   UNL     1      -2.620   0.397   0.399  0.00  0.00    +0.033 A 
BRANCH  21   6
ATOM      4  O   UNL     1      -4.987   1.424  -1.133  0.00  0.00    -0.275 OA
ATOM      6  N   UNL     1      -3.985   0.179   0.592  0.00  0.00    -0.285 N 
ATOM     24  C   UNL     1      -5.059   0.677  -0.164  0.00  0.00    +0.217 C 
ATOM     28  H   UNL     1      -4.213  -0.397   1.399  0.00  0.00    +0.155 HD
BRANCH  24  23
ATOM     23  C   UNL     1      -6.395   0.195   0.392  0.00  0.00    +0.099 C 
BRANCH  23  22
ATOM     22  C   UNL     1      -6.540  -1.335   0.424  0.00  0.00    -0.008 C 
ATOM     25  C   UNL     1      -7.881  -1.754   1.033  0.00  0.00    +0.008 C 
ATOM     26  C   UNL     1      -6.415  -1.905  -0.990  0.00  0.00    +0.008 C 
ENDBRANCH  23  22
ENDBRANCH  24  23
ENDBRANCH  21   6
ENDBRANCH   8  13
BRANCH   5   9
ATOM      9  C   UNL     1       4.801  -0.987  -0.703  0.00  0.00    +0.111 C 
BRANCH   9  10
ATOM     10  C   UNL     1       4.984  -2.051   0.385  0.00  0.00    +0.000 C 
ATOM     15  C   UNL     1       5.538  -1.409   1.658  0.00  0.00    +0.009 C 
ATOM     16  C   UNL     1       5.912  -3.177  -0.078  0.00  0.00    +0.009 C 
ENDBRANCH   9  10
ENDBRANCH   5   9
BRANCH   7  11
ATOM     11  C   UNL     1       2.017  -0.973  -1.628  0.00  0.00    +0.181 C 
BRANCH  11   2
ATOM      2  O   UNL     1       2.240  -0.118  -2.731  0.00  0.00    -0.393 OA
ATOM     27  H   UNL     1       1.960  -0.598  -3.529  0.00  0.00    +0.209 HD
ENDBRANCH  11   2
ENDBRANCH   7  11
TORSDOF 8
