REMARK  Name = 11882950
REMARK  13 active torsions:
REMARK  status: ('A' for Active; 'I' for Inactive)
REMARK    1  A    between atoms: O_2  and  C_15
REMARK    2  A    between atoms: O_3  and  C_20
REMARK    3  A    between atoms: O_6  and  C_30
REMARK    4  A    between atoms: O_6  and  C_32
REMARK    5  A    between atoms: N_8  and  C_26
REMARK    6  A    between atoms: N_8  and  C_27
REMARK    7  A    between atoms: C_10  and  C_18
REMARK    8  A    between atoms: C_12  and  C_20
REMARK    9  A    between atoms: C_12  and  C_21
REMARK   10  A    between atoms: C_13  and  C_23
REMARK   11  A    between atoms: C_23  and  C_24
REMARK   12  A    between atoms: C_26  and  C_29
REMARK   13  A    between atoms: C_28  and  C_30
REMARK                            x       y       z     vdW  Elec       q    Type
REMARK                         _______ _______ _______ _____ _____    ______ ____
ROOT
ATOM      1  S   UNL     1      -0.450   2.815  -0.005  0.00  0.00    -0.057 S 
ATOM      5  O   UNL     1       2.941  -0.322  -0.649  0.00  0.00    -0.272 OA
ATOM      7  N   UNL     1       0.054   0.298  -0.328  0.00  0.00    -0.229 NA
ATOM      9  N   UNL     1       1.944   1.794  -0.325  0.00  0.00    -0.262 N 
ATOM     10  C   UNL     1      -3.681  -0.401   0.325  0.00  0.00    -0.019 C 
ATOM     11  C   UNL     1      -4.131   0.994  -0.296  0.00  0.00    +0.011 C 
ATOM     12  C   UNL     1      -5.663   1.359  -0.200  0.00  0.00    +0.021 C 
ATOM     13  C   UNL     1      -2.236  -0.756  -0.257  0.00  0.00    +0.054 C 
ATOM     14  C   UNL     1      -4.673  -1.507  -0.118  0.00  0.00    +0.010 C 
ATOM     15  C   UNL     1      -6.511   0.131  -0.634  0.00  0.00    +0.123 C 
ATOM     16  C   UNL     1      -3.183   2.147   0.146  0.00  0.00    +0.049 C 
ATOM     17  C   UNL     1      -6.135  -1.150   0.103  0.00  0.00    +0.032 C 
ATOM     18  C   UNL     1      -3.621  -0.379   1.873  0.00  0.00    +0.012 C 
ATOM     19  C   UNL     1      -1.314   0.433  -0.183  0.00  0.00    +0.058 A 
ATOM     21  C   UNL     1      -5.973   2.511  -1.198  0.00  0.00    +0.016 C 
ATOM     22  C   UNL     1      -1.761   1.729  -0.020  0.00  0.00    +0.015 A 
ATOM     25  C   UNL     1       0.612   1.486  -0.243  0.00  0.00    +0.165 A 
ATOM     28  C   UNL     1       3.009   0.895  -0.518  0.00  0.00    +0.256 C 
ATOM     40  H   UNL     1       2.163   2.783  -0.234  0.00  0.00    +0.157 HD
ENDROOT
BRANCH  15   2
ATOM      2  O   UNL     1      -7.901   0.384  -0.436  0.00  0.00    -0.391 OA
ATOM     38  H   UNL     1      -8.202   0.979  -1.143  0.00  0.00    +0.210 HD
ENDBRANCH  15   2
BRANCH  12  20
ATOM     20  C   UNL     1      -6.113   1.877   1.184  0.00  0.00    +0.165 C 
BRANCH  20   3
ATOM      3  O   UNL     1      -7.490   2.169   1.109  0.00  0.00    -0.394 OA
ATOM     39  H   UNL     1      -7.588   3.084   0.796  0.00  0.00    +0.209 HD
ENDBRANCH  20   3
ENDBRANCH  12  20
BRANCH  13  23
ATOM     23  C   UNL     1      -1.591  -2.006   0.356  0.00  0.00    +0.106 C 
BRANCH  23  24
ATOM      4  O   UNL     1      -0.126  -2.133  -1.537  0.00  0.00    -0.276 OA
ATOM      8  N   UNL     1       0.656  -3.025   0.456  0.00  0.00    -0.301 N 
ATOM     24  C   UNL     1      -0.299  -2.385  -0.342  0.00  0.00    +0.216 C 
ATOM     27  C   UNL     1       0.429  -3.313   1.867  0.00  0.00    +0.132 C 
BRANCH   8  26
ATOM     26  C   UNL     1       1.952  -3.453  -0.066  0.00  0.00    +0.134 C 
BRANCH  26  29
ATOM     29  C   UNL     1       1.833  -4.848  -0.584  0.00  0.00    -0.016 C 
ATOM     31  C   UNL     1       2.565  -5.875  -0.137  0.00  0.00    +0.005 C 
ENDBRANCH  26  29
ENDBRANCH   8  26
ENDBRANCH  23  24
ENDBRANCH  13  23
BRANCH  28  30
ATOM     30  C   UNL     1       4.343   1.620  -0.554  0.00  0.00    +0.324 C 
BRANCH  30   6
ATOM      6  O   UNL     1       5.404   0.713  -0.762  0.00  0.00    -0.483 OA
BRANCH   6  32
ATOM     32  C   UNL     1       6.624   1.038  -0.218  0.00  0.00    +0.121 A 
ATOM     33  C   UNL     1       6.972   2.374  -0.071  0.00  0.00    +0.045 A 
ATOM     34  C   UNL     1       7.489   0.027   0.175  0.00  0.00    +0.045 A 
ATOM     35  C   UNL     1       8.210   2.704   0.480  0.00  0.00    +0.004 A 
ATOM     36  C   UNL     1       8.727   0.357   0.726  0.00  0.00    +0.004 A 
ATOM     37  C   UNL     1       9.088   1.696   0.879  0.00  0.00    +0.000 A 
ENDBRANCH   6  32
ENDBRANCH  30   6
ENDBRANCH  28  30
TORSDOF 10
