REMARK  Name = 45361654
REMARK  13 active torsions:
REMARK  status: ('A' for Active; 'I' for Inactive)
REMARK    1  A    between atoms: O_1  and  C_11
REMARK    2  A    between atoms: O_4  and  C_32
REMARK    3  A    between atoms: O_4  and  C_33
REMARK    4  A    between atoms: N_5  and  C_15
REMARK    5  A    between atoms: N_6  and  C_24
REMARK    6  A    between atoms: N_7  and  C_25
REMARK    7  A    between atoms: C_8  and  C_18
REMARK    8  A    between atoms: C_10  and  C_20
REMARK    9  A    between atoms: C_14  and  C_19
REMARK   10  A    between atoms: C_19  and  C_21
REMARK   11  A    between atoms: C_19  and  C_22
REMARK   12  A    between atoms: C_24  and  C_26
REMARK   13  A    between atoms: C_25  and  C_27
REMARK                            x       y       z     vdW  Elec       q    Type
REMARK                         _______ _______ _______ _____ _____    ______ ____
ROOT
ATOM      8  C   UNL     1      -1.091   0.188   1.288  0.00  0.00    -0.027 C 
ATOM      9  C   UNL     1      -1.548  -0.700   0.083  0.00  0.00    +0.028 C 
ATOM     10  C   UNL     1      -3.099  -0.946   0.127  0.00  0.00    +0.012 C 
ATOM     11  C   UNL     1      -0.671  -1.979  -0.038  0.00  0.00    +0.122 C 
ATOM     12  C   UNL     1       0.417   0.505   1.153  0.00  0.00    +0.007 C 
ATOM     13  C   UNL     1      -1.859   1.530   1.246  0.00  0.00    +0.009 C 
ATOM     14  C   UNL     1       0.842  -1.662  -0.068  0.00  0.00    +0.029 C 
ATOM     15  C   UNL     1      -3.859   0.410   0.160  0.00  0.00    +0.078 C 
ATOM     16  C   UNL     1       1.282  -0.746   1.073  0.00  0.00    +0.007 C 
ATOM     17  C   UNL     1      -3.371   1.353   1.259  0.00  0.00    +0.023 C 
ATOM     18  C   UNL     1      -1.335  -0.496   2.657  0.00  0.00    +0.011 C 
ATOM     20  C   UNL     1      -3.622  -1.790  -1.048  0.00  0.00    +0.010 C 
ENDROOT
BRANCH  15   5
ATOM      3  O   UNL     1      -5.960   2.077  -0.904  0.00  0.00    -0.253 OA
ATOM      5  N   UNL     1      -5.286   0.222   0.317  0.00  0.00    -0.296 N 
ATOM      7  N   UNL     1      -7.524   0.667   0.071  0.00  0.00    -0.300 N 
ATOM     23  C   UNL     1      -6.230   1.081  -0.234  0.00  0.00    +0.300 C 
ATOM     34  H   UNL     1      -5.610  -0.527   0.922  0.00  0.00    +0.151 HD
ATOM     37  H   UNL     1      -7.650  -0.177   0.620  0.00  0.00    +0.150 HD
BRANCH   7  25
ATOM     25  C   UNL     1      -8.699   1.377  -0.377  0.00  0.00    +0.102 C 
ATOM     27  C   UNL     1      -9.033   1.045  -1.816  0.00  0.00    +0.024 C 
ENDBRANCH   7  25
ENDBRANCH  15   5
BRANCH  11   1
ATOM      1  O   UNL     1      -0.972  -2.649  -1.264  0.00  0.00    -0.391 OA
ATOM     35  H   UNL     1      -0.784  -2.038  -1.996  0.00  0.00    +0.210 HD
ENDBRANCH  11   1
BRANCH  14  19
ATOM     19  C   UNL     1       1.691  -2.939  -0.056  0.00  0.00    +0.077 C 
ATOM     21  C   UNL     1       1.393  -3.756   1.196  0.00  0.00    +0.017 C 
BRANCH  19  22
ATOM      2  O   UNL     1       3.989  -2.911   0.709  0.00  0.00    -0.276 OA
ATOM      6  N   UNL     1       3.472  -1.852  -1.289  0.00  0.00    -0.311 N 
ATOM     22  C   UNL     1       3.171  -2.581  -0.148  0.00  0.00    +0.216 C 
ATOM     36  H   UNL     1       2.748  -1.665  -1.976  0.00  0.00    +0.149 HD
BRANCH   6  24
ATOM     24  C   UNL     1       4.808  -1.396  -1.595  0.00  0.00    +0.139 C 
BRANCH  24  26
ATOM     26  C   UNL     1       5.081  -0.035  -1.024  0.00  0.00    -0.030 A 
ATOM     28  C   UNL     1       4.534   1.098  -1.626  0.00  0.00    +0.009 A 
ATOM     29  C   UNL     1       5.882   0.097   0.111  0.00  0.00    +0.009 A 
ATOM     30  C   UNL     1       4.788   2.363  -1.095  0.00  0.00    +0.046 A 
ATOM     31  C   UNL     1       6.137   1.361   0.642  0.00  0.00    +0.046 A 
ATOM     32  C   UNL     1       5.590   2.494   0.040  0.00  0.00    +0.120 A 
BRANCH  32   4
ATOM      4  O   UNL     1       5.837   3.727   0.559  0.00  0.00    -0.495 OA
ATOM     33  C   UNL     1       5.246   4.842  -0.107  0.00  0.00    +0.277 C 
ENDBRANCH  32   4
ENDBRANCH  24  26
ENDBRANCH   6  24
ENDBRANCH  19  22
ENDBRANCH  14  19
TORSDOF 8
