REMARK  Name = 40779319
REMARK  8 active torsions:
REMARK  status: ('A' for Active; 'I' for Inactive)
REMARK    1  A    between atoms: O_3  and  C_22
REMARK    2  A    between atoms: O_3  and  C_26
REMARK    3  A    between atoms: N_5  and  C_19
REMARK    4  A    between atoms: N_6  and  C_16
REMARK    5  A    between atoms: C_9  and  C_15
REMARK    6  A    between atoms: C_10  and  C_16
REMARK    7  A    between atoms: C_18  and  C_21
REMARK    8  A    between atoms: C_20  and  C_22
REMARK                            x       y       z     vdW  Elec       q    Type
REMARK                         _______ _______ _______ _____ _____    ______ ____
ROOT
ATOM      4  N   UNL     1      -2.082  -2.591   1.286  0.00  0.00    -0.297 NA
ATOM      8  C   UNL     1      -1.010  -2.466  -1.084  0.00  0.00    +0.002 C 
ATOM      9  C   UNL     1       0.093  -2.545   0.008  0.00  0.00    +0.055 C 
ATOM     10  C   UNL     1      -2.679  -1.468   0.516  0.00  0.00    +0.074 C 
ATOM     11  C   UNL     1      -1.916  -1.248  -0.807  0.00  0.00    +0.024 C 
ATOM     12  C   UNL     1      -1.885  -3.728  -0.925  0.00  0.00    +0.019 C 
ATOM     13  C   UNL     1      -0.612  -2.412   1.388  0.00  0.00    +0.094 C 
ATOM     14  C   UNL     1      -2.345  -3.845   0.539  0.00  0.00    +0.085 C 
ENDROOT
BRANCH   9  15
ATOM      5  N   UNL     1       2.427  -1.961  -0.798  0.00  0.00    -0.270 N 
ATOM      7  N   UNL     1       3.374  -1.006  -0.789  0.00  0.00    -0.168 NA
ATOM     15  C   UNL     1       1.295  -1.620  -0.117  0.00  0.00    +0.044 A 
ATOM     17  C   UNL     1       1.517  -0.356   0.371  0.00  0.00    +0.056 A 
ATOM     18  C   UNL     1       2.812  -0.028  -0.074  0.00  0.00    +0.128 A 
ATOM     19  C   UNL     1       2.682  -3.200  -1.495  0.00  0.00    +0.172 C 
BRANCH  18  21
ATOM      1  O   UNL     1       2.992   2.268   0.911  0.00  0.00    -0.461 OA
ATOM     21  C   UNL     1       3.514   1.240   0.192  0.00  0.00    +0.155 A 
ATOM     23  C   UNL     1       4.780   1.550  -0.247  0.00  0.00    +0.051 A 
ATOM     24  C   UNL     1       5.054   2.853   0.233  0.00  0.00    +0.042 A 
ATOM     25  C   UNL     1       3.936   3.246   0.931  0.00  0.00    +0.196 A 
ENDBRANCH  18  21
ENDBRANCH   9  15
BRANCH  10  16
ATOM     16  C   UNL     1      -2.774  -0.182   1.340  0.00  0.00    +0.123 C 
BRANCH  16   6
ATOM      2  O   UNL     1      -1.735   2.407   0.576  0.00  0.00    -0.273 OA
ATOM      6  N   UNL     1      -3.457   0.842   0.611  0.00  0.00    -0.312 N 
ATOM     20  C   UNL     1      -2.878   2.067   0.284  0.00  0.00    +0.239 C 
ATOM     27  H   UNL     1      -4.426   0.674   0.354  0.00  0.00    +0.149 HD
BRANCH  20  22
ATOM     22  C   UNL     1      -3.826   2.958  -0.490  0.00  0.00    +0.255 C 
BRANCH  22   3
ATOM      3  O   UNL     1      -3.203   4.183  -0.816  0.00  0.00    -0.374 OA
ATOM     26  C   UNL     1      -4.073   5.043  -1.545  0.00  0.00    +0.194 C 
ENDBRANCH  22   3
ENDBRANCH  20  22
ENDBRANCH  16   6
ENDBRANCH  10  16
TORSDOF 6
