REMARK  Name = 71693650
REMARK  6 active torsions:
REMARK  status: ('A' for Active; 'I' for Inactive)
REMARK    1  A    between atoms: O_3  and  C_16
REMARK    2  A    between atoms: N_5  and  C_22
REMARK    3  A    between atoms: N_6  and  C_19
REMARK    4  A    between atoms: C_7  and  C_14
REMARK    5  A    between atoms: C_12  and  C_16
REMARK    6  A    between atoms: C_13  and  C_15
REMARK                            x       y       z     vdW  Elec       q    Type
REMARK                         _______ _______ _______ _____ _____    ______ ____
ROOT
ATOM     15  C   UNL     1       1.215  -0.352   0.087  0.00  0.00    -0.017 A 
ATOM     19  C   UNL     1      -1.519  -0.427  -0.461  0.00  0.00    +0.033 A 
ATOM     20  C   UNL     1       0.292  -0.168   1.117  0.00  0.00    +0.008 A 
ATOM     21  C   UNL     1       0.771  -0.573  -1.216  0.00  0.00    +0.008 A 
ATOM     23  C   UNL     1      -1.075  -0.206   0.843  0.00  0.00    +0.023 A 
ATOM     24  C   UNL     1      -0.596  -0.611  -1.491  0.00  0.00    +0.023 A 
ENDROOT
BRANCH  15  13
ATOM      1  O   UNL     1       3.222  -1.606   0.082  0.00  0.00    -0.361 OA
ATOM      4  O   UNL     1       6.719  -0.925   0.108  0.00  0.00    -0.273 OA
ATOM      5  N   UNL     1       4.947   0.537  -0.288  0.00  0.00    -0.295 N 
ATOM     12  C   UNL     1       3.484   0.724  -0.443  0.00  0.00    +0.134 C 
ATOM     13  C   UNL     1       2.699  -0.312   0.386  0.00  0.00    +0.171 C 
ATOM     17  C   UNL     1       4.536  -1.741   0.568  0.00  0.00    +0.256 C 
ATOM     18  C   UNL     1       5.510  -0.684   0.088  0.00  0.00    +0.242 C 
ATOM     22  C   UNL     1       5.830   1.593  -0.777  0.00  0.00    +0.132 C 
BRANCH  12  16
ATOM     16  C   UNL     1       3.033   2.149  -0.094  0.00  0.00    +0.181 C 
BRANCH  16   3
ATOM      3  O   UNL     1       3.264   2.360   1.284  0.00  0.00    -0.393 OA
ATOM     26  H   UNL     1       2.964   3.261   1.492  0.00  0.00    +0.209 HD
ENDBRANCH  16   3
ENDBRANCH  12  16
ENDBRANCH  15  13
BRANCH  19   6
ATOM      2  O   UNL     1      -3.890  -0.090   1.364  0.00  0.00    -0.275 OA
ATOM      6  N   UNL     1      -2.887  -0.465  -0.736  0.00  0.00    -0.285 N 
ATOM     14  C   UNL     1      -3.953  -0.302   0.158  0.00  0.00    +0.220 C 
ATOM     25  H   UNL     1      -3.124  -0.626  -1.713  0.00  0.00    +0.155 HD
BRANCH  14   7
ATOM      7  C   UNL     1      -5.278  -0.413  -0.533  0.00  0.00    +0.075 C 
ATOM      8  C   UNL     1      -5.754   0.969  -0.994  0.00  0.00    +0.013 C 
ATOM      9  C   UNL     1      -6.347  -0.934   0.429  0.00  0.00    +0.013 C 
ATOM     10  C   UNL     1      -7.130   1.167  -0.367  0.00  0.00    +0.001 C 
ATOM     11  C   UNL     1      -7.093   0.311   0.887  0.00  0.00    +0.001 C 
ENDBRANCH  14   7
ENDBRANCH  19   6
TORSDOF 5
