REMARK  Name = 11882084
REMARK  12 active torsions:
REMARK  status: ('A' for Active; 'I' for Inactive)
REMARK    1  A    between atoms: S_1  and  C_19
REMARK    2  A    between atoms: S_1  and  C_27
REMARK    3  A    between atoms: O_6  and  C_33
REMARK    4  A    between atoms: O_6  and  C_36
REMARK    5  A    between atoms: N_8  and  C_12
REMARK    6  A    between atoms: N_9  and  C_18
REMARK    7  A    between atoms: N_10  and  C_24
REMARK    8  A    between atoms: C_13  and  C_16
REMARK    9  A    between atoms: C_17  and  C_19
REMARK   10  A    between atoms: C_18  and  C_21
REMARK   11  A    between atoms: C_18  and  C_22
REMARK   12  A    between atoms: C_21  and  C_23
REMARK                            x       y       z     vdW  Elec       q    Type
REMARK                         _______ _______ _______ _____ _____    ______ ____
ROOT
ATOM      3  O   UNL     1      -2.425   3.049  -1.728  0.00  0.00    -0.275 OA
ATOM      7  N   UNL     1      -1.689   2.613   0.423  0.00  0.00    -0.287 N 
ATOM     12  C   UNL     1      -0.351   0.902   1.375  0.00  0.00    +0.105 C 
ATOM     13  C   UNL     1      -1.212   1.258   0.164  0.00  0.00    +0.182 C 
ATOM     14  C   UNL     1      -0.951   1.750   2.500  0.00  0.00    +0.043 C 
ATOM     15  C   UNL     1      -1.403   3.022   1.796  0.00  0.00    +0.110 C 
ATOM     17  C   UNL     1      -2.195   3.428  -0.578  0.00  0.00    +0.226 C 
ENDROOT
BRANCH  12   8
ATOM      4  O   UNL     1       1.690  -0.833   0.361  0.00  0.00    -0.252 OA
ATOM      8  N   UNL     1       1.034   1.241   1.144  0.00  0.00    -0.294 N 
ATOM     10  N   UNL     1       3.223   0.937   0.524  0.00  0.00    -0.269 N 
ATOM     20  C   UNL     1       1.970   0.329   0.643  0.00  0.00    +0.304 C 
ATOM     37  H   UNL     1       1.328   2.202   1.289  0.00  0.00    +0.151 HD
ATOM     39  H   UNL     1       3.285   1.913   0.804  0.00  0.00    +0.156 HD
BRANCH  10  24
ATOM     24  C   UNL     1       4.427   0.359   0.060  0.00  0.00    +0.038 A 
ATOM     28  C   UNL     1       5.593   1.124   0.009  0.00  0.00    +0.069 A 
ATOM     29  C   UNL     1       4.450  -0.974  -0.349  0.00  0.00    +0.023 A 
ATOM     33  C   UNL     1       6.781   0.554  -0.449  0.00  0.00    +0.122 A 
ATOM     34  C   UNL     1       5.638  -1.543  -0.807  0.00  0.00    +0.005 A 
ATOM     35  C   UNL     1       6.803  -0.779  -0.858  0.00  0.00    +0.046 A 
BRANCH  33   6
ATOM      6  O   UNL     1       7.919   1.300  -0.499  0.00  0.00    -0.495 OA
ATOM     36  C   UNL     1       9.097   0.655  -0.980  0.00  0.00    +0.277 C 
ENDBRANCH  33   6
ENDBRANCH  10  24
ENDBRANCH  12   8
BRANCH  13  16
ATOM      2  O   UNL     1      -3.448   0.631   0.721  0.00  0.00    -0.274 OA
ATOM      9  N   UNL     1      -2.242  -0.696  -0.764  0.00  0.00    -0.302 N 
ATOM     16  C   UNL     1      -2.429   0.386   0.080  0.00  0.00    +0.236 C 
ATOM     38  H   UNL     1      -1.373  -0.770  -1.284  0.00  0.00    +0.150 HD
BRANCH   9  18
ATOM     18  C   UNL     1      -3.256  -1.699  -1.000  0.00  0.00    +0.163 C 
BRANCH  18  22
ATOM      5  O   UNL     1      -3.715  -0.528  -3.079  0.00  0.00    -0.274 OA
ATOM     11  N   UNL     1      -5.448  -1.593  -2.012  0.00  0.00    -0.328 N 
ATOM     22  C   UNL     1      -4.135  -1.189  -2.132  0.00  0.00    +0.231 C 
ATOM     40  H   UNL     1      -6.138  -1.333  -2.708  0.00  0.00    +0.145 HD
ATOM     41  H   UNL     1      -5.776  -2.159  -1.236  0.00  0.00    +0.145 HD
ENDBRANCH  18  22
BRANCH  18  21
ATOM     21  C   UNL     1      -2.651  -3.059  -1.364  0.00  0.00    +0.067 C 
BRANCH  21  23
ATOM     23  C   UNL     1      -2.156  -3.820  -0.158  0.00  0.00    -0.045 A 
ATOM     25  C   UNL     1      -0.841  -3.655   0.279  0.00  0.00    +0.004 A 
ATOM     26  C   UNL     1      -3.013  -4.686   0.521  0.00  0.00    +0.004 A 
ATOM     30  C   UNL     1      -0.384  -4.358   1.394  0.00  0.00    +0.000 A 
ATOM     31  C   UNL     1      -2.555  -5.389   1.636  0.00  0.00    +0.000 A 
ATOM     32  C   UNL     1      -1.240  -5.224   2.072  0.00  0.00    +0.000 A 
ENDBRANCH  21  23
ENDBRANCH  18  21
ENDBRANCH   9  18
ENDBRANCH  13  16
BRANCH  17  19
ATOM     19  C   UNL     1      -2.474   4.854  -0.176  0.00  0.00    +0.164 C 
BRANCH  19   1
ATOM      1  S   UNL     1      -4.171   4.936   0.412  0.00  0.00    -0.155 S 
ATOM     27  C   UNL     1      -4.243   6.698   0.817  0.00  0.00    +0.085 C 
ENDBRANCH  19   1
ENDBRANCH  17  19
TORSDOF 10
