REMARK  Name = 75368646
REMARK  3 active torsions:
REMARK  status: ('A' for Active; 'I' for Inactive)
REMARK    1  A    between atoms: N_3  and  C_12
REMARK    2  A    between atoms: N_4  and  C_13
REMARK    3  A    between atoms: C_12  and  C_14
REMARK                            x       y       z     vdW  Elec       q    Type
REMARK                         _______ _______ _______ _____ _____    ______ ____
ROOT
ATOM      1  O   UNL     1       5.307   1.314   0.038  0.00  0.00    -0.252 OA
ATOM      2  N   UNL     1       3.037   0.715  -0.039  0.00  0.00    -0.278 N 
ATOM      3  N   UNL     1       0.367   0.433   0.800  0.00  0.00    -0.295 NA
ATOM      4  N   UNL     1       4.556  -0.779  -0.750  0.00  0.00    -0.287 N 
ATOM      6  C   UNL     1       2.250  -0.383  -0.559  0.00  0.00    +0.109 C 
ATOM      7  C   UNL     1       1.149  -0.764   0.430  0.00  0.00    +0.109 C 
ATOM      8  C   UNL     1       3.283  -1.476  -0.823  0.00  0.00    +0.132 C 
ATOM      9  C   UNL     1       2.362   1.882   0.490  0.00  0.00    +0.125 C 
ATOM     10  C   UNL     1       1.231   1.453   1.428  0.00  0.00    +0.104 C 
ATOM     11  C   UNL     1       4.412   0.520  -0.221  0.00  0.00    +0.305 C 
ATOM     13  C   UNL     1       5.808  -1.436  -1.050  0.00  0.00    +0.133 C 
ENDROOT
BRANCH   3  12
ATOM     12  C   UNL     1      -0.727   0.068   1.700  0.00  0.00    +0.120 C 
BRANCH  12  14
ATOM      5  N   UNL     1      -3.954  -1.851  -0.370  0.00  0.00    -0.255 NA
ATOM     14  C   UNL     1      -1.871  -0.572   0.960  0.00  0.00    -0.023 A 
ATOM     15  C   UNL     1      -2.775   0.175   0.193  0.00  0.00    +0.005 A 
ATOM     16  C   UNL     1      -2.011  -1.949   1.060  0.00  0.00    +0.025 A 
ATOM     17  C   UNL     1      -3.816  -0.515  -0.465  0.00  0.00    +0.071 A 
ATOM     18  C   UNL     1      -2.661   1.570   0.072  0.00  0.00    +0.010 A 
ATOM     19  C   UNL     1      -3.060  -2.534   0.381  0.00  0.00    +0.112 A 
ATOM     20  C   UNL     1      -4.714   0.228  -1.228  0.00  0.00    +0.028 A 
ATOM     21  C   UNL     1      -3.573   2.287  -0.697  0.00  0.00    +0.001 A 
ATOM     22  C   UNL     1      -4.600   1.615  -1.348  0.00  0.00    +0.002 A 
ENDBRANCH  12  14
ENDBRANCH   3  12
TORSDOF 2
