REMARK  Name = 75536799
REMARK  7 active torsions:
REMARK  status: ('A' for Active; 'I' for Inactive)
REMARK    1  A    between atoms: O_2  and  C_9
REMARK    2  A    between atoms: N_4  and  C_8
REMARK    3  A    between atoms: N_4  and  C_13
REMARK    4  A    between atoms: N_5  and  C_12
REMARK    5  A    between atoms: C_10  and  C_12
REMARK    6  A    between atoms: C_13  and  C_14
REMARK    7  A    between atoms: C_15  and  C_18
REMARK                            x       y       z     vdW  Elec       q    Type
REMARK                         _______ _______ _______ _____ _____    ______ ____
ROOT
ATOM      1  O   UNL     1       0.418  -0.928   0.017  0.00  0.00    -0.371 OA
ATOM      8  C   UNL     1      -1.645   0.210  -0.288  0.00  0.00    +0.111 C 
ATOM      9  C   UNL     1      -0.744   1.048   0.601  0.00  0.00    +0.164 C 
ATOM     10  C   UNL     1       0.624   0.474   0.256  0.00  0.00    +0.165 C 
ATOM     11  C   UNL     1      -0.989  -1.156  -0.177  0.00  0.00    +0.181 C 
ENDROOT
BRANCH   9   2
ATOM      2  O   UNL     1      -0.824   2.430   0.311  0.00  0.00    -0.388 OA
ATOM     26  H   UNL     1      -0.614   2.559  -0.629  0.00  0.00    +0.210 HD
ENDBRANCH   9   2
BRANCH   8   4
ATOM      4  N   UNL     1      -3.037   0.206   0.132  0.00  0.00    -0.305 NA
ATOM     25  H   UNL     1      -3.323   1.161   0.347  0.00  0.00    +0.123 HD
BRANCH   4  13
ATOM     13  C   UNL     1      -3.900  -0.319  -0.920  0.00  0.00    +0.118 C 
BRANCH  13  14
ATOM      6  N   UNL     1      -7.552   0.634  -0.617  0.00  0.00    -0.263 NA
ATOM     14  C   UNL     1      -5.345  -0.346  -0.497  0.00  0.00    -0.015 A 
ATOM     16  C   UNL     1      -5.818  -1.324   0.372  0.00  0.00    +0.008 A 
ATOM     17  C   UNL     1      -6.244   0.601  -0.959  0.00  0.00    +0.115 A 
ATOM     19  C   UNL     1      -7.157  -1.323   0.747  0.00  0.00    +0.020 A 
ATOM     22  C   UNL     1      -7.975  -0.332   0.229  0.00  0.00    +0.111 A 
ENDBRANCH  13  14
ENDBRANCH   4  13
ENDBRANCH   8   4
BRANCH  10  12
ATOM     12  C   UNL     1       1.650   0.662   1.359  0.00  0.00    +0.138 C 
BRANCH  12   5
ATOM      3  O   UNL     1       3.788   2.013   0.000  0.00  0.00    -0.270 OA
ATOM      5  N   UNL     1       2.919   0.104   0.992  0.00  0.00    -0.309 N 
ATOM     15  C   UNL     1       3.901   0.836   0.332  0.00  0.00    +0.244 C 
ATOM     27  H   UNL     1       3.052  -0.885   1.177  0.00  0.00    +0.149 HD
BRANCH  15  18
ATOM      7  N   UNL     1       7.500  -1.273  -0.631  0.00  0.00    -0.263 NA
ATOM     18  C   UNL     1       5.151   0.105  -0.001  0.00  0.00    +0.040 A 
ATOM     20  C   UNL     1       5.923   0.501  -1.088  0.00  0.00    +0.033 A 
ATOM     21  C   UNL     1       5.553  -0.979   0.771  0.00  0.00    +0.033 A 
ATOM     23  C   UNL     1       7.078  -0.215  -1.358  0.00  0.00    +0.111 A 
ATOM     24  C   UNL     1       6.725  -1.629   0.418  0.00  0.00    +0.111 A 
ENDBRANCH  15  18
ENDBRANCH  12   5
ENDBRANCH  10  12
TORSDOF 7
