REMARK  Name = 28960503
REMARK  7 active torsions:
REMARK  status: ('A' for Active; 'I' for Inactive)
REMARK    1  A    between atoms: O_3  and  C_9
REMARK    2  A    between atoms: N_5  and  C_8
REMARK    3  A    between atoms: N_6  and  C_10
REMARK    4  A    between atoms: N_6  and  C_19
REMARK    5  A    between atoms: C_18  and  C_20
REMARK    6  A    between atoms: C_19  and  C_21
REMARK    7  A    between atoms: C_26  and  C_27
REMARK                            x       y       z     vdW  Elec       q    Type
REMARK                         _______ _______ _______ _____ _____    ______ ____
ROOT
ATOM      1  O   UNL     1       3.350  -1.335   1.749  0.00  0.00    -0.343 OA
ATOM      2  O   UNL     1       5.288  -2.013   0.670  0.00  0.00    -0.347 OA
ATOM      8  C   UNL     1       3.855  -0.399  -0.418  0.00  0.00    +0.143 C 
ATOM      9  C   UNL     1       3.065  -1.534  -1.109  0.00  0.00    +0.156 C 
ATOM     10  C   UNL     1       2.340  -2.483  -0.124  0.00  0.00    +0.116 C 
ATOM     11  C   UNL     1       4.433  -0.886   0.924  0.00  0.00    +0.270 C 
ATOM     12  C   UNL     1       3.097  -2.639   1.215  0.00  0.00    +0.166 C 
ATOM     13  C   UNL     1       4.517  -3.156   1.069  0.00  0.00    +0.196 C 
ENDROOT
BRANCH   8   5
ATOM      5  N   UNL     1       3.000   0.769  -0.200  0.00  0.00    -0.293 NA
ATOM     14  C   UNL     1       3.578   1.644   0.830  0.00  0.00    +0.085 C 
ATOM     15  C   UNL     1       2.793   1.497  -1.459  0.00  0.00    +0.085 C 
ATOM     16  C   UNL     1       2.668   2.841   1.110  0.00  0.00    +0.028 C 
ATOM     17  C   UNL     1       1.857   2.690  -1.259  0.00  0.00    +0.028 C 
ATOM     18  C   UNL     1       2.376   3.625  -0.168  0.00  0.00    +0.077 C 
BRANCH  18  20
ATOM      4  O   UNL     1       0.492   4.568   0.957  0.00  0.00    -0.276 OA
ATOM      7  N   UNL     1       1.496   5.799  -0.707  0.00  0.00    -0.329 N 
ATOM     20  C   UNL     1       1.363   4.695   0.101  0.00  0.00    +0.214 C 
ATOM     35  H   UNL     1       2.218   5.873  -1.417  0.00  0.00    +0.145 HD
ATOM     36  H   UNL     1       0.862   6.587  -0.620  0.00  0.00    +0.145 HD
ENDBRANCH  18  20
ENDBRANCH   8   5
BRANCH   9   3
ATOM      3  O   UNL     1       3.999  -2.304  -1.880  0.00  0.00    -0.388 OA
ATOM     34  H   UNL     1       3.494  -2.981  -2.362  0.00  0.00    +0.210 HD
ENDBRANCH   9   3
BRANCH  10   6
ATOM      6  N   UNL     1       0.991  -1.987   0.169  0.00  0.00    -0.305 NA
ATOM     33  H   UNL     1       1.027  -0.984   0.349  0.00  0.00    +0.123 HD
BRANCH   6  19
ATOM     19  C   UNL     1       0.093  -2.267  -0.938  0.00  0.00    +0.116 C 
BRANCH  19  21
ATOM     21  C   UNL     1      -1.301  -1.765  -0.670  0.00  0.00    -0.034 A 
ATOM     22  C   UNL     1      -2.141  -2.466   0.196  0.00  0.00    +0.005 A 
ATOM     23  C   UNL     1      -1.753  -0.598  -1.287  0.00  0.00    +0.005 A 
ATOM     24  C   UNL     1      -3.432  -2.001   0.444  0.00  0.00    +0.009 A 
ATOM     25  C   UNL     1      -3.044  -0.133  -1.038  0.00  0.00    +0.009 A 
ATOM     26  C   UNL     1      -3.884  -0.835  -0.173  0.00  0.00    -0.018 A 
BRANCH  26  27
ATOM     27  C   UNL     1      -5.224  -0.352   0.084  0.00  0.00    -0.018 A 
ATOM     28  C   UNL     1      -6.283  -0.772  -0.721  0.00  0.00    +0.008 A 
ATOM     29  C   UNL     1      -5.457   0.532   1.138  0.00  0.00    +0.008 A 
ATOM     30  C   UNL     1      -7.574  -0.307  -0.472  0.00  0.00    +0.001 A 
ATOM     31  C   UNL     1      -6.748   0.996   1.387  0.00  0.00    +0.001 A 
ATOM     32  C   UNL     1      -7.807   0.576   0.581  0.00  0.00    +0.000 A 
ENDBRANCH  26  27
ENDBRANCH  19  21
ENDBRANCH   6  19
ENDBRANCH  10   6
TORSDOF 7
