REMARK  Name = 75536786
REMARK  8 active torsions:
REMARK  status: ('A' for Active; 'I' for Inactive)
REMARK    1  A    between atoms: O_2  and  C_8
REMARK    2  A    between atoms: N_4  and  C_7
REMARK    3  A    between atoms: N_4  and  C_12
REMARK    4  A    between atoms: N_5  and  C_11
REMARK    5  A    between atoms: C_9  and  C_11
REMARK    6  A    between atoms: C_12  and  C_13
REMARK    7  A    between atoms: C_12  and  C_14
REMARK    8  A    between atoms: C_15  and  C_16
REMARK                            x       y       z     vdW  Elec       q    Type
REMARK                         _______ _______ _______ _____ _____    ______ ____
ROOT
ATOM      1  O   UNL     1      -1.061  -1.042   0.331  0.00  0.00    -0.371 OA
ATOM      7  C   UNL     1      -3.187  -0.079  -0.110  0.00  0.00    +0.111 C 
ATOM      8  C   UNL     1      -2.307   0.955   0.568  0.00  0.00    +0.164 C 
ATOM      9  C   UNL     1      -0.921   0.388   0.289  0.00  0.00    +0.165 C 
ATOM     10  C   UNL     1      -2.458  -1.368   0.235  0.00  0.00    +0.181 C 
ENDROOT
BRANCH   8   2
ATOM      2  O   UNL     1      -2.466   2.250   0.022  0.00  0.00    -0.388 OA
ATOM     22  H   UNL     1      -2.290   2.204  -0.933  0.00  0.00    +0.210 HD
ENDBRANCH   8   2
BRANCH   7   4
ATOM      4  N   UNL     1      -4.565  -0.066   0.353  0.00  0.00    -0.307 NA
ATOM     21  H   UNL     1      -4.900   0.894   0.430  0.00  0.00    +0.123 HD
BRANCH   4  12
ATOM     12  C   UNL     1      -5.428  -0.823  -0.546  0.00  0.00    +0.048 C 
ATOM     13  C   UNL     1      -6.691  -1.244   0.198  0.00  0.00    +0.023 C 
ATOM     14  C   UNL     1      -5.770   0.011  -1.778  0.00  0.00    +0.023 C 
ENDBRANCH   4  12
ENDBRANCH   7   4
BRANCH   9  11
ATOM     11  C   UNL     1       0.123   0.832   1.298  0.00  0.00    +0.138 C 
BRANCH  11   5
ATOM      3  O   UNL     1       2.151   1.991  -0.372  0.00  0.00    -0.270 OA
ATOM      5  N   UNL     1       1.409   0.272   0.999  0.00  0.00    -0.309 N 
ATOM     15  C   UNL     1       2.334   0.906   0.175  0.00  0.00    +0.244 C 
ATOM     23  H   UNL     1       1.598  -0.655   1.364  0.00  0.00    +0.149 HD
BRANCH  15  16
ATOM      6  N   UNL     1       6.010  -1.182  -0.497  0.00  0.00    -0.263 NA
ATOM     16  C   UNL     1       3.611   0.183  -0.058  0.00  0.00    +0.040 A 
ATOM     17  C   UNL     1       4.331   0.397  -1.228  0.00  0.00    +0.033 A 
ATOM     18  C   UNL     1       4.089  -0.712   0.893  0.00  0.00    +0.033 A 
ATOM     19  C   UNL     1       5.514  -0.304  -1.398  0.00  0.00    +0.111 A 
ATOM     20  C   UNL     1       5.283  -1.364   0.628  0.00  0.00    +0.111 A 
ENDBRANCH  15  16
ENDBRANCH  11   5
ENDBRANCH   9  11
TORSDOF 6
