REMARK  Name = 51138091
REMARK  13 active torsions:
REMARK  status: ('A' for Active; 'I' for Inactive)
REMARK    1  A    between atoms: N_3  and  C_21
REMARK    2  A    between atoms: N_4  and  C_26
REMARK    3  A    between atoms: N_5  and  C_29
REMARK    4  A    between atoms: N_7  and  C_27
REMARK    5  A    between atoms: N_7  and  C_31
REMARK    6  A    between atoms: N_7  and  C_32
REMARK    7  A    between atoms: C_8  and  C_13
REMARK    8  A    between atoms: C_11  and  C_19
REMARK    9  A    between atoms: C_13  and  C_16
REMARK   10  A    between atoms: C_16  and  C_23
REMARK   11  A    between atoms: C_16  and  C_24
REMARK   12  A    between atoms: C_21  and  C_25
REMARK   13  A    between atoms: C_26  and  C_27
REMARK                            x       y       z     vdW  Elec       q    Type
REMARK                         _______ _______ _______ _____ _____    ______ ____
ROOT
ATOM      2  N   UNL     1      -1.629  -0.477  -0.336  0.00  0.00    -0.299 NA
ATOM      3  N   UNL     1       3.131   0.862   0.690  0.00  0.00    -0.339 N 
ATOM      8  C   UNL     1      -1.021  -1.641   0.322  0.00  0.00    +0.085 C 
ATOM      9  C   UNL     1       0.488  -1.556   0.574  0.00  0.00    -0.021 A 
ATOM     10  C   UNL     1       1.259  -0.358   0.540  0.00  0.00    +0.008 A 
ATOM     11  C   UNL     1      -1.567   0.757   0.433  0.00  0.00    +0.145 C 
ATOM     12  C   UNL     1       0.946   1.026   0.304  0.00  0.00    -0.020 A 
ATOM     14  C   UNL     1      -0.386   1.627   0.005  0.00  0.00    +0.065 C 
ATOM     15  C   UNL     1       2.633  -0.414   0.802  0.00  0.00    +0.050 A 
ATOM     17  C   UNL     1       2.126   1.736   0.397  0.00  0.00    +0.091 A 
ATOM     18  C   UNL     1       1.182  -2.735   0.946  0.00  0.00    +0.006 A 
ATOM     20  C   UNL     1       3.307  -1.594   1.122  0.00  0.00    +0.026 A 
ATOM     22  C   UNL     1       2.552  -2.757   1.202  0.00  0.00    +0.002 A 
ATOM     33  H   UNL     1      -1.246  -0.348  -1.272  0.00  0.00    +0.123 HD
ENDROOT
BRANCH  11  19
ATOM      1  O   UNL     1      -2.929   2.275  -0.808  0.00  0.00    -0.274 OA
ATOM      4  N   UNL     1      -3.858   1.149   1.006  0.00  0.00    -0.313 N 
ATOM     19  C   UNL     1      -2.844   1.477   0.122  0.00  0.00    +0.230 C 
ATOM     34  H   UNL     1      -3.684   0.462   1.733  0.00  0.00    +0.149 HD
BRANCH   4  26
ATOM     26  C   UNL     1      -5.183   1.723   0.937  0.00  0.00    +0.119 C 
BRANCH  26  27
ATOM     27  C   UNL     1      -6.098   0.893   0.049  0.00  0.00    +0.102 C 
BRANCH  27   7
ATOM      7  N   UNL     1      -7.435   1.472   0.017  0.00  0.00    -0.307 NA
ATOM     31  C   UNL     1      -7.480   2.615  -0.897  0.00  0.00    +0.104 C 
ATOM     32  C   UNL     1      -8.424   0.468  -0.379  0.00  0.00    +0.104 C 
ENDBRANCH  27   7
ENDBRANCH  26  27
ENDBRANCH   4  26
ENDBRANCH  11  19
BRANCH   8  13
ATOM     13  C   UNL     1      -1.403  -2.837  -0.569  0.00  0.00    +0.026 C 
BRANCH  13  16
ATOM     16  C   UNL     1      -2.858  -3.280  -0.382  0.00  0.00    -0.015 C 
ATOM     23  C   UNL     1      -3.129  -4.503  -1.262  0.00  0.00    +0.007 C 
ATOM     24  C   UNL     1      -3.859  -2.173  -0.713  0.00  0.00    +0.007 C 
ENDBRANCH  13  16
ENDBRANCH   8  13
BRANCH   3  21
ATOM     21  C   UNL     1       4.515   1.246   0.873  0.00  0.00    +0.196 C 
BRANCH  21  25
ATOM      5  N   UNL     1       6.747   1.002  -0.267  0.00  0.00    -0.336 N 
ATOM      6  N   UNL     1       4.957   0.600  -1.519  0.00  0.00    -0.239 NA
ATOM     25  C   UNL     1       5.382   0.944  -0.323  0.00  0.00    +0.129 A 
ATOM     28  C   UNL     1       7.223   0.676  -1.506  0.00  0.00    +0.106 A 
ATOM     29  C   UNL     1       7.554   1.345   0.880  0.00  0.00    +0.150 C 
ATOM     30  C   UNL     1       6.099   0.432  -2.261  0.00  0.00    +0.130 A 
ENDBRANCH  21  25
ENDBRANCH   3  21
TORSDOF 8
