REMARK  Name = 75536699
REMARK  8 active torsions:
REMARK  status: ('A' for Active; 'I' for Inactive)
REMARK    1  A    between atoms: S_1  and  N_7
REMARK    2  A    between atoms: S_1  and  C_19
REMARK    3  A    between atoms: O_3  and  C_10
REMARK    4  A    between atoms: N_6  and  C_8
REMARK    5  A    between atoms: N_6  and  C_9
REMARK    6  A    between atoms: N_7  and  C_18
REMARK    7  A    between atoms: C_11  and  C_18
REMARK    8  A    between atoms: C_24  and  C_25
REMARK                            x       y       z     vdW  Elec       q    Type
REMARK                         _______ _______ _______ _____ _____    ______ ____
ROOT
ATOM      2  O   UNL     1      -0.738   0.829  -1.345  0.00  0.00    -0.371 OA
ATOM      8  C   UNL     1      -2.574   0.228   0.037  0.00  0.00    +0.111 C 
ATOM     10  C   UNL     1      -1.291   0.111   0.839  0.00  0.00    +0.164 C 
ATOM     11  C   UNL     1      -0.357   1.000   0.030  0.00  0.00    +0.164 C 
ATOM     14  C   UNL     1      -2.040   0.219  -1.386  0.00  0.00    +0.181 C 
ENDROOT
BRANCH  10   3
ATOM      3  O   UNL     1      -1.435   0.570   2.169  0.00  0.00    -0.388 OA
ATOM     27  H   UNL     1      -1.755   1.488   2.143  0.00  0.00    +0.210 HD
ENDBRANCH  10   3
BRANCH   8   6
ATOM      6  N   UNL     1      -3.521  -0.845   0.293  0.00  0.00    -0.306 NA
ATOM     26  H   UNL     1      -3.579  -1.031   1.294  0.00  0.00    +0.123 HD
BRANCH   6   9
ATOM      9  C   UNL     1      -4.844  -0.501  -0.225  0.00  0.00    +0.054 C 
ATOM     12  C   UNL     1      -5.539   0.476   0.730  0.00  0.00    +0.019 C 
ATOM     13  C   UNL     1      -5.676  -1.774  -0.415  0.00  0.00    +0.019 C 
ATOM     15  C   UNL     1      -6.957   0.799   0.260  0.00  0.00    +0.002 C 
ATOM     16  C   UNL     1      -7.093  -1.448  -0.883  0.00  0.00    +0.002 C 
ATOM     17  C   UNL     1      -7.785  -0.466   0.058  0.00  0.00    +0.000 C 
ENDBRANCH   6   9
ENDBRANCH   8   6
BRANCH  11  18
ATOM     18  C   UNL     1       1.109   0.647   0.203  0.00  0.00    +0.140 C 
BRANCH  18   7
ATOM      7  N   UNL     1       1.938   1.555  -0.614  0.00  0.00    -0.187 NA
ATOM     28  H   UNL     1       1.736   1.558  -1.621  0.00  0.00    +0.148 HD
BRANCH   7   1
ATOM      1  S   UNL     1       3.506   1.970  -0.101  0.00  0.00    +0.058 S 
ATOM      4  O   UNL     1       3.447   2.499   1.248  0.00  0.00    -0.153 OA
ATOM      5  O   UNL     1       4.162   2.725  -1.152  0.00  0.00    -0.153 OA
BRANCH   1  19
ATOM     19  C   UNL     1       4.295   0.390  -0.033  0.00  0.00    +0.105 A 
ATOM     20  C   UNL     1       4.950  -0.112  -1.157  0.00  0.00    +0.029 A 
ATOM     21  C   UNL     1       4.260  -0.357   1.145  0.00  0.00    +0.029 A 
ATOM     22  C   UNL     1       5.570  -1.360  -1.104  0.00  0.00    +0.005 A 
ATOM     23  C   UNL     1       4.880  -1.605   1.198  0.00  0.00    +0.005 A 
ATOM     24  C   UNL     1       5.535  -2.107   0.073  0.00  0.00    -0.050 A 
ATOM     25  C   UNL     1       6.198  -3.442   0.130  0.00  0.00    +0.044 C 
ENDBRANCH   1  19
ENDBRANCH   7   1
ENDBRANCH  18   7
ENDBRANCH  11  18
TORSDOF 7
