REMARK  Name = 40779107
REMARK  8 active torsions:
REMARK  status: ('A' for Active; 'I' for Inactive)
REMARK    1  A    between atoms: S_3  and  N_11
REMARK    2  A    between atoms: S_3  and  C_26
REMARK    3  A    between atoms: S_4  and  N_12
REMARK    4  A    between atoms: S_4  and  C_27
REMARK    5  A    between atoms: N_10  and  C_20
REMARK    6  A    between atoms: N_11  and  C_21
REMARK    7  A    between atoms: C_14  and  C_20
REMARK    8  A    between atoms: C_15  and  C_21
REMARK                            x       y       z     vdW  Elec       q    Type
REMARK                         _______ _______ _______ _____ _____    ______ ____
ROOT
ATOM      9  N   UNL     1      -2.170   3.020  -1.145  0.00  0.00    -0.298 NA
ATOM     13  C   UNL     1      -2.253   3.303   1.439  0.00  0.00    -0.003 C 
ATOM     14  C   UNL     1      -0.918   2.662   0.997  0.00  0.00    +0.020 C 
ATOM     15  C   UNL     1      -3.419   2.418  -0.607  0.00  0.00    +0.072 C 
ATOM     16  C   UNL     1      -3.424   2.438   0.938  0.00  0.00    +0.024 C 
ATOM     17  C   UNL     1      -0.983   2.386  -0.522  0.00  0.00    +0.089 C 
ATOM     18  C   UNL     1      -2.353   4.665   0.726  0.00  0.00    +0.019 C 
ATOM     19  C   UNL     1      -2.166   4.460  -0.788  0.00  0.00    +0.085 C 
ENDROOT
BRANCH  14  20
ATOM     20  C   UNL     1      -0.565   1.401   1.783  0.00  0.00    +0.089 C 
BRANCH  20  10
ATOM     10  N   UNL     1       0.740   0.907   1.345  0.00  0.00    -0.299 NA
ATOM     12  N   UNL     1       3.329  -0.263   1.788  0.00  0.00    -0.174 NA
ATOM     22  C   UNL     1       1.821   1.679   1.974  0.00  0.00    +0.101 C 
ATOM     23  C   UNL     1       0.881  -0.523   1.654  0.00  0.00    +0.101 C 
ATOM     24  C   UNL     1       3.187   1.191   1.493  0.00  0.00    +0.125 C 
ATOM     25  C   UNL     1       2.229  -1.054   1.166  0.00  0.00    +0.125 C 
BRANCH  12   4
ATOM      4  S   UNL     1       4.903  -0.906   1.586  0.00  0.00    +0.061 S 
ATOM      7  O   UNL     1       4.850  -2.344   1.744  0.00  0.00    -0.153 OA
ATOM      8  O   UNL     1       5.839  -0.106   2.348  0.00  0.00    -0.153 OA
BRANCH   4  27
ATOM      2 CL   UNL     1       5.820   0.325  -4.500  0.00  0.00    -0.084 Cl
ATOM     27  C   UNL     1       5.161  -0.560  -0.126  0.00  0.00    +0.106 A 
ATOM     30  C   UNL     1       5.738   0.650  -0.514  0.00  0.00    +0.030 A 
ATOM     31  C   UNL     1       4.788  -1.496  -1.090  0.00  0.00    +0.030 A 
ATOM     34  C   UNL     1       5.941   0.923  -1.866  0.00  0.00    +0.022 A 
ATOM     35  C   UNL     1       4.992  -1.222  -2.443  0.00  0.00    +0.022 A 
ATOM     37  C   UNL     1       5.568  -0.013  -2.831  0.00  0.00    +0.041 A 
ENDBRANCH   4  27
ENDBRANCH  12   4
ENDBRANCH  20  10
ENDBRANCH  14  20
BRANCH  15  21
ATOM     21  C   UNL     1      -3.674   1.013  -1.158  0.00  0.00    +0.124 C 
BRANCH  21  11
ATOM     11  N   UNL     1      -4.988   0.541  -0.690  0.00  0.00    -0.188 NA
ATOM     38  H   UNL     1      -5.308   0.899   0.218  0.00  0.00    +0.148 HD
BRANCH  11   3
ATOM      3  S   UNL     1      -5.557  -0.998  -1.145  0.00  0.00    +0.058 S 
ATOM      5  O   UNL     1      -5.520  -1.114  -2.591  0.00  0.00    -0.153 OA
ATOM      6  O   UNL     1      -6.781  -1.285  -0.422  0.00  0.00    -0.153 OA
BRANCH   3  26
ATOM      1 CL   UNL     1      -1.112  -4.755   1.210  0.00  0.00    -0.084 Cl
ATOM     26  C   UNL     1      -4.305  -2.056  -0.482  0.00  0.00    +0.105 A 
ATOM     28  C   UNL     1      -4.427  -2.552   0.816  0.00  0.00    +0.030 A 
ATOM     29  C   UNL     1      -3.196  -2.394  -1.257  0.00  0.00    +0.030 A 
ATOM     32  C   UNL     1      -3.440  -3.387   1.339  0.00  0.00    +0.022 A 
ATOM     33  C   UNL     1      -2.208  -3.229  -0.734  0.00  0.00    +0.022 A 
ATOM     36  C   UNL     1      -2.330  -3.725   0.564  0.00  0.00    +0.041 A 
ENDBRANCH   3  26
ENDBRANCH  11   3
ENDBRANCH  21  11
ENDBRANCH  15  21
TORSDOF 8
