REMARK  Name = 25314629
REMARK  10 active torsions:
REMARK  status: ('A' for Active; 'I' for Inactive)
REMARK    1  A    between atoms: O_3  and  C_11
REMARK    2  A    between atoms: O_5  and  C_25
REMARK    3  A    between atoms: O_5  and  C_26
REMARK    4  A    between atoms: N_6  and  C_9
REMARK    5  A    between atoms: N_6  and  C_15
REMARK    6  A    between atoms: N_6  and  C_16
REMARK    7  A    between atoms: N_7  and  C_10
REMARK    8  A    between atoms: N_8  and  C_20
REMARK    9  A    between atoms: C_15  and  C_18
REMARK   10  A    between atoms: C_16  and  C_19
REMARK                            x       y       z     vdW  Elec       q    Type
REMARK                         _______ _______ _______ _____ _____    ______ ____
ROOT
ATOM      1  O   UNL     1       3.235   0.830  -1.590  0.00  0.00    -0.342 OA
ATOM      2  O   UNL     1       4.727   1.625  -0.001  0.00  0.00    -0.347 OA
ATOM      9  C   UNL     1       3.433  -0.356   0.500  0.00  0.00    +0.143 C 
ATOM     10  C   UNL     1       1.655   1.477   0.112  0.00  0.00    +0.136 C 
ATOM     11  C   UNL     1       2.311   0.507   1.119  0.00  0.00    +0.159 C 
ATOM     12  C   UNL     1       2.629   1.972  -0.977  0.00  0.00    +0.170 C 
ATOM     13  C   UNL     1       4.183   0.432  -0.590  0.00  0.00    +0.270 C 
ATOM     14  C   UNL     1       3.857   2.680  -0.436  0.00  0.00    +0.196 C 
ENDROOT
BRANCH  10   7
ATOM      4  O   UNL     1      -1.037   1.494   1.091  0.00  0.00    -0.252 OA
ATOM      7  N   UNL     1       0.505   0.852  -0.506  0.00  0.00    -0.291 N 
ATOM      8  N   UNL     1      -1.681   0.218  -0.771  0.00  0.00    -0.269 N 
ATOM     17  C   UNL     1      -0.778   0.909   0.042  0.00  0.00    +0.304 C 
ATOM     27  H   UNL     1       0.655   0.282  -1.334  0.00  0.00    +0.151 HD
ATOM     29  H   UNL     1      -1.302  -0.213  -1.611  0.00  0.00    +0.156 HD
BRANCH   8  20
ATOM     20  C   UNL     1      -3.070   0.040  -0.571  0.00  0.00    +0.035 A 
ATOM     21  C   UNL     1      -3.821  -0.687  -1.494  0.00  0.00    +0.027 A 
ATOM     22  C   UNL     1      -3.689   0.592   0.551  0.00  0.00    +0.027 A 
ATOM     23  C   UNL     1      -5.191  -0.863  -1.296  0.00  0.00    +0.047 A 
ATOM     24  C   UNL     1      -5.058   0.417   0.750  0.00  0.00    +0.047 A 
ATOM     25  C   UNL     1      -5.809  -0.310  -0.174  0.00  0.00    +0.120 A 
BRANCH  25   5
ATOM      5  O   UNL     1      -7.145  -0.483   0.020  0.00  0.00    -0.495 OA
ATOM     26  C   UNL     1      -7.714   0.108   1.188  0.00  0.00    +0.277 C 
ENDBRANCH  25   5
ENDBRANCH   8  20
ENDBRANCH  10   7
BRANCH  11   3
ATOM      3  O   UNL     1       2.886   1.272   2.187  0.00  0.00    -0.388 OA
ATOM     28  H   UNL     1       2.173   1.790   2.599  0.00  0.00    +0.210 HD
ENDBRANCH  11   3
BRANCH   9   6
ATOM      6  N   UNL     1       2.869  -1.580  -0.073  0.00  0.00    -0.293 NA
BRANCH   6  15
ATOM     15  C   UNL     1       2.193  -2.362   0.961  0.00  0.00    +0.081 C 
ATOM     18  C   UNL     1       1.600  -3.636   0.393  0.00  0.00    +0.020 C 
ENDBRANCH   6  15
BRANCH   6  16
ATOM     16  C   UNL     1       3.918  -2.373  -0.712  0.00  0.00    +0.081 C 
ATOM     19  C   UNL     1       4.992  -2.773   0.278  0.00  0.00    +0.020 C 
ENDBRANCH   6  16
ENDBRANCH   9   6
TORSDOF 7
