REMARK  Name = 26743010
REMARK  9 active torsions:
REMARK  status: ('A' for Active; 'I' for Inactive)
REMARK    1  A    between atoms: O_3  and  C_19
REMARK    2  A    between atoms: O_3  and  C_26
REMARK    3  A    between atoms: N_5  and  C_18
REMARK    4  A    between atoms: C_7  and  C_13
REMARK    5  A    between atoms: C_8  and  C_12
REMARK    6  A    between atoms: C_12  and  C_14
REMARK    7  A    between atoms: C_13  and  C_15
REMARK    8  A    between atoms: C_17  and  C_19
REMARK    9  A    between atoms: C_18  and  C_20
REMARK                            x       y       z     vdW  Elec       q    Type
REMARK                         _______ _______ _______ _____ _____    ______ ____
ROOT
ATOM      4  N   UNL     1       5.122  -1.770  -0.131  0.00  0.00    -0.316 NA
ATOM      7  C   UNL     1       2.388  -0.719  -0.489  0.00  0.00    +0.004 C 
ATOM      8  C   UNL     1       3.444  -0.018   0.398  0.00  0.00    +0.012 C 
ATOM      9  C   UNL     1       3.108  -1.571  -1.548  0.00  0.00    +0.019 C 
ATOM     10  C   UNL     1       4.479  -1.015   0.945  0.00  0.00    +0.085 C 
ATOM     11  C   UNL     1       4.149  -2.507  -0.934  0.00  0.00    +0.081 C 
ATOM     27  H   UNL     1       5.793  -2.424   0.270  0.00  0.00    +0.122 HD
ENDROOT
BRANCH   8  12
ATOM     12  C   UNL     1       2.825   0.794   1.537  0.00  0.00    +0.064 C 
BRANCH  12  14
ATOM      2  O   UNL     1       1.226   3.760   0.269  0.00  0.00    -0.357 OA
ATOM      6  N   UNL     1       2.338   3.059   0.719  0.00  0.00    -0.083 NA
ATOM     14  C   UNL     1       1.882   1.839   1.015  0.00  0.00    +0.084 A 
ATOM     16  C   UNL     1       0.503   1.712   0.775  0.00  0.00    +0.073 A 
ATOM     17  C   UNL     1       0.139   2.947   0.308  0.00  0.00    +0.163 A 
BRANCH  17  19
ATOM     19  C   UNL     1      -1.132   3.532  -0.137  0.00  0.00    +0.236 C 
BRANCH  19   3
ATOM      3  O   UNL     1      -1.475   3.044  -1.437  0.00  0.00    -0.375 OA
ATOM     26  C   UNL     1      -2.701   3.597  -1.885  0.00  0.00    +0.194 C 
ENDBRANCH  19   3
ENDBRANCH  17  19
ENDBRANCH  12  14
ENDBRANCH   8  12
BRANCH   7  13
ATOM     13  C   UNL     1       1.376  -1.564   0.294  0.00  0.00    +0.099 C 
BRANCH  13  15
ATOM      1  O   UNL     1      -0.092  -1.366  -1.618  0.00  0.00    -0.276 OA
ATOM      5  N   UNL     1      -0.785  -2.593   0.231  0.00  0.00    -0.311 N 
ATOM     15  C   UNL     1       0.106  -1.811  -0.490  0.00  0.00    +0.214 C 
ATOM     28  H   UNL     1      -0.534  -2.897   1.167  0.00  0.00    +0.149 HD
BRANCH   5  18
ATOM     18  C   UNL     1      -2.081  -2.983  -0.276  0.00  0.00    +0.139 C 
BRANCH  18  20
ATOM     20  C   UNL     1      -3.146  -1.987   0.079  0.00  0.00    -0.030 A 
ATOM     21  C   UNL     1      -3.861  -2.124   1.269  0.00  0.00    +0.005 A 
ATOM     22  C   UNL     1      -3.422  -0.924  -0.781  0.00  0.00    +0.005 A 
ATOM     23  C   UNL     1      -4.851  -1.198   1.599  0.00  0.00    +0.000 A 
ATOM     24  C   UNL     1      -4.412   0.002  -0.451  0.00  0.00    +0.000 A 
ATOM     25  C   UNL     1      -5.126  -0.136   0.739  0.00  0.00    +0.000 A 
ENDBRANCH  18  20
ENDBRANCH   5  18
ENDBRANCH  13  15
ENDBRANCH   7  13
TORSDOF 8
