REMARK  Name = 75537053
REMARK  3 active torsions:
REMARK  status: ('A' for Active; 'I' for Inactive)
REMARK    1  A    between atoms: N_3  and  C_12
REMARK    2  A    between atoms: N_4  and  C_13
REMARK    3  A    between atoms: C_12  and  C_14
REMARK                            x       y       z     vdW  Elec       q    Type
REMARK                         _______ _______ _______ _____ _____    ______ ____
ROOT
ATOM      1  O   UNL     1      -2.773  -2.416  -0.149  0.00  0.00    -0.252 OA
ATOM      2  N   UNL     1      -0.640  -1.483  -0.261  0.00  0.00    -0.278 N 
ATOM      3  N   UNL     1       2.114  -1.161   0.217  0.00  0.00    -0.295 NA
ATOM      4  N   UNL     1      -2.391  -0.053  -0.141  0.00  0.00    -0.254 N 
ATOM      6  C   UNL     1      -0.048  -0.179  -0.427  0.00  0.00    +0.109 C 
ATOM      7  C   UNL     1       1.190  -0.035   0.457  0.00  0.00    +0.109 C 
ATOM      8  C   UNL     1      -1.190   0.774  -0.095  0.00  0.00    +0.139 C 
ATOM      9  C   UNL     1       0.207  -2.658  -0.328  0.00  0.00    +0.125 C 
ATOM     10  C   UNL     1       1.462  -2.450   0.524  0.00  0.00    +0.104 C 
ATOM     11  C   UNL     1      -2.041  -1.435  -0.186  0.00  0.00    +0.309 C 
ENDROOT
BRANCH   4  13
ATOM     13  C   UNL     1      -3.702   0.499  -0.065  0.00  0.00    +0.038 A 
ATOM     15  C   UNL     1      -4.812  -0.344  -0.026  0.00  0.00    +0.023 A 
ATOM     16  C   UNL     1      -3.875   1.883  -0.030  0.00  0.00    +0.023 A 
ATOM     19  C   UNL     1      -6.096   0.197   0.049  0.00  0.00    +0.002 A 
ATOM     20  C   UNL     1      -5.159   2.424   0.045  0.00  0.00    +0.002 A 
ATOM     21  C   UNL     1      -6.269   1.581   0.084  0.00  0.00    +0.000 A 
ENDBRANCH   4  13
BRANCH   3  12
ATOM     12  C   UNL     1       3.330  -1.002   1.015  0.00  0.00    +0.121 C 
BRANCH  12  14
ATOM      5  N   UNL     1       5.191   2.249   0.471  0.00  0.00    -0.263 NA
ATOM     14  C   UNL     1       4.263   0.017   0.418  0.00  0.00    -0.015 A 
ATOM     17  C   UNL     1       5.040  -0.287  -0.695  0.00  0.00    +0.008 A 
ATOM     18  C   UNL     1       4.375   1.288   0.958  0.00  0.00    +0.115 A 
ATOM     22  C   UNL     1       5.892   0.675  -1.225  0.00  0.00    +0.020 A 
ATOM     23  C   UNL     1       5.931   1.917  -0.611  0.00  0.00    +0.111 A 
ENDBRANCH  12  14
ENDBRANCH   3  12
TORSDOF 3
