REMARK  Name = 11885145
REMARK  3 active torsions:
REMARK  status: ('A' for Active; 'I' for Inactive)
REMARK    1  A    between atoms: C_15  and  C_18
REMARK    2  A    between atoms: C_16  and  C_19
REMARK    3  A    between atoms: C_29  and  C_34
REMARK                            x       y       z     vdW  Elec       q    Type
REMARK                         _______ _______ _______ _____ _____    ______ ____
ROOT
ATOM      1  O   UNL     1      -0.814  -2.687   1.094  0.00  0.00    -0.267 OA
ATOM      2  O   UNL     1       3.010   0.160   2.763  0.00  0.00    -0.270 OA
ATOM      3  N   UNL     1       3.721  -0.702   0.732  0.00  0.00    -0.297 N 
ATOM      4  N   UNL     1       1.125  -2.271  -0.132  0.00  0.00    -0.311 N 
ATOM      6  C   UNL     1       3.420  -3.166   0.574  0.00  0.00    +0.027 C 
ATOM      7  C   UNL     1       3.215  -1.777  -1.448  0.00  0.00    +0.054 C 
ATOM      8  C   UNL     1       3.745  -3.106  -0.915  0.00  0.00    +0.018 C 
ATOM      9  C   UNL     1       4.089  -1.993   1.315  0.00  0.00    +0.113 C 
ATOM     10  C   UNL     1       1.896  -3.164   0.746  0.00  0.00    +0.130 C 
ATOM     11  C   UNL     1       3.920  -0.610  -0.725  0.00  0.00    +0.117 C 
ATOM     12  C   UNL     1       1.716  -1.666  -1.245  0.00  0.00    +0.027 A 
ATOM     13  C   UNL     1       0.967  -0.954  -2.102  0.00  0.00    +0.022 A 
ATOM     14  C   UNL     1      -0.250  -2.143   0.144  0.00  0.00    +0.259 A 
ATOM     15  C   UNL     1       3.151   0.294   1.546  0.00  0.00    +0.247 C 
ATOM     16  C   UNL     1      -1.053  -1.299  -0.808  0.00  0.00    +0.047 A 
ATOM     17  C   UNL     1      -0.437  -0.766  -1.874  0.00  0.00    +0.015 A 
ENDROOT
BRANCH  16  19
ATOM     19  C   UNL     1      -2.485  -1.043  -0.578  0.00  0.00    -0.012 A 
ATOM     22  C   UNL     1      -2.885   0.058   0.182  0.00  0.00    +0.017 A 
ATOM     23  C   UNL     1      -3.441  -1.898  -1.119  0.00  0.00    +0.009 A 
ATOM     24  C   UNL     1      -4.246   0.315   0.410  0.00  0.00    -0.017 A 
ATOM     25  C   UNL     1      -4.798  -1.657  -0.903  0.00  0.00    +0.009 A 
ATOM     26  C   UNL     1      -5.217  -0.554  -0.141  0.00  0.00    -0.018 A 
ATOM     30  C   UNL     1      -4.665   1.418   1.173  0.00  0.00    +0.008 A 
ATOM     31  C   UNL     1      -6.579  -0.296   0.088  0.00  0.00    +0.008 A 
ATOM     32  C   UNL     1      -6.022   1.659   1.389  0.00  0.00    +0.001 A 
ATOM     33  C   UNL     1      -6.977   0.803   0.848  0.00  0.00    +0.001 A 
ENDBRANCH  16  19
BRANCH  15  18
ATOM     18  C   UNL     1       2.692   1.509   0.887  0.00  0.00    +0.037 A 
ATOM     20  C   UNL     1       1.384   1.592   0.417  0.00  0.00    +0.014 A 
ATOM     21  C   UNL     1       3.564   2.584   0.731  0.00  0.00    +0.014 A 
ATOM     27  C   UNL     1       0.945   2.756  -0.214  0.00  0.00    +0.019 A 
ATOM     28  C   UNL     1       3.125   3.748   0.102  0.00  0.00    +0.019 A 
ATOM     29  C   UNL     1       1.816   3.834  -0.371  0.00  0.00    +0.052 A 
BRANCH  29  34
ATOM      5  N   UNL     1       1.001   5.996  -1.545  0.00  0.00    -0.191 NA
ATOM     34  C   UNL     1       1.367   5.026  -1.019  0.00  0.00    +0.099 C 
ENDBRANCH  29  34
ENDBRANCH  15  18
TORSDOF 3
