REMARK  Name = 38029432
REMARK  15 active torsions:
REMARK  status: ('A' for Active; 'I' for Inactive)
REMARK    1  A    between atoms: O_3  and  C_26
REMARK    2  A    between atoms: N_5  and  C_15
REMARK    3  A    between atoms: N_6  and  C_23
REMARK    4  A    between atoms: C_8  and  C_12
REMARK    5  A    between atoms: C_9  and  C_15
REMARK    6  A    between atoms: C_11  and  C_16
REMARK    7  A    between atoms: C_12  and  C_17
REMARK    8  A    between atoms: C_12  and  C_18
REMARK    9  A    between atoms: C_13  and  C_19
REMARK   10  A    between atoms: C_16  and  C_20
REMARK   11  A    between atoms: C_21  and  C_22
REMARK   12  A    between atoms: C_22  and  C_24
REMARK   13  A    between atoms: C_23  and  C_25
REMARK   14  A    between atoms: C_24  and  C_26
REMARK   15  A    between atoms: C_31  and  C_32
REMARK                            x       y       z     vdW  Elec       q    Type
REMARK                         _______ _______ _______ _____ _____    ______ ____
ROOT
ATOM      8  C   UNL     1       1.017   1.697  -1.200  0.00  0.00    +0.000 C 
ATOM      9  C   UNL     1       2.488   1.967  -1.606  0.00  0.00    +0.032 C 
ATOM     10  C   UNL     1       0.519   2.784  -0.236  0.00  0.00    +0.012 C 
ATOM     11  C   UNL     1       1.373   2.863   1.044  0.00  0.00    +0.023 C 
ATOM     13  C   UNL     1       2.856   2.863   0.733  0.00  0.00    -0.073 C 
ATOM     14  C   UNL     1       3.334   2.472  -0.462  0.00  0.00    -0.022 C 
ATOM     19  C   UNL     1       3.774   3.366   1.812  0.00  0.00    +0.039 C 
ENDROOT
BRANCH   8  12
ATOM     12  C   UNL     1       0.094   1.623  -2.420  0.00  0.00    -0.013 C 
ATOM     17  C   UNL     1      -1.148   0.798  -2.099  0.00  0.00    +0.007 C 
ATOM     18  C   UNL     1      -0.292   3.025  -2.881  0.00  0.00    +0.007 C 
ENDBRANCH   8  12
BRANCH   9  15
ATOM     15  C   UNL     1       3.135   0.714  -2.207  0.00  0.00    +0.112 C 
BRANCH  15   5
ATOM      2  O   UNL     1       1.959  -1.928  -2.297  0.00  0.00    -0.276 OA
ATOM      5  N   UNL     1       3.250  -0.318  -1.224  0.00  0.00    -0.315 N 
ATOM     21  C   UNL     1       2.648  -1.571  -1.345  0.00  0.00    +0.214 C 
ATOM     33  H   UNL     1       3.847  -0.147  -0.420  0.00  0.00    +0.149 HD
BRANCH  21  22
ATOM     22  C   UNL     1       2.939  -2.462  -0.151  0.00  0.00    +0.107 C 
BRANCH  22  24
ATOM     24  C   UNL     1       2.285  -3.835  -0.274  0.00  0.00    +0.129 C 
BRANCH  24  26
ATOM      4  O   UNL     1       3.268  -4.393   1.881  0.00  0.00    -0.251 OA
ATOM     26  C   UNL     1       2.577  -4.709   0.922  0.00  0.00    +0.305 C 
BRANCH  26   3
ATOM      3  O   UNL     1       1.969  -5.920   0.813  0.00  0.00    -0.481 OA
ATOM     35  H   UNL     1       2.154  -6.493   1.588  0.00  0.00    +0.295 HD
ENDBRANCH  26   3
ENDBRANCH  24  26
ENDBRANCH  22  24
ENDBRANCH  21  22
ENDBRANCH  15   5
ENDBRANCH   9  15
BRANCH  11  16
ATOM     16  C   UNL     1       1.016   1.734   2.017  0.00  0.00    +0.103 C 
BRANCH  16  20
ATOM      1  O   UNL     1      -1.180   2.696   2.345  0.00  0.00    -0.276 OA
ATOM      6  N   UNL     1      -0.885   0.404   2.592  0.00  0.00    -0.311 N 
ATOM     20  C   UNL     1      -0.463   1.699   2.330  0.00  0.00    +0.214 C 
ATOM     34  H   UNL     1      -0.216  -0.359   2.552  0.00  0.00    +0.149 HD
BRANCH   6  23
ATOM     23  C   UNL     1      -2.252   0.072   2.924  0.00  0.00    +0.139 C 
BRANCH  23  25
ATOM     25  C   UNL     1      -3.067  -0.240   1.702  0.00  0.00    -0.030 A 
ATOM     27  C   UNL     1      -4.199   0.520   1.406  0.00  0.00    +0.006 A 
ATOM     28  C   UNL     1      -2.691  -1.288   0.862  0.00  0.00    +0.006 A 
ATOM     29  C   UNL     1      -4.956   0.230   0.271  0.00  0.00    +0.019 A 
ATOM     30  C   UNL     1      -3.448  -1.577  -0.274  0.00  0.00    +0.019 A 
ATOM     31  C   UNL     1      -4.580  -0.818  -0.570  0.00  0.00    +0.052 A 
BRANCH  31  32
ATOM      7  N   UNL     1      -5.985  -1.354  -2.677  0.00  0.00    -0.191 NA
ATOM     32  C   UNL     1      -5.356  -1.114  -1.732  0.00  0.00    +0.099 C 
ENDBRANCH  31  32
ENDBRANCH  23  25
ENDBRANCH   6  23
ENDBRANCH  16  20
ENDBRANCH  11  16
TORSDOF 12
