REMARK  Name = 71693102
REMARK  12 active torsions:
REMARK  status: ('A' for Active; 'I' for Inactive)
REMARK    1  A    between atoms: O_2  and  C_29
REMARK    2  A    between atoms: N_4  and  C_15
REMARK    3  A    between atoms: C_8  and  C_12
REMARK    4  A    between atoms: C_9  and  C_15
REMARK    5  A    between atoms: C_11  and  C_16
REMARK    6  A    between atoms: C_12  and  C_17
REMARK    7  A    between atoms: C_12  and  C_18
REMARK    8  A    between atoms: C_13  and  C_19
REMARK    9  A    between atoms: C_16  and  C_20
REMARK   10  A    between atoms: C_21  and  C_24
REMARK   11  A    between atoms: C_24  and  C_26
REMARK   12  A    between atoms: C_26  and  C_29
REMARK                            x       y       z     vdW  Elec       q    Type
REMARK                         _______ _______ _______ _____ _____    ______ ____
ROOT
ATOM      8  C   UNL     1       0.762  -2.011   0.774  0.00  0.00    +0.000 C 
ATOM      9  C   UNL     1       1.712  -2.827  -0.138  0.00  0.00    +0.032 C 
ATOM     10  C   UNL     1      -0.694  -2.171   0.311  0.00  0.00    +0.012 C 
ATOM     11  C   UNL     1      -0.897  -1.707  -1.143  0.00  0.00    +0.022 C 
ATOM     13  C   UNL     1       0.171  -2.261  -2.065  0.00  0.00    -0.073 C 
ATOM     14  C   UNL     1       1.325  -2.770  -1.597  0.00  0.00    -0.022 C 
ATOM     19  C   UNL     1      -0.137  -2.259  -3.536  0.00  0.00    +0.039 C 
ENDROOT
BRANCH   8  12
ATOM     12  C   UNL     1       0.888  -2.427   2.243  0.00  0.00    -0.013 C 
ATOM     17  C   UNL     1       0.451  -1.287   3.158  0.00  0.00    +0.007 C 
ATOM     18  C   UNL     1       0.066  -3.683   2.513  0.00  0.00    +0.007 C 
ENDBRANCH   8  12
BRANCH   9  15
ATOM     15  C   UNL     1       3.165  -2.365   0.023  0.00  0.00    +0.112 C 
BRANCH  15   4
ATOM      1  O   UNL     1       4.060  -0.072   1.543  0.00  0.00    -0.276 OA
ATOM      4  N   UNL     1       3.327  -1.026  -0.448  0.00  0.00    -0.315 N 
ATOM     21  C   UNL     1       3.766   0.029   0.354  0.00  0.00    +0.214 C 
ATOM     30  H   UNL     1       3.165  -0.843  -1.435  0.00  0.00    +0.149 HD
BRANCH  21  24
ATOM     24  C   UNL     1       3.841   1.337  -0.412  0.00  0.00    +0.107 C 
BRANCH  24  26
ATOM     26  C   UNL     1       4.320   2.495   0.457  0.00  0.00    +0.129 C 
BRANCH  26  29
ATOM      3  O   UNL     1       4.111   3.928  -1.499  0.00  0.00    -0.251 OA
ATOM     29  C   UNL     1       4.383   3.793  -0.314  0.00  0.00    +0.305 C 
BRANCH  29   2
ATOM      2  O   UNL     1       4.787   4.822   0.476  0.00  0.00    -0.481 OA
ATOM     32  H   UNL     1       4.829   5.667  -0.019  0.00  0.00    +0.295 HD
ENDBRANCH  29   2
ENDBRANCH  26  29
ENDBRANCH  24  26
ENDBRANCH  21  24
ENDBRANCH  15   4
ENDBRANCH   9  15
BRANCH  11  16
ATOM     16  C   UNL     1      -0.959  -0.178  -1.232  0.00  0.00    +0.082 C 
BRANCH  16  20
ATOM      5  N   UNL     1      -2.425   0.929   0.466  0.00  0.00    -0.341 N 
ATOM      6  N   UNL     1      -3.422   0.315  -1.429  0.00  0.00    -0.213 NA
ATOM      7  N   UNL     1      -5.649   1.095  -0.859  0.00  0.00    -0.234 NA
ATOM     20  C   UNL     1      -2.287   0.345  -0.765  0.00  0.00    +0.110 A 
ATOM     22  C   UNL     1      -3.736   1.299   0.602  0.00  0.00    +0.085 A 
ATOM     23  C   UNL     1      -4.333   0.906  -0.590  0.00  0.00    +0.178 A 
ATOM     25  C   UNL     1      -4.455   1.924   1.615  0.00  0.00    +0.031 A 
ATOM     27  C   UNL     1      -5.808   2.125   1.354  0.00  0.00    +0.022 A 
ATOM     28  C   UNL     1      -6.335   1.704   0.137  0.00  0.00    +0.113 A 
ATOM     31  H   UNL     1      -1.693   1.061   1.151  0.00  0.00    +0.167 HD
ENDBRANCH  16  20
ENDBRANCH  11  16
TORSDOF 9
