REMARK  Name = 40780656
REMARK  14 active torsions:
REMARK  status: ('A' for Active; 'I' for Inactive)
REMARK    1  A    between atoms: O_2  and  C_10
REMARK    2  A    between atoms: O_3  and  C_11
REMARK    3  A    between atoms: O_6  and  C_30
REMARK    4  A    between atoms: O_6  and  C_33
REMARK    5  A    between atoms: N_7  and  C_15
REMARK    6  A    between atoms: N_8  and  C_18
REMARK    7  A    between atoms: N_9  and  C_27
REMARK    8  A    between atoms: N_9  and  C_31
REMARK    9  A    between atoms: N_9  and  C_32
REMARK   10  A    between atoms: C_12  and  C_14
REMARK   11  A    between atoms: C_13  and  C_15
REMARK   12  A    between atoms: C_14  and  C_16
REMARK   13  A    between atoms: C_17  and  C_19
REMARK   14  A    between atoms: C_18  and  C_20
REMARK                            x       y       z     vdW  Elec       q    Type
REMARK                         _______ _______ _______ _____ _____    ______ ____
ROOT
ATOM      1  O   UNL     1      -3.444  -0.864  -0.733  0.00  0.00    -0.366 OA
ATOM     10  C   UNL     1      -4.869  -0.064   0.996  0.00  0.00    +0.175 C 
ATOM     11  C   UNL     1      -4.644   1.037  -0.020  0.00  0.00    +0.176 C 
ATOM     12  C   UNL     1      -3.733  -1.029   0.674  0.00  0.00    +0.158 C 
ATOM     13  C   UNL     1      -4.213   0.241  -1.241  0.00  0.00    +0.167 C 
ENDROOT
BRANCH  10   2
ATOM      2  O   UNL     1      -6.103  -0.731   0.738  0.00  0.00    -0.387 OA
ATOM     34  H   UNL     1      -6.190  -1.445   1.393  0.00  0.00    +0.210 HD
ENDBRANCH  10   2
BRANCH  11   3
ATOM      3  O   UNL     1      -5.798   1.810  -0.272  0.00  0.00    -0.387 OA
ATOM     35  H   UNL     1      -6.088   2.186   0.576  0.00  0.00    +0.210 HD
ENDBRANCH  11   3
BRANCH  12  14
ATOM     14  C   UNL     1      -2.458  -0.730   1.450  0.00  0.00    +0.130 C 
BRANCH  14  16
ATOM      4  O   UNL     1      -1.690  -2.938   0.829  0.00  0.00    -0.276 OA
ATOM      8  N   UNL     1      -0.300  -1.569   2.092  0.00  0.00    -0.311 N 
ATOM     16  C   UNL     1      -1.466  -1.877   1.405  0.00  0.00    +0.216 C 
ATOM     37  H   UNL     1      -0.204  -0.652   2.518  0.00  0.00    +0.149 HD
BRANCH   8  18
ATOM     18  C   UNL     1       0.812  -2.484   2.210  0.00  0.00    +0.139 C 
BRANCH  18  20
ATOM     20  C   UNL     1       1.795  -2.321   1.087  0.00  0.00    -0.030 A 
ATOM     23  C   UNL     1       1.495  -2.818  -0.182  0.00  0.00    +0.009 A 
ATOM     24  C   UNL     1       3.009  -1.673   1.312  0.00  0.00    +0.009 A 
ATOM     28  C   UNL     1       2.408  -2.666  -1.224  0.00  0.00    +0.046 A 
ATOM     29  C   UNL     1       3.923  -1.521   0.270  0.00  0.00    +0.046 A 
ATOM     30  C   UNL     1       3.623  -2.018  -0.999  0.00  0.00    +0.120 A 
BRANCH  30   6
ATOM      6  O   UNL     1       4.514  -1.869  -2.017  0.00  0.00    -0.495 OA
ATOM     33  C   UNL     1       5.736  -1.196  -1.716  0.00  0.00    +0.277 C 
ENDBRANCH  30   6
ENDBRANCH  18  20
ENDBRANCH   8  18
ENDBRANCH  14  16
ENDBRANCH  12  14
BRANCH  13  15
ATOM     15  C   UNL     1      -3.371   1.044  -2.216  0.00  0.00    +0.138 C 
BRANCH  15   7
ATOM      5  O   UNL     1      -0.839  -0.305  -2.106  0.00  0.00    -0.270 OA
ATOM      7  N   UNL     1      -2.172   1.523  -1.594  0.00  0.00    -0.309 N 
ATOM     17  C   UNL     1      -0.983   0.799  -1.588  0.00  0.00    +0.244 C 
ATOM     36  H   UNL     1      -2.206   2.455  -1.194  0.00  0.00    +0.149 HD
BRANCH  17  19
ATOM     19  C   UNL     1       0.163   1.423  -0.877  0.00  0.00    +0.037 A 
ATOM     21  C   UNL     1       1.469   1.116  -1.257  0.00  0.00    +0.015 A 
ATOM     22  C   UNL     1      -0.068   2.315   0.170  0.00  0.00    +0.015 A 
ATOM     25  C   UNL     1       2.545   1.700  -0.589  0.00  0.00    +0.024 A 
ATOM     26  C   UNL     1       1.008   2.899   0.838  0.00  0.00    +0.024 A 
ATOM     27  C   UNL     1       2.314   2.592   0.459  0.00  0.00    +0.029 A 
BRANCH  27   9
ATOM      9  N   UNL     1       3.402   3.184   1.134  0.00  0.00    -0.336 N 
ATOM     31  C   UNL     1       4.763   2.872   0.748  0.00  0.00    +0.129 C 
ATOM     32  C   UNL     1       3.172   4.117   2.219  0.00  0.00    +0.129 C 
ENDBRANCH  27   9
ENDBRANCH  17  19
ENDBRANCH  15   7
ENDBRANCH  13  15
TORSDOF 11
