REMARK  Name = 25312749
REMARK  7 active torsions:
REMARK  status: ('A' for Active; 'I' for Inactive)
REMARK    1  A    between atoms: O_3  and  C_30
REMARK    2  A    between atoms: N_5  and  C_17
REMARK    3  A    between atoms: N_8  and  C_27
REMARK    4  A    between atoms: C_13  and  C_18
REMARK    5  A    between atoms: C_15  and  C_23
REMARK    6  A    between atoms: C_17  and  C_18
REMARK    7  A    between atoms: C_23  and  C_30
REMARK                            x       y       z     vdW  Elec       q    Type
REMARK                         _______ _______ _______ _____ _____    ______ ____
ROOT
ATOM      2  O   UNL     1      -4.602  -2.536   0.141  0.00  0.00    -0.253 OA
ATOM      7  N   UNL     1      -2.458  -1.945   0.798  0.00  0.00    -0.285 N 
ATOM      8  N   UNL     1      -4.186  -0.338   0.647  0.00  0.00    -0.296 N 
ATOM     13  C   UNL     1      -0.261  -0.935   0.251  0.00  0.00    +0.011 C 
ATOM     15  C   UNL     1       0.307  -2.365   0.054  0.00  0.00    +0.006 C 
ATOM     20  C   UNL     1      -1.440  -0.980   1.239  0.00  0.00    +0.113 C 
ATOM     21  C   UNL     1      -0.796  -3.373  -0.317  0.00  0.00    +0.023 C 
ATOM     22  C   UNL     1      -1.961  -3.315   0.670  0.00  0.00    +0.109 C 
ATOM     26  C   UNL     1      -3.803  -1.667   0.506  0.00  0.00    +0.302 C 
ATOM     36  H   UNL     1      -3.494   0.383   0.790  0.00  0.00    +0.151 HD
ENDROOT
BRANCH   8  27
ATOM     27  C   UNL     1      -5.535   0.106   0.375  0.00  0.00    +0.074 C 
ATOM     31  C   UNL     1      -5.923   1.277   1.285  0.00  0.00    +0.022 C 
ATOM     32  C   UNL     1      -5.708   0.471  -1.103  0.00  0.00    +0.022 C 
ATOM     33  C   UNL     1      -5.203   2.572   0.910  0.00  0.00    +0.002 C 
ATOM     34  C   UNL     1      -4.988   1.768  -1.474  0.00  0.00    +0.002 C 
ATOM     35  C   UNL     1      -5.399   2.920  -0.562  0.00  0.00    +0.000 C 
ENDBRANCH   8  27
BRANCH  13  18
ATOM     18  C   UNL     1      -0.681  -0.244  -1.052  0.00  0.00    +0.020 C 
BRANCH  18  17
ATOM     17  C   UNL     1      -0.628   1.275  -0.918  0.00  0.00    +0.085 C 
BRANCH  17   5
ATOM      1  O   UNL     1       4.111   0.742   2.972  0.00  0.00    -0.268 OA
ATOM      5  N   UNL     1       0.733   1.710  -0.614  0.00  0.00    -0.301 NA
ATOM      6  N   UNL     1       3.578   1.468   0.810  0.00  0.00    -0.312 N 
ATOM      9  C   UNL     1       2.156   3.545   0.333  0.00  0.00    +0.024 C 
ATOM     10  C   UNL     1       3.006   2.200  -1.530  0.00  0.00    +0.050 C 
ATOM     11  C   UNL     1       2.959   3.615  -0.959  0.00  0.00    +0.017 C 
ATOM     12  C   UNL     1       0.732   3.023   0.043  0.00  0.00    +0.089 C 
ATOM     14  C   UNL     1       1.568   1.714  -1.824  0.00  0.00    +0.094 C 
ATOM     16  C   UNL     1       2.912   2.666   1.339  0.00  0.00    +0.130 C 
ATOM     19  C   UNL     1       3.699   1.254  -0.567  0.00  0.00    +0.026 A 
ATOM     24  C   UNL     1       4.408   0.210  -1.029  0.00  0.00    +0.022 A 
ATOM     25  C   UNL     1       4.168   0.603   1.750  0.00  0.00    +0.251 A 
ATOM     28  C   UNL     1       5.031  -0.713  -0.123  0.00  0.00    +0.007 A 
ATOM     29  C   UNL     1       4.925  -0.556   1.199  0.00  0.00    +0.070 A 
ENDBRANCH  17   5
ENDBRANCH  18  17
ENDBRANCH  13  18
BRANCH  15  23
ATOM     23  C   UNL     1       1.451  -2.421  -0.958  0.00  0.00    +0.124 C 
BRANCH  23  30
ATOM      4  O   UNL     1       2.178  -4.487   0.113  0.00  0.00    -0.251 OA
ATOM     30  C   UNL     1       2.323  -3.627  -0.744  0.00  0.00    +0.305 C 
BRANCH  30   3
ATOM      3  O   UNL     1       3.327  -3.635  -1.658  0.00  0.00    -0.481 OA
ATOM     37  H   UNL     1       3.918  -4.410  -1.546  0.00  0.00    +0.295 HD
ENDBRANCH  30   3
ENDBRANCH  23  30
ENDBRANCH  15  23
TORSDOF 7
