REMARK  Name = 40533565
REMARK  3 active torsions:
REMARK  status: ('A' for Active; 'I' for Inactive)
REMARK    1  A    between atoms: S_1  and  N_5
REMARK    2  A    between atoms: S_1  and  C_19
REMARK    3  A    between atoms: C_17  and  C_20
REMARK                            x       y       z     vdW  Elec       q    Type
REMARK                         _______ _______ _______ _____ _____    ______ ____
ROOT
ATOM      4  O   UNL     1      -2.890   0.703  -1.853  0.00  0.00    -0.267 OA
ATOM      5  N   UNL     1       1.805  -0.027  -0.350  0.00  0.00    -0.176 NA
ATOM      6  N   UNL     1      -1.107   1.194  -0.432  0.00  0.00    -0.311 N 
ATOM      8  C   UNL     1       1.100   2.181  -1.277  0.00  0.00    +0.025 C 
ATOM      9  C   UNL     1       0.809   1.716   1.117  0.00  0.00    +0.052 C 
ATOM     10  C   UNL     1       1.192   2.799   0.112  0.00  0.00    +0.017 C 
ATOM     11  C   UNL     1       2.067   0.993  -1.406  0.00  0.00    +0.114 C 
ATOM     12  C   UNL     1       1.813   0.552   1.027  0.00  0.00    +0.119 C 
ATOM     13  C   UNL     1      -0.356   1.783  -1.549  0.00  0.00    +0.130 C 
ATOM     14  C   UNL     1      -0.602   1.216   0.870  0.00  0.00    +0.026 A 
ATOM     15  C   UNL     1      -1.354   0.779   1.892  0.00  0.00    +0.022 A 
ATOM     16  C   UNL     1      -2.397   0.707  -0.724  0.00  0.00    +0.259 A 
ATOM     17  C   UNL     1      -3.203   0.189   0.438  0.00  0.00    +0.048 A 
ATOM     18  C   UNL     1      -2.671   0.253   1.667  0.00  0.00    +0.015 A 
ENDROOT
BRANCH  17  20
ATOM      7  N   UNL     1      -6.913  -0.312   0.722  0.00  0.00    -0.263 NA
ATOM     20  C   UNL     1      -4.545  -0.385   0.240  0.00  0.00    +0.005 A 
ATOM     23  C   UNL     1      -4.737  -1.496  -0.574  0.00  0.00    +0.011 A 
ATOM     26  C   UNL     1      -5.655   0.165   0.860  0.00  0.00    +0.119 A 
ATOM     28  C   UNL     1      -6.016  -2.015  -0.741  0.00  0.00    +0.020 A 
ATOM     29  C   UNL     1      -7.061  -1.393  -0.077  0.00  0.00    +0.111 A 
ENDBRANCH  17  20
BRANCH   5   1
ATOM      1  S   UNL     1       2.637  -1.512  -0.532  0.00  0.00    +0.061 S 
ATOM      2  O   UNL     1       2.684  -1.858  -1.937  0.00  0.00    -0.153 OA
ATOM      3  O   UNL     1       2.143  -2.453   0.451  0.00  0.00    -0.153 OA
BRANCH   1  19
ATOM     19  C   UNL     1       4.261  -1.019  -0.043  0.00  0.00    +0.105 A 
ATOM     21  C   UNL     1       4.644  -1.111   1.295  0.00  0.00    +0.028 A 
ATOM     22  C   UNL     1       5.160  -0.539  -0.995  0.00  0.00    +0.028 A 
ATOM     24  C   UNL     1       5.926  -0.721   1.681  0.00  0.00    +0.002 A 
ATOM     25  C   UNL     1       6.442  -0.150  -0.609  0.00  0.00    +0.002 A 
ATOM     27  C   UNL     1       6.825  -0.241   0.730  0.00  0.00    +0.000 A 
ENDBRANCH   1  19
ENDBRANCH   5   1
TORSDOF 3
