REMARK  Name = 51137946
REMARK  8 active torsions:
REMARK  status: ('A' for Active; 'I' for Inactive)
REMARK    1  A    between atoms: N_3  and  C_19
REMARK    2  A    between atoms: N_5  and  C_23
REMARK    3  A    between atoms: C_6  and  C_9
REMARK    4  A    between atoms: C_7  and  C_20
REMARK    5  A    between atoms: C_9  and  C_13
REMARK    6  A    between atoms: C_13  and  C_24
REMARK    7  A    between atoms: C_13  and  C_25
REMARK    8  A    between atoms: C_19  and  C_23
REMARK                            x       y       z     vdW  Elec       q    Type
REMARK                         _______ _______ _______ _____ _____    ______ ____
ROOT
ATOM      2  N   UNL     1       0.663  -0.293  -0.459  0.00  0.00    -0.299 NA
ATOM      4  N   UNL     1       5.018   2.255  -0.244  0.00  0.00    -0.360 N 
ATOM      6  C   UNL     1       1.618  -1.192   0.203  0.00  0.00    +0.085 C 
ATOM      7  C   UNL     1       0.501   1.003   0.185  0.00  0.00    +0.145 C 
ATOM      8  C   UNL     1       3.075  -0.720   0.227  0.00  0.00    -0.021 A 
ATOM     10  C   UNL     1       1.366   2.072  -0.480  0.00  0.00    +0.065 C 
ATOM     11  C   UNL     1       3.509   0.615  -0.019  0.00  0.00    +0.008 A 
ATOM     12  C   UNL     1       2.832   1.846  -0.325  0.00  0.00    -0.020 A 
ATOM     18  C   UNL     1       4.874   0.919   0.048  0.00  0.00    +0.047 A 
ATOM     21  C   UNL     1       3.798   2.823  -0.464  0.00  0.00    +0.087 A 
ATOM     22  C   UNL     1       4.083  -1.647   0.596  0.00  0.00    +0.006 A 
ATOM     26  C   UNL     1       5.856  -0.020   0.367  0.00  0.00    +0.026 A 
ATOM     27  C   UNL     1       5.434  -1.311   0.654  0.00  0.00    +0.002 A 
ATOM     28  H   UNL     1       0.887  -0.188  -1.447  0.00  0.00    +0.123 HD
ATOM     29  H   UNL     1       5.900   2.747  -0.273  0.00  0.00    +0.165 HD
ENDROOT
BRANCH   7  20
ATOM      1  O   UNL     1      -1.336   1.993  -0.973  0.00  0.00    -0.274 OA
ATOM      5  N   UNL     1      -1.731   0.902   1.045  0.00  0.00    -0.313 N 
ATOM     20  C   UNL     1      -0.944   1.355   0.001  0.00  0.00    +0.230 C 
ATOM     30  H   UNL     1      -1.304   0.367   1.797  0.00  0.00    +0.149 HD
BRANCH   5  23
ATOM     23  C   UNL     1      -3.156   1.131   1.119  0.00  0.00    +0.119 C 
BRANCH  23  19
ATOM     19  C   UNL     1      -3.930   0.007   0.446  0.00  0.00    +0.103 C 
BRANCH  19   3
ATOM      3  N   UNL     1      -5.361   0.263   0.523  0.00  0.00    -0.301 NA
ATOM     14  C   UNL     1      -5.808   1.237  -0.472  0.00  0.00    +0.084 C 
ATOM     15  C   UNL     1      -6.157  -0.937   0.264  0.00  0.00    +0.084 C 
ATOM     16  C   UNL     1      -7.318   1.053  -0.475  0.00  0.00    +0.017 C 
ATOM     17  C   UNL     1      -7.548  -0.374   0.012  0.00  0.00    +0.017 C 
ENDBRANCH  19   3
ENDBRANCH  23  19
ENDBRANCH   5  23
ENDBRANCH   7  20
BRANCH   6   9
ATOM      9  C   UNL     1       1.446  -2.541  -0.518  0.00  0.00    +0.026 C 
BRANCH   9  13
ATOM     13  C   UNL     1       0.184  -3.294  -0.087  0.00  0.00    -0.015 C 
ATOM     24  C   UNL     1       0.128  -4.641  -0.811  0.00  0.00    +0.007 C 
ATOM     25  C   UNL     1      -1.096  -2.504  -0.365  0.00  0.00    +0.007 C 
ENDBRANCH   9  13
ENDBRANCH   6   9
TORSDOF 6
