REMARK  Name = 7144186
REMARK  4 active torsions:
REMARK  status: ('A' for Active; 'I' for Inactive)
REMARK    1  A    between atoms: O_6  and  C_30
REMARK    2  A    between atoms: O_6  and  C_33
REMARK    3  A    between atoms: C_17  and  C_22
REMARK    4  A    between atoms: C_19  and  C_23
REMARK                            x       y       z     vdW  Elec       q    Type
REMARK                         _______ _______ _______ _____ _____    ______ ____
ROOT
ATOM      4  O   UNL     1       3.980   2.532  -1.853  0.00  0.00    -0.268 OA
ATOM      5  O   UNL     1       4.312  -1.581   1.101  0.00  0.00    -0.270 OA
ATOM      7  N   UNL     1       2.392  -0.434   1.784  0.00  0.00    -0.297 N 
ATOM      8  N   UNL     1       2.323   1.925  -0.312  0.00  0.00    -0.311 N 
ATOM     10  C   UNL     1       2.756   1.982   2.216  0.00  0.00    +0.027 C 
ATOM     11  C   UNL     1       0.582   1.215   1.356  0.00  0.00    +0.054 C 
ATOM     12  C   UNL     1       1.253   2.192   2.321  0.00  0.00    +0.018 C 
ATOM     13  C   UNL     1       3.129   0.537   2.590  0.00  0.00    +0.113 C 
ATOM     14  C   UNL     1       3.197   2.339   0.795  0.00  0.00    +0.130 C 
ATOM     15  C   UNL     1       0.936  -0.233   1.759  0.00  0.00    +0.117 C 
ATOM     16  C   UNL     1       1.006   1.473  -0.092  0.00  0.00    +0.034 A 
ATOM     17  C   UNL     1       0.181   1.251  -1.148  0.00  0.00    +0.002 A 
ATOM     18  C   UNL     1       2.845   2.127  -1.603  0.00  0.00    +0.252 A 
ATOM     19  C   UNL     1       3.094  -1.415   1.078  0.00  0.00    +0.247 C 
ATOM     20  C   UNL     1       0.686   1.444  -2.494  0.00  0.00    +0.015 A 
ATOM     21  C   UNL     1       1.936   1.839  -2.736  0.00  0.00    +0.071 A 
ENDROOT
BRANCH  19  23
ATOM      9  N   UNL     1       0.890  -4.056  -1.432  0.00  0.00    -0.263 NA
ATOM     23  C   UNL     1       2.334  -2.325   0.213  0.00  0.00    +0.040 A 
ATOM     26  C   UNL     1       2.112  -1.994  -1.117  0.00  0.00    +0.033 A 
ATOM     27  C   UNL     1       1.839  -3.516   0.725  0.00  0.00    +0.033 A 
ATOM     31  C   UNL     1       1.389  -2.886  -1.892  0.00  0.00    +0.111 A 
ATOM     32  C   UNL     1       1.128  -4.341  -0.132  0.00  0.00    +0.111 A 
ENDBRANCH  19  23
BRANCH  17  22
ATOM     22  C   UNL     1      -1.216   0.800  -0.964  0.00  0.00    -0.016 A 
ATOM     24  C   UNL     1      -1.500  -0.561  -0.903  0.00  0.00    +0.012 A 
ATOM     25  C   UNL     1      -2.236   1.740  -0.852  0.00  0.00    +0.012 A 
ATOM     28  C   UNL     1      -2.817  -0.986  -0.730  0.00  0.00    +0.046 A 
ATOM     29  C   UNL     1      -3.553   1.314  -0.678  0.00  0.00    +0.046 A 
ATOM     30  C   UNL     1      -3.844  -0.049  -0.617  0.00  0.00    +0.130 A 
BRANCH  30   6
ATOM      6  O   UNL     1      -5.129  -0.464  -0.448  0.00  0.00    -0.406 OA
BRANCH   6  33
ATOM      1  F   UNL     1      -6.702  -1.019   1.073  0.00  0.00    -0.133 F 
ATOM      2  F   UNL     1      -4.967   0.119   1.758  0.00  0.00    -0.133 F 
ATOM      3  F   UNL     1      -6.514   1.084   0.509  0.00  0.00    -0.133 F 
ATOM     33  C   UNL     1      -5.821  -0.053   0.726  0.00  0.00    +0.575 C 
ENDBRANCH   6  33
ENDBRANCH  30   6
ENDBRANCH  17  22
TORSDOF 4
