REMARK  Name = 75536857
REMARK  5 active torsions:
REMARK  status: ('A' for Active; 'I' for Inactive)
REMARK    1  A    between atoms: S_1  and  N_10
REMARK    2  A    between atoms: S_1  and  C_17
REMARK    3  A    between atoms: O_7  and  C_13
REMARK    4  A    between atoms: O_7  and  C_20
REMARK    5  A    between atoms: C_26  and  C_28
REMARK                            x       y       z     vdW  Elec       q    Type
REMARK                         _______ _______ _______ _____ _____    ______ ____
ROOT
ATOM      6  O   UNL     1       1.628   3.608  -0.114  0.00  0.00    -0.375 OA
ATOM     10  N   UNL     1       1.347   0.690  -1.006  0.00  0.00    -0.171 NA
ATOM     12  C   UNL     1       0.723   0.905   0.334  0.00  0.00    +0.156 C 
ATOM     13  C   UNL     1      -0.290   2.044   0.248  0.00  0.00    +0.216 C 
ATOM     14  C   UNL     1       2.390   1.698  -1.363  0.00  0.00    +0.137 C 
ATOM     15  C   UNL     1       0.325   3.434   0.426  0.00  0.00    +0.205 C 
ATOM     16  C   UNL     1       1.805   3.102  -1.432  0.00  0.00    +0.177 C 
ENDROOT
BRANCH  10   1
ATOM      1  S   UNL     1       1.763  -0.937  -1.368  0.00  0.00    +0.061 S 
ATOM      8  O   UNL     1       2.159  -1.021  -2.755  0.00  0.00    -0.153 OA
ATOM      9  O   UNL     1       0.746  -1.809  -0.825  0.00  0.00    -0.153 OA
BRANCH   1  17
ATOM      2  F   UNL     1       6.608  -1.501   1.940  0.00  0.00    -0.205 F 
ATOM     17  C   UNL     1       3.213  -1.107  -0.377  0.00  0.00    +0.106 A 
ATOM     18  C   UNL     1       3.110  -1.553   0.941  0.00  0.00    +0.031 A 
ATOM     19  C   UNL     1       4.463  -0.794  -0.912  0.00  0.00    +0.031 A 
ATOM     21  C   UNL     1       4.257  -1.686   1.723  0.00  0.00    +0.040 A 
ATOM     22  C   UNL     1       5.610  -0.928  -0.129  0.00  0.00    +0.040 A 
ATOM     24  C   UNL     1       5.507  -1.374   1.188  0.00  0.00    +0.124 A 
ENDBRANCH   1  17
ENDBRANCH  10   1
BRANCH  13   7
ATOM      7  O   UNL     1      -1.285   1.851   1.254  0.00  0.00    -0.469 OA
BRANCH   7  20
ATOM     11  N   UNL     1      -2.140   0.095   0.004  0.00  0.00    -0.221 NA
ATOM     20  C   UNL     1      -2.357   1.073   0.913  0.00  0.00    +0.215 A 
ATOM     23  C   UNL     1      -3.584   1.323   1.506  0.00  0.00    +0.068 A 
ATOM     25  C   UNL     1      -4.658   0.517   1.143  0.00  0.00    +0.019 A 
ATOM     26  C   UNL     1      -4.475  -0.498   0.212  0.00  0.00    +0.073 A 
ATOM     27  C   UNL     1      -3.208  -0.667  -0.324  0.00  0.00    +0.127 A 
BRANCH  26  28
ATOM      3  F   UNL     1      -6.774  -1.062   0.434  0.00  0.00    -0.166 F 
ATOM      4  F   UNL     1      -5.887  -1.323  -1.534  0.00  0.00    -0.166 F 
ATOM      5  F   UNL     1      -5.394  -2.702   0.067  0.00  0.00    -0.166 F 
ATOM     28  C   UNL     1      -5.604  -1.376  -0.197  0.00  0.00    +0.419 C 
ENDBRANCH  26  28
ENDBRANCH   7  20
ENDBRANCH  13   7
TORSDOF 5
