REMARK  Name = 45361403
REMARK  12 active torsions:
REMARK  status: ('A' for Active; 'I' for Inactive)
REMARK    1  A    between atoms: O_1  and  C_10
REMARK    2  A    between atoms: N_4  and  C_14
REMARK    3  A    between atoms: N_5  and  C_24
REMARK    4  A    between atoms: N_5  and  C_25
REMARK    5  A    between atoms: C_7  and  C_17
REMARK    6  A    between atoms: C_9  and  C_19
REMARK    7  A    between atoms: C_12  and  C_18
REMARK    8  A    between atoms: C_18  and  C_20
REMARK    9  A    between atoms: C_18  and  C_21
REMARK   10  A    between atoms: C_22  and  C_23
REMARK   11  A    between atoms: C_24  and  C_26
REMARK   12  A    between atoms: C_26  and  C_32
REMARK                            x       y       z     vdW  Elec       q    Type
REMARK                         _______ _______ _______ _____ _____    ______ ____
ROOT
ATOM      7  C   UNL     1       0.117  -2.131   0.216  0.00  0.00    -0.027 C 
ATOM      8  C   UNL     1       0.157  -0.570   0.116  0.00  0.00    +0.028 C 
ATOM      9  C   UNL     1      -1.222  -0.005  -0.380  0.00  0.00    +0.012 C 
ATOM     10  C   UNL     1       1.402  -0.088  -0.683  0.00  0.00    +0.122 C 
ATOM     11  C   UNL     1       1.448  -2.645   0.813  0.00  0.00    +0.007 C 
ATOM     12  C   UNL     1       2.723  -0.688  -0.145  0.00  0.00    +0.029 C 
ATOM     13  C   UNL     1      -1.021  -2.545   1.178  0.00  0.00    +0.009 C 
ATOM     14  C   UNL     1      -2.369  -0.490   0.552  0.00  0.00    +0.076 C 
ATOM     15  C   UNL     1       2.667  -2.208   0.011  0.00  0.00    +0.007 C 
ATOM     16  C   UNL     1      -2.381  -2.004   0.763  0.00  0.00    +0.023 C 
ATOM     17  C   UNL     1      -0.106  -2.809  -1.160  0.00  0.00    +0.011 C 
ATOM     19  C   UNL     1      -1.262   1.529  -0.473  0.00  0.00    +0.010 C 
ENDROOT
BRANCH  14   4
ATOM      3  O   UNL     1      -4.678   0.153   2.133  0.00  0.00    -0.270 OA
ATOM      4  N   UNL     1      -3.668  -0.084   0.059  0.00  0.00    -0.308 N 
ATOM     22  C   UNL     1      -4.724   0.205   0.907  0.00  0.00    +0.244 C 
ATOM     33  H   UNL     1      -3.812  -0.131  -0.944  0.00  0.00    +0.149 HD
BRANCH  22  23
ATOM     23  C   UNL     1      -5.999   0.581   0.244  0.00  0.00    +0.037 A 
ATOM     27  C   UNL     1      -7.215   0.351   0.888  0.00  0.00    +0.013 A 
ATOM     28  C   UNL     1      -5.981   1.165  -1.022  0.00  0.00    +0.013 A 
ATOM     29  C   UNL     1      -8.412   0.705   0.266  0.00  0.00    +0.001 A 
ATOM     30  C   UNL     1      -7.178   1.520  -1.645  0.00  0.00    +0.001 A 
ATOM     31  C   UNL     1      -8.393   1.289  -1.000  0.00  0.00    +0.000 A 
ENDBRANCH  22  23
ENDBRANCH  14   4
BRANCH  10   1
ATOM      1  O   UNL     1       1.523   1.330  -0.569  0.00  0.00    -0.391 OA
ATOM     34  H   UNL     1       1.627   1.550   0.372  0.00  0.00    +0.210 HD
ENDBRANCH  10   1
BRANCH  12  18
ATOM     18  C   UNL     1       3.920  -0.307  -1.024  0.00  0.00    +0.078 C 
ATOM     20  C   UNL     1       3.701  -0.837  -2.442  0.00  0.00    +0.017 C 
BRANCH  18  21
ATOM      2  O   UNL     1       5.579  -2.009  -0.731  0.00  0.00    -0.275 OA
ATOM      5  N   UNL     1       5.907  -0.071   0.490  0.00  0.00    -0.303 N 
ATOM     21  C   UNL     1       5.208  -0.872  -0.419  0.00  0.00    +0.219 C 
ATOM     25  C   UNL     1       7.127  -0.589   1.102  0.00  0.00    +0.132 C 
BRANCH   5  24
ATOM     24  C   UNL     1       5.558   1.292   0.884  0.00  0.00    +0.122 C 
BRANCH  24  26
ATOM     26  C   UNL     1       6.206   2.341  -0.011  0.00  0.00    +0.137 C 
BRANCH  26  32
ATOM      6  N   UNL     1       5.535   4.785   0.697  0.00  0.00    -0.197 NA
ATOM     32  C   UNL     1       5.831   3.707   0.386  0.00  0.00    +0.064 C 
ENDBRANCH  26  32
ENDBRANCH  24  26
ENDBRANCH   5  24
ENDBRANCH  18  21
ENDBRANCH  12  18
TORSDOF 8
