REMARK  Name = 26742500
REMARK  7 active torsions:
REMARK  status: ('A' for Active; 'I' for Inactive)
REMARK    1  A    between atoms: O_3  and  C_27
REMARK    2  A    between atoms: O_3  and  C_28
REMARK    3  A    between atoms: N_5  and  C_15
REMARK    4  A    between atoms: N_6  and  C_16
REMARK    5  A    between atoms: N_7  and  C_22
REMARK    6  A    between atoms: C_9  and  C_15
REMARK    7  A    between atoms: C_10  and  C_16
REMARK                            x       y       z     vdW  Elec       q    Type
REMARK                         _______ _______ _______ _____ _____    ______ ____
ROOT
ATOM      4  N   UNL     1      -1.932  -1.886  -1.048  0.00  0.00    -0.298 NA
ATOM      8  C   UNL     1      -2.578  -1.690   1.464  0.00  0.00    -0.003 C 
ATOM      9  C   UNL     1      -3.684  -1.095   0.562  0.00  0.00    +0.020 C 
ATOM     10  C   UNL     1      -0.830  -1.238  -0.288  0.00  0.00    +0.074 C 
ATOM     11  C   UNL     1      -1.246  -0.974   1.176  0.00  0.00    +0.024 C 
ATOM     12  C   UNL     1      -3.186  -1.107  -0.901  0.00  0.00    +0.089 C 
ATOM     13  C   UNL     1      -2.404  -3.163   1.046  0.00  0.00    +0.019 C 
ATOM     14  C   UNL     1      -2.155  -3.234  -0.471  0.00  0.00    +0.085 C 
ENDROOT
BRANCH   9  15
ATOM     15  C   UNL     1      -4.129   0.300   0.994  0.00  0.00    +0.089 C 
BRANCH  15   5
ATOM      1  S   UNL     1      -7.970   2.298  -0.434  0.00  0.00    -0.158 S 
ATOM      5  N   UNL     1      -5.220   0.789   0.148  0.00  0.00    -0.300 NA
ATOM     17  C   UNL     1      -6.493   0.183   0.568  0.00  0.00    +0.095 C 
ATOM     18  C   UNL     1      -5.276   2.258   0.197  0.00  0.00    +0.095 C 
ATOM     19  C   UNL     1      -7.644   0.516  -0.379  0.00  0.00    +0.084 C 
ATOM     20  C   UNL     1      -6.278   2.842  -0.795  0.00  0.00    +0.084 C 
ENDBRANCH  15   5
ENDBRANCH   9  15
BRANCH  10  16
ATOM     16  C   UNL     1      -0.317   0.032  -0.971  0.00  0.00    +0.124 C 
BRANCH  16   6
ATOM      2  O   UNL     1       2.429  -0.610  -1.471  0.00  0.00    -0.253 OA
ATOM      6  N   UNL     1       0.822   0.556  -0.284  0.00  0.00    -0.298 N 
ATOM      7  N   UNL     1       3.047   0.865   0.248  0.00  0.00    -0.269 N 
ATOM     21  C   UNL     1       2.147   0.194  -0.585  0.00  0.00    +0.304 C 
ATOM     29  H   UNL     1       0.666   1.225   0.464  0.00  0.00    +0.150 HD
ATOM     30  H   UNL     1       2.646   1.499   0.934  0.00  0.00    +0.156 HD
BRANCH   7  22
ATOM     22  C   UNL     1       4.458   0.770   0.258  0.00  0.00    +0.035 A 
ATOM     23  C   UNL     1       5.201   1.520   1.169  0.00  0.00    +0.027 A 
ATOM     24  C   UNL     1       5.107  -0.073  -0.645  0.00  0.00    +0.027 A 
ATOM     25  C   UNL     1       6.593   1.427   1.179  0.00  0.00    +0.047 A 
ATOM     26  C   UNL     1       6.498  -0.167  -0.635  0.00  0.00    +0.047 A 
ATOM     27  C   UNL     1       7.241   0.583   0.276  0.00  0.00    +0.120 A 
BRANCH  27   3
ATOM      3  O   UNL     1       8.599   0.492   0.286  0.00  0.00    -0.495 OA
ATOM     28  C   UNL     1       9.197  -0.389  -0.664  0.00  0.00    +0.277 C 
ENDBRANCH  27   3
ENDBRANCH   7  22
ENDBRANCH  16   6
ENDBRANCH  10  16
TORSDOF 6
