REMARK  Name = 11941643
REMARK  9 active torsions:
REMARK  status: ('A' for Active; 'I' for Inactive)
REMARK    1  A    between atoms: N_5  and  C_12
REMARK    2  A    between atoms: N_6  and  C_13
REMARK    3  A    between atoms: N_8  and  C_25
REMARK    4  A    between atoms: C_18  and  C_19
REMARK    5  A    between atoms: C_18  and  C_22
REMARK    6  A    between atoms: C_18  and  C_23
REMARK    7  A    between atoms: C_18  and  C_24
REMARK    8  A    between atoms: C_30  and  C_31
REMARK    9  A    between atoms: C_31  and  C_32
REMARK                            x       y       z     vdW  Elec       q    Type
REMARK                         _______ _______ _______ _____ _____    ______ ____
ROOT
ATOM      1  O   UNL     1      -1.290  -3.271  -0.945  0.00  0.00    -0.370 OA
ATOM      2  O   UNL     1      -1.871  -1.793   1.741  0.00  0.00    -0.370 OA
ATOM     10  C   UNL     1      -1.905  -1.381   0.364  0.00  0.00    +0.171 C 
ATOM     11  C   UNL     1      -0.759  -2.079  -0.343  0.00  0.00    +0.171 C 
ATOM     12  C   UNL     1      -3.142  -1.923  -0.314  0.00  0.00    +0.130 C 
ATOM     13  C   UNL     1       0.198  -2.435   0.772  0.00  0.00    +0.131 C 
ATOM     14  C   UNL     1      -2.709  -3.316  -0.732  0.00  0.00    +0.185 C 
ATOM     15  C   UNL     1      -0.738  -2.650   1.948  0.00  0.00    +0.185 C 
ENDROOT
BRANCH  12   5
ATOM      5  N   UNL     1      -3.456  -1.125  -1.479  0.00  0.00    -0.306 N 
ATOM      7  N   UNL     1      -4.657   0.445  -0.216  0.00  0.00    -0.219 NA
ATOM      9  N   UNL     1      -4.423   0.695  -2.602  0.00  0.00    -0.223 NA
ATOM     16  C   UNL     1      -4.201   0.040  -1.431  0.00  0.00    +0.216 A 
ATOM     19  C   UNL     1      -5.380   1.585  -0.205  0.00  0.00    +0.052 A 
ATOM     20  C   UNL     1      -5.661   2.325  -1.336  0.00  0.00    +0.043 A 
ATOM     21  C   UNL     1      -5.152   1.827  -2.518  0.00  0.00    +0.116 A 
ATOM     33  H   UNL     1      -3.077  -1.390  -2.381  0.00  0.00    +0.149 HD
BRANCH  19  18
ATOM     18  C   UNL     1      -5.888   2.045   1.119  0.00  0.00    +0.005 C 
ATOM     22  C   UNL     1      -5.512   1.135   2.335  0.00  0.00    +0.017 C 
ATOM     23  C   UNL     1      -5.340   3.461   1.475  0.00  0.00    +0.017 C 
ATOM     24  C   UNL     1      -7.446   2.128   1.129  0.00  0.00    +0.017 C 
ENDBRANCH  19  18
ENDBRANCH  12   5
BRANCH  13   6
ATOM      3  O   UNL     1       2.833  -2.144  -0.315  0.00  0.00    -0.252 OA
ATOM      6  N   UNL     1       1.124  -1.359   1.029  0.00  0.00    -0.292 N 
ATOM      8  N   UNL     1       3.066  -0.141   0.886  0.00  0.00    -0.269 N 
ATOM     17  C   UNL     1       2.399  -1.291   0.455  0.00  0.00    +0.304 C 
ATOM     34  H   UNL     1       0.812  -0.580   1.602  0.00  0.00    +0.151 HD
ATOM     35  H   UNL     1       2.562   0.464   1.530  0.00  0.00    +0.156 HD
BRANCH   8  25
ATOM     25  C   UNL     1       4.367   0.290   0.537  0.00  0.00    +0.035 A 
ATOM     26  C   UNL     1       5.125  -0.476  -0.334  0.00  0.00    +0.024 A 
ATOM     27  C   UNL     1       4.858   1.469   1.075  0.00  0.00    +0.024 A 
ATOM     28  C   UNL     1       6.408  -0.051  -0.677  0.00  0.00    +0.013 A 
ATOM     29  C   UNL     1       6.141   1.894   0.732  0.00  0.00    +0.013 A 
ATOM     30  C   UNL     1       6.916   1.134  -0.144  0.00  0.00    +0.017 A 
BRANCH  30  31
ATOM      4  O   UNL     1       8.735   2.633  -0.043  0.00  0.00    -0.292 OA
ATOM     31  C   UNL     1       8.254   1.578  -0.503  0.00  0.00    +0.160 C 
ATOM     32  C   UNL     1       9.107   0.753  -1.461  0.00  0.00    +0.091 C 
ENDBRANCH  30  31
ENDBRANCH   8  25
ENDBRANCH  13   6
TORSDOF 5
