REMARK  Name = 45361501
REMARK  12 active torsions:
REMARK  status: ('A' for Active; 'I' for Inactive)
REMARK    1  A    between atoms: O_2  and  C_11
REMARK    2  A    between atoms: O_5  and  C_24
REMARK    3  A    between atoms: O_5  and  C_27
REMARK    4  A    between atoms: N_6  and  C_15
REMARK    5  A    between atoms: N_7  and  C_25
REMARK    6  A    between atoms: C_8  and  C_18
REMARK    7  A    between atoms: C_10  and  C_20
REMARK    8  A    between atoms: C_14  and  C_19
REMARK    9  A    between atoms: C_19  and  C_21
REMARK   10  A    between atoms: C_19  and  C_22
REMARK   11  A    between atoms: C_23  and  C_24
REMARK   12  A    between atoms: C_25  and  C_26
REMARK                            x       y       z     vdW  Elec       q    Type
REMARK                         _______ _______ _______ _____ _____    ______ ____
ROOT
ATOM      8  C   UNL     1      -0.923   0.226   1.320  0.00  0.00    -0.027 C 
ATOM      9  C   UNL     1      -1.254  -0.578   0.019  0.00  0.00    +0.028 C 
ATOM     10  C   UNL     1      -2.778  -0.957  -0.031  0.00  0.00    +0.012 C 
ATOM     11  C   UNL     1      -0.265  -1.762  -0.179  0.00  0.00    +0.122 C 
ATOM     12  C   UNL     1       0.556   0.679   1.284  0.00  0.00    +0.007 C 
ATOM     13  C   UNL     1      -1.803   1.496   1.366  0.00  0.00    +0.009 C 
ATOM     14  C   UNL     1       1.215  -1.319  -0.110  0.00  0.00    +0.029 C 
ATOM     15  C   UNL     1      -3.655   0.322   0.091  0.00  0.00    +0.076 C 
ATOM     16  C   UNL     1       1.530  -0.482   1.129  0.00  0.00    +0.007 C 
ATOM     17  C   UNL     1      -3.293   1.193   1.294  0.00  0.00    +0.023 C 
ATOM     18  C   UNL     1      -1.158  -0.604   2.608  0.00  0.00    +0.011 C 
ATOM     20  C   UNL     1      -3.180  -1.726  -1.301  0.00  0.00    +0.010 C 
ENDROOT
BRANCH  15   6
ATOM      4  O   UNL     1      -5.861   1.901  -0.911  0.00  0.00    -0.273 OA
ATOM      6  N   UNL     1      -5.064   0.000   0.165  0.00  0.00    -0.310 N 
ATOM     23  C   UNL     1      -6.050   0.826  -0.347  0.00  0.00    +0.239 C 
ATOM     33  H   UNL     1      -5.337  -0.838   0.671  0.00  0.00    +0.149 HD
BRANCH  23  24
ATOM     24  C   UNL     1      -7.431   0.245  -0.134  0.00  0.00    +0.255 C 
BRANCH  24   5
ATOM      5  O   UNL     1      -8.419   1.096  -0.675  0.00  0.00    -0.374 OA
ATOM     27  C   UNL     1      -9.731   0.574  -0.487  0.00  0.00    +0.194 C 
ENDBRANCH  24   5
ENDBRANCH  23  24
ENDBRANCH  15   6
BRANCH  11   2
ATOM      2  O   UNL     1      -0.460  -2.335  -1.473  0.00  0.00    -0.391 OA
ATOM     34  H   UNL     1      -0.297  -1.644  -2.138  0.00  0.00    +0.210 HD
ENDBRANCH  11   2
BRANCH  14  19
ATOM     19  C   UNL     1       2.172  -2.516  -0.177  0.00  0.00    +0.077 C 
ATOM     21  C   UNL     1       1.900  -3.470   0.981  0.00  0.00    +0.017 C 
BRANCH  19  22
ATOM      3  O   UNL     1       4.427  -2.368   0.692  0.00  0.00    -0.276 OA
ATOM      7  N   UNL     1       3.896  -1.170  -1.222  0.00  0.00    -0.311 N 
ATOM     22  C   UNL     1       3.617  -2.027  -0.167  0.00  0.00    +0.216 C 
ATOM     35  H   UNL     1       3.185  -0.980  -1.921  0.00  0.00    +0.149 HD
BRANCH   7  25
ATOM     25  C   UNL     1       5.197  -0.577  -1.423  0.00  0.00    +0.141 C 
BRANCH  25  26
ATOM      1 CL   UNL     1       3.780   1.919  -2.558  0.00  0.00    -0.083 Cl
ATOM     26  C   UNL     1       5.345   0.718  -0.678  0.00  0.00    -0.012 A 
ATOM     28  C   UNL     1       4.738   1.893  -1.123  0.00  0.00    +0.046 A 
ATOM     29  C   UNL     1       6.113   0.728   0.486  0.00  0.00    +0.006 A 
ATOM     30  C   UNL     1       4.898   3.076  -0.403  0.00  0.00    +0.020 A 
ATOM     31  C   UNL     1       6.274   1.912   1.206  0.00  0.00    +0.000 A 
ATOM     32  C   UNL     1       5.667   3.086   0.761  0.00  0.00    +0.001 A 
ENDBRANCH  25  26
ENDBRANCH   7  25
ENDBRANCH  19  22
ENDBRANCH  14  19
TORSDOF 8
