REMARK  Name = 38028970
REMARK  9 active torsions:
REMARK  status: ('A' for Active; 'I' for Inactive)
REMARK    1  A    between atoms: N_4  and  C_17
REMARK    2  A    between atoms: C_9  and  C_13
REMARK    3  A    between atoms: C_10  and  C_17
REMARK    4  A    between atoms: C_12  and  C_16
REMARK    5  A    between atoms: C_13  and  C_18
REMARK    6  A    between atoms: C_13  and  C_19
REMARK    7  A    between atoms: C_14  and  C_20
REMARK    8  A    between atoms: C_16  and  C_21
REMARK    9  A    between atoms: C_26  and  C_28
REMARK                            x       y       z     vdW  Elec       q    Type
REMARK                         _______ _______ _______ _____ _____    ______ ____
ROOT
ATOM      9  C   UNL     1      -3.372   1.239   0.861  0.00  0.00    +0.000 C 
ATOM     10  C   UNL     1      -4.530   0.825  -0.081  0.00  0.00    +0.032 C 
ATOM     11  C   UNL     1      -2.705   2.528   0.357  0.00  0.00    +0.012 C 
ATOM     12  C   UNL     1      -2.143   2.373  -1.069  0.00  0.00    +0.023 C 
ATOM     14  C   UNL     1      -3.143   1.720  -2.001  0.00  0.00    -0.073 C 
ATOM     15  C   UNL     1      -4.211   1.043  -1.541  0.00  0.00    -0.022 C 
ATOM     20  C   UNL     1      -2.913   1.900  -3.475  0.00  0.00    +0.039 C 
ENDROOT
BRANCH   9  13
ATOM     13  C   UNL     1      -3.853   1.433   2.303  0.00  0.00    -0.013 C 
ATOM     18  C   UNL     1      -2.698   1.242   3.280  0.00  0.00    +0.007 C 
ATOM     19  C   UNL     1      -4.483   2.813   2.472  0.00  0.00    +0.007 C 
ENDBRANCH   9  13
BRANCH  12  16
ATOM     16  C   UNL     1      -0.818   1.604  -1.059  0.00  0.00    +0.103 C 
BRANCH  16  21
ATOM      1  O   UNL     1       0.035   3.655  -0.219  0.00  0.00    -0.276 OA
ATOM      3  N   UNL     1       1.557   1.917  -0.468  0.00  0.00    -0.298 N 
ATOM      5  N   UNL     1       4.182   0.764  -0.070  0.00  0.00    -0.312 N 
ATOM      6  N   UNL     1       6.107  -0.326  -0.898  0.00  0.00    -0.240 NA
ATOM     21  C   UNL     1       0.288   2.492  -0.542  0.00  0.00    +0.216 C 
ATOM     22  C   UNL     1       2.681   2.714   0.018  0.00  0.00    +0.126 C 
ATOM     23  C   UNL     1       1.854   0.533  -0.842  0.00  0.00    +0.126 C 
ATOM     24  C   UNL     1       3.700   1.863   0.772  0.00  0.00    +0.125 C 
ATOM     25  C   UNL     1       3.330   0.312  -1.172  0.00  0.00    +0.125 C 
ATOM     27  C   UNL     1       5.433   0.194   0.153  0.00  0.00    +0.121 A 
ATOM     29  C   UNL     1       5.909   0.197   1.454  0.00  0.00    +0.043 A 
ATOM     31  C   UNL     1       7.156  -0.369   1.692  0.00  0.00    +0.005 A 
ATOM     32  C   UNL     1       7.315  -0.868  -0.628  0.00  0.00    +0.113 A 
ATOM     33  C   UNL     1       7.879  -0.914   0.637  0.00  0.00    +0.020 A 
ENDBRANCH  16  21
ENDBRANCH  12  16
BRANCH  10  17
ATOM     17  C   UNL     1      -4.928  -0.639   0.142  0.00  0.00    +0.112 C 
BRANCH  17   4
ATOM      2  O   UNL     1      -3.567  -2.516   1.835  0.00  0.00    -0.268 OA
ATOM      4  N   UNL     1      -3.865  -1.517  -0.238  0.00  0.00    -0.309 N 
ATOM     26  C   UNL     1      -3.258  -2.401   0.652  0.00  0.00    +0.264 C 
ATOM     36  H   UNL     1      -3.566  -1.524  -1.209  0.00  0.00    +0.149 HD
BRANCH  26  28
ATOM      7  N   UNL     1      -1.841  -3.045  -1.190  0.00  0.00    -0.247 NA
ATOM      8  N   UNL     1      -0.472  -4.893   0.415  0.00  0.00    -0.259 NA
ATOM     28  C   UNL     1      -2.150  -3.228   0.109  0.00  0.00    +0.143 A 
ATOM     30  C   UNL     1      -1.477  -4.136   0.897  0.00  0.00    +0.143 A 
ATOM     34  C   UNL     1      -0.836  -3.802  -1.673  0.00  0.00    +0.131 A 
ATOM     35  C   UNL     1      -0.163  -4.710  -0.884  0.00  0.00    +0.130 A 
ENDBRANCH  26  28
ENDBRANCH  17   4
ENDBRANCH  10  17
TORSDOF 6
