REMARK  Name = 26743124
REMARK  7 active torsions:
REMARK  status: ('A' for Active; 'I' for Inactive)
REMARK    1  A    between atoms: S_1  and  C_25
REMARK    2  A    between atoms: S_1  and  C_30
REMARK    3  A    between atoms: C_9  and  C_13
REMARK    4  A    between atoms: C_10  and  C_15
REMARK    5  A    between atoms: C_13  and  C_16
REMARK    6  A    between atoms: C_15  and  C_17
REMARK    7  A    between atoms: C_24  and  C_25
REMARK                            x       y       z     vdW  Elec       q    Type
REMARK                         _______ _______ _______ _____ _____    ______ ____
ROOT
ATOM      4  N   UNL     1       2.150   2.552  -0.472  0.00  0.00    -0.316 NA
ATOM      9  C   UNL     1       0.381   1.144   1.424  0.00  0.00    +0.004 C 
ATOM     10  C   UNL     1       1.706   0.535   0.908  0.00  0.00    +0.012 C 
ATOM     11  C   UNL     1       0.460   2.676   1.326  0.00  0.00    +0.019 C 
ATOM     12  C   UNL     1       2.085   1.090  -0.476  0.00  0.00    +0.085 C 
ATOM     14  C   UNL     1       0.880   3.151  -0.064  0.00  0.00    +0.081 C 
ATOM     36  H   UNL     1       2.395   2.882  -1.405  0.00  0.00    +0.122 HD
ENDROOT
BRANCH   9  13
ATOM     13  C   UNL     1      -0.869   0.616   0.710  0.00  0.00    +0.100 C 
BRANCH  13  16
ATOM      2  O   UNL     1      -1.968   1.365   2.676  0.00  0.00    -0.276 OA
ATOM      5  N   UNL     1      -3.307   0.418   1.030  0.00  0.00    -0.298 N 
ATOM      6  N   UNL     1      -5.906  -0.219  -0.073  0.00  0.00    -0.312 N 
ATOM      8  N   UNL     1      -7.436  -1.763  -0.996  0.00  0.00    -0.240 NA
ATOM     16  C   UNL     1      -2.090   0.839   1.568  0.00  0.00    +0.216 C 
ATOM     18  C   UNL     1      -4.534   0.596   1.802  0.00  0.00    +0.126 C 
ATOM     19  C   UNL     1      -3.451  -0.196  -0.291  0.00  0.00    +0.126 C 
ATOM     20  C   UNL     1      -5.740   0.861   0.904  0.00  0.00    +0.125 C 
ATOM     21  C   UNL     1      -4.731  -1.022  -0.423  0.00  0.00    +0.125 C 
ATOM     23  C   UNL     1      -7.155  -0.494  -0.624  0.00  0.00    +0.121 A 
ATOM     26  C   UNL     1      -8.037   0.566  -0.755  0.00  0.00    +0.043 A 
ATOM     27  C   UNL     1      -9.289   0.308  -1.304  0.00  0.00    +0.005 A 
ATOM     28  C   UNL     1      -8.662  -1.976  -1.525  0.00  0.00    +0.113 A 
ATOM     29  C   UNL     1      -9.615  -0.985  -1.698  0.00  0.00    +0.020 A 
ENDBRANCH  13  16
ENDBRANCH   9  13
BRANCH  10  15
ATOM     15  C   UNL     1       1.696  -0.994   0.889  0.00  0.00    +0.064 C 
BRANCH  15  17
ATOM      3  O   UNL     1       4.939  -2.306   1.741  0.00  0.00    -0.359 OA
ATOM      7  N   UNL     1       3.685  -1.810   2.078  0.00  0.00    -0.083 NA
ATOM     17  C   UNL     1       3.091  -1.550   0.911  0.00  0.00    +0.084 A 
ATOM     22  C   UNL     1       3.913  -1.858  -0.187  0.00  0.00    +0.071 A 
ATOM     24  C   UNL     1       5.063  -2.329   0.389  0.00  0.00    +0.148 A 
BRANCH  24  25
ATOM     25  C   UNL     1       6.336  -2.829  -0.144  0.00  0.00    +0.151 C 
BRANCH  25   1
ATOM      1  S   UNL     1       7.698  -1.617  -0.011  0.00  0.00    -0.117 S 
BRANCH   1  30
ATOM     30  C   UNL     1       6.997  -0.219  -0.877  0.00  0.00    +0.008 A 
ATOM     31  C   UNL     1       6.622  -0.344  -2.214  0.00  0.00    +0.015 A 
ATOM     32  C   UNL     1       6.826   0.996  -0.214  0.00  0.00    +0.015 A 
ATOM     33  C   UNL     1       6.076   0.748  -2.890  0.00  0.00    +0.001 A 
ATOM     34  C   UNL     1       6.280   2.088  -0.890  0.00  0.00    +0.001 A 
ATOM     35  C   UNL     1       5.905   1.963  -2.228  0.00  0.00    +0.000 A 
ENDBRANCH   1  30
ENDBRANCH  25   1
ENDBRANCH  24  25
ENDBRANCH  15  17
ENDBRANCH  10  15
TORSDOF 7
