REMARK  Name = 51136907
REMARK  5 active torsions:
REMARK  status: ('A' for Active; 'I' for Inactive)
REMARK    1  A    between atoms: N_2  and  C_9
REMARK    2  A    between atoms: C_8  and  C_9
REMARK    3  A    between atoms: C_10  and  C_19
REMARK    4  A    between atoms: C_20  and  C_21
REMARK    5  A    between atoms: C_25  and  C_26
REMARK                            x       y       z     vdW  Elec       q    Type
REMARK                         _______ _______ _______ _____ _____    ______ ____
ROOT
ATOM      1  O   UNL     1      -1.623  -2.900   1.286  0.00  0.00    -0.336 OA
ATOM      3  N   UNL     1      -1.107  -1.243  -0.131  0.00  0.00    -0.190 NA
ATOM      4  N   UNL     1      -0.244  -2.690   1.417  0.00  0.00    -0.056 NA
ATOM     19  C   UNL     1      -2.053  -2.008   0.355  0.00  0.00    +0.245 A 
ATOM     20  C   UNL     1      -0.016  -1.699   0.550  0.00  0.00    +0.204 A 
ENDROOT
BRANCH  20  21
ATOM      5  N   UNL     1       3.643  -1.133   0.889  0.00  0.00    -0.254 NA
ATOM     21  C   UNL     1       1.289  -1.142   0.340  0.00  0.00    +0.041 A 
ATOM     22  C   UNL     1       1.490  -0.112  -0.572  0.00  0.00    +0.015 A 
ATOM     23  C   UNL     1       2.389  -1.613   1.039  0.00  0.00    +0.123 A 
ATOM     24  C   UNL     1       2.767   0.408  -0.754  0.00  0.00    +0.029 A 
ATOM     25  C   UNL     1       3.800  -0.132  -0.006  0.00  0.00    +0.074 A 
BRANCH  25  26
ATOM      6  N   UNL     1       6.676   2.155  -0.626  0.00  0.00    -0.243 NA
ATOM      7  N   UNL     1       7.526  -0.029  -0.066  0.00  0.00    -0.243 NA
ATOM     26  C   UNL     1       5.152   0.357  -0.143  0.00  0.00    +0.037 A 
ATOM     27  C   UNL     1       5.427   1.665  -0.487  0.00  0.00    +0.124 A 
ATOM     28  C   UNL     1       6.251  -0.453   0.057  0.00  0.00    +0.124 A 
ATOM     29  C   UNL     1       7.664   1.267  -0.404  0.00  0.00    +0.221 A 
ENDBRANCH  25  26
ENDBRANCH  20  21
BRANCH  19  10
ATOM      2  N   UNL     1      -4.031  -0.723  -0.437  0.00  0.00    -0.291 NA
ATOM     10  C   UNL     1      -3.531  -2.032   0.029  0.00  0.00    +0.146 C 
ATOM     13  C   UNL     1      -5.148  -1.004  -1.339  0.00  0.00    +0.085 C 
ATOM     14  C   UNL     1      -3.872  -3.009  -1.111  0.00  0.00    +0.030 C 
ATOM     15  C   UNL     1      -4.615  -2.173  -2.143  0.00  0.00    +0.017 C 
BRANCH   2   9
ATOM      9  C   UNL     1      -4.416   0.166   0.652  0.00  0.00    +0.088 C 
BRANCH   9   8
ATOM      8  C   UNL     1      -4.416   1.622   0.192  0.00  0.00    +0.003 C 
ATOM     11  C   UNL     1      -3.050   2.006  -0.392  0.00  0.00    +0.005 C 
ATOM     12  C   UNL     1      -4.797   2.556   1.349  0.00  0.00    +0.005 C 
ATOM     16  C   UNL     1      -3.007   3.474  -0.811  0.00  0.00    +0.000 C 
ATOM     17  C   UNL     1      -4.752   4.023   0.927  0.00  0.00    +0.000 C 
ATOM     18  C   UNL     1      -3.395   4.398   0.339  0.00  0.00    +0.000 C 
ENDBRANCH   9   8
ENDBRANCH   2   9
ENDBRANCH  19  10
TORSDOF 5
