REMARK  Name = 11913357
REMARK  5 active torsions:
REMARK  status: ('A' for Active; 'I' for Inactive)
REMARK    1  A    between atoms: N_5  and  C_12
REMARK    2  A    between atoms: N_6  and  C_13
REMARK    3  A    between atoms: N_7  and  C_18
REMARK    4  A    between atoms: C_18  and  C_23
REMARK    5  A    between atoms: C_19  and  C_22
REMARK                            x       y       z     vdW  Elec       q    Type
REMARK                         _______ _______ _______ _____ _____    ______ ____
ROOT
ATOM      2  O   UNL     1      -2.503  -2.179  -1.688  0.00  0.00    -0.370 OA
ATOM      3  O   UNL     1      -1.091   0.574  -1.885  0.00  0.00    -0.370 OA
ATOM     10  C   UNL     1      -1.053  -0.469  -0.895  0.00  0.00    +0.171 C 
ATOM     11  C   UNL     1      -2.453  -1.045  -0.804  0.00  0.00    +0.171 C 
ATOM     12  C   UNL     1      -0.212  -1.623  -1.386  0.00  0.00    +0.130 C 
ATOM     13  C   UNL     1      -3.344   0.064  -1.321  0.00  0.00    +0.131 C 
ATOM     14  C   UNL     1      -1.194  -2.415  -2.229  0.00  0.00    +0.185 C 
ATOM     15  C   UNL     1      -2.442   0.740  -2.341  0.00  0.00    +0.185 C 
ENDROOT
BRANCH  12   5
ATOM      5  N   UNL     1       0.242  -2.417  -0.265  0.00  0.00    -0.306 N 
ATOM      8  N   UNL     1       2.099  -1.032   0.107  0.00  0.00    -0.214 NA
ATOM      9  N   UNL     1       1.691  -2.954   1.501  0.00  0.00    -0.223 NA
ATOM     16  C   UNL     1       1.378  -2.126   0.470  0.00  0.00    +0.216 A 
ATOM     19  C   UNL     1       3.200  -0.778   0.844  0.00  0.00    +0.076 A 
ATOM     20  C   UNL     1       2.804  -2.641   2.196  0.00  0.00    +0.116 A 
ATOM     21  C   UNL     1       3.605  -1.555   1.910  0.00  0.00    +0.048 A 
ATOM     29  H   UNL     1      -0.317  -3.204   0.046  0.00  0.00    +0.149 HD
BRANCH  19  22
ATOM      1  F   UNL     1       3.395   3.639  -1.100  0.00  0.00    -0.205 F 
ATOM     22  C   UNL     1       3.950   0.388   0.443  0.00  0.00    +0.003 A 
ATOM     24  C   UNL     1       3.298   1.474  -0.146  0.00  0.00    +0.048 A 
ATOM     25  C   UNL     1       5.332   0.435   0.643  0.00  0.00    +0.010 A 
ATOM     26  C   UNL     1       4.023   2.600  -0.534  0.00  0.00    +0.124 A 
ATOM     27  C   UNL     1       6.057   1.562   0.255  0.00  0.00    +0.003 A 
ATOM     28  C   UNL     1       5.403   2.644  -0.333  0.00  0.00    +0.038 A 
ENDBRANCH  19  22
ENDBRANCH  12   5
BRANCH  13   6
ATOM      4  O   UNL     1      -5.716   0.082   0.344  0.00  0.00    -0.253 OA
ATOM      6  N   UNL     1      -3.668   1.003  -0.249  0.00  0.00    -0.292 N 
ATOM      7  N   UNL     1      -4.896   1.947   1.454  0.00  0.00    -0.300 N 
ATOM     17  C   UNL     1      -4.841   0.932   0.501  0.00  0.00    +0.300 C 
ATOM     30  H   UNL     1      -2.978   1.704   0.003  0.00  0.00    +0.151 HD
ATOM     31  H   UNL     1      -4.126   2.607   1.511  0.00  0.00    +0.150 HD
BRANCH   7  18
ATOM     18  C   UNL     1      -6.003   2.105   2.366  0.00  0.00    +0.102 C 
ATOM     23  C   UNL     1      -7.061   1.044   2.144  0.00  0.00    +0.024 C 
ENDBRANCH   7  18
ENDBRANCH  13   6
TORSDOF 4
