REMARK  Name = 45784316
REMARK  4 active torsions:
REMARK  status: ('A' for Active; 'I' for Inactive)
REMARK    1  A    between atoms: N_1  and  C_6
REMARK    2  A    between atoms: C_5  and  C_6
REMARK    3  A    between atoms: C_7  and  C_16
REMARK    4  A    between atoms: C_21  and  C_23
REMARK                            x       y       z     vdW  Elec       q    Type
REMARK                         _______ _______ _______ _____ _____    ______ ____
ROOT
ATOM      1  N   UNL     1      -2.489   1.089   0.081  0.00  0.00    -0.301 NA
ATOM      7  C   UNL     1      -0.277   0.934   0.844  0.00  0.00    +0.070 C 
ATOM      8  C   UNL     1      -1.345   0.174   0.046  0.00  0.00    +0.095 C 
ATOM      9  C   UNL     1      -1.919   2.414  -0.162  0.00  0.00    +0.085 C 
ATOM     12  C   UNL     1      -0.675   2.415   0.716  0.00  0.00    +0.028 C 
ENDROOT
BRANCH   7  16
ATOM      2  N   UNL     1       2.043   0.069   1.256  0.00  0.00    -0.342 N 
ATOM      3  N   UNL     1       1.637   0.803  -0.802  0.00  0.00    -0.232 NA
ATOM     16  C   UNL     1       1.131   0.614   0.396  0.00  0.00    +0.113 A 
ATOM     17  C   UNL     1       3.216  -0.105   0.567  0.00  0.00    +0.067 A 
ATOM     18  C   UNL     1       2.937   0.361  -0.715  0.00  0.00    +0.089 A 
ATOM     19  C   UNL     1       4.459  -0.615   0.944  0.00  0.00    +0.046 A 
ATOM     20  C   UNL     1       3.946   0.324  -1.691  0.00  0.00    +0.031 A 
ATOM     21  C   UNL     1       5.452  -0.644  -0.041  0.00  0.00    +0.054 A 
ATOM     22  C   UNL     1       5.202  -0.183  -1.336  0.00  0.00    +0.021 A 
ATOM     24  H   UNL     1       1.885  -0.166   2.227  0.00  0.00    +0.167 HD
BRANCH  21  23
ATOM      4  N   UNL     1       7.798  -1.571   0.552  0.00  0.00    -0.191 NA
ATOM     23  C   UNL     1       6.747  -1.155   0.286  0.00  0.00    +0.099 C 
ENDBRANCH  21  23
ENDBRANCH   7  16
BRANCH   1   6
ATOM      6  C   UNL     1      -3.510   0.738  -0.894  0.00  0.00    +0.088 C 
BRANCH   6   5
ATOM      5  C   UNL     1      -4.397  -0.391  -0.372  0.00  0.00    +0.003 C 
ATOM     10  C   UNL     1      -5.403  -0.831  -1.444  0.00  0.00    +0.005 C 
ATOM     11  C   UNL     1      -5.119   0.037   0.913  0.00  0.00    +0.005 C 
ATOM     13  C   UNL     1      -6.336  -1.923  -0.926  0.00  0.00    +0.000 C 
ATOM     14  C   UNL     1      -6.053  -1.056   1.426  0.00  0.00    +0.000 C 
ATOM     15  C   UNL     1      -7.046  -1.497   0.355  0.00  0.00    +0.000 C 
ENDBRANCH   6   5
ENDBRANCH   1   6
TORSDOF 4
