REMARK  Name = 11942948
REMARK  7 active torsions:
REMARK  status: ('A' for Active; 'I' for Inactive)
REMARK    1  A    between atoms: O_3  and  C_18
REMARK    2  A    between atoms: N_5  and  C_16
REMARK    3  A    between atoms: N_6  and  C_25
REMARK    4  A    between atoms: C_10  and  C_16
REMARK    5  A    between atoms: C_11  and  C_17
REMARK    6  A    between atoms: C_18  and  C_21
REMARK    7  A    between atoms: C_25  and  C_26
REMARK                            x       y       z     vdW  Elec       q    Type
REMARK                         _______ _______ _______ _____ _____    ______ ____
ROOT
ATOM      4  N   UNL     1      -3.172  -2.831  -0.045  0.00  0.00    -0.297 NA
ATOM      9  C   UNL     1      -2.924  -0.636   1.331  0.00  0.00    +0.005 C 
ATOM     10  C   UNL     1      -1.734  -2.556   0.216  0.00  0.00    +0.078 C 
ATOM     11  C   UNL     1      -3.794  -0.414   0.079  0.00  0.00    +0.092 C 
ATOM     12  C   UNL     1      -1.549  -1.182   0.898  0.00  0.00    +0.025 C 
ATOM     13  C   UNL     1      -3.612  -1.735   2.161  0.00  0.00    +0.020 C 
ATOM     14  C   UNL     1      -3.790  -1.695  -0.773  0.00  0.00    +0.097 C 
ATOM     15  C   UNL     1      -3.856  -2.965   1.266  0.00  0.00    +0.085 C 
ENDROOT
BRANCH  11  17
ATOM      2  O   UNL     1      -2.976   0.684  -1.876  0.00  0.00    -0.275 OA
ATOM      6  N   UNL     1      -3.317   1.933   0.058  0.00  0.00    -0.311 N 
ATOM     17  C   UNL     1      -3.324   0.776  -0.702  0.00  0.00    +0.218 C 
ATOM     32  H   UNL     1      -3.668   1.912   1.010  0.00  0.00    +0.149 HD
BRANCH   6  25
ATOM     25  C   UNL     1      -2.885   3.213  -0.454  0.00  0.00    +0.139 C 
BRANCH  25  26
ATOM      1  F   UNL     1       2.619   4.040   0.326  0.00  0.00    -0.205 F 
ATOM     26  C   UNL     1      -1.415   3.435  -0.246  0.00  0.00    -0.030 A 
ATOM     27  C   UNL     1      -0.970   4.042   0.922  0.00  0.00    +0.008 A 
ATOM     28  C   UNL     1      -0.513   3.029  -1.223  0.00  0.00    +0.008 A 
ATOM     29  C   UNL     1       0.397   4.247   1.116  0.00  0.00    +0.038 A 
ATOM     30  C   UNL     1       0.853   3.235  -1.030  0.00  0.00    +0.038 A 
ATOM     31  C   UNL     1       1.308   3.843   0.140  0.00  0.00    +0.123 A 
ENDBRANCH  25  26
ENDBRANCH   6  25
ENDBRANCH  11  17
BRANCH  10  16
ATOM     16  C   UNL     1      -0.878  -2.685  -1.046  0.00  0.00    +0.164 C 
BRANCH  16   5
ATOM      5  N   UNL     1       0.540  -2.557  -0.752  0.00  0.00    -0.250 N 
ATOM      7  N   UNL     1       1.263  -3.638  -0.448  0.00  0.00    -0.065 NA
ATOM      8  N   UNL     1       2.505  -3.220  -0.227  0.00  0.00    -0.132 NA
ATOM     21  C   UNL     1       2.529  -1.865  -0.401  0.00  0.00    +0.114 A 
ATOM     22  C   UNL     1       1.275  -1.421  -0.739  0.00  0.00    +0.136 A 
BRANCH  21  18
ATOM     18  C   UNL     1       3.806  -1.071  -0.222  0.00  0.00    +0.111 C 
ATOM     19  C   UNL     1       4.730  -1.632   0.875  0.00  0.00    +0.041 C 
ATOM     20  C   UNL     1       3.635   0.379   0.262  0.00  0.00    +0.041 C 
ATOM     23  C   UNL     1       5.680  -0.491   1.241  0.00  0.00    +0.003 C 
ATOM     24  C   UNL     1       5.023   0.791   0.743  0.00  0.00    +0.003 C 
BRANCH  18   3
ATOM      3  O   UNL     1       4.548  -1.051  -1.449  0.00  0.00    -0.382 OA
ATOM     33  H   UNL     1       4.766  -1.970  -1.680  0.00  0.00    +0.211 HD
ENDBRANCH  18   3
ENDBRANCH  21  18
ENDBRANCH  16   5
ENDBRANCH  10  16
TORSDOF 7
