REMARK  Name = 25390222
REMARK  11 active torsions:
REMARK  status: ('A' for Active; 'I' for Inactive)
REMARK    1  A    between atoms: O_2  and  C_8
REMARK    2  A    between atoms: O_3  and  C_10
REMARK    3  A    between atoms: N_6  and  C_13
REMARK    4  A    between atoms: N_7  and  C_16
REMARK    5  A    between atoms: N_7  and  C_17
REMARK    6  A    between atoms: C_9  and  C_12
REMARK    7  A    between atoms: C_11  and  C_13
REMARK    8  A    between atoms: C_12  and  C_14
REMARK    9  A    between atoms: C_15  and  C_18
REMARK   10  A    between atoms: C_16  and  C_19
REMARK   11  A    between atoms: C_26  and  C_30
REMARK                            x       y       z     vdW  Elec       q    Type
REMARK                         _______ _______ _______ _____ _____    ______ ____
ROOT
ATOM      1  O   UNL     1      -2.782  -0.800  -0.928  0.00  0.00    -0.366 OA
ATOM      8  C   UNL     1      -4.197  -0.670   0.980  0.00  0.00    +0.175 C 
ATOM      9  C   UNL     1      -2.972  -1.361   0.391  0.00  0.00    +0.159 C 
ATOM     10  C   UNL     1      -4.163   0.676   0.286  0.00  0.00    +0.176 C 
ATOM     11  C   UNL     1      -3.705   0.288  -1.110  0.00  0.00    +0.167 C 
ENDROOT
BRANCH   8   2
ATOM      2  O   UNL     1      -5.354  -1.404   0.581  0.00  0.00    -0.387 OA
ATOM     31  H   UNL     1      -5.317  -2.268   1.025  0.00  0.00    +0.210 HD
ENDBRANCH   8   2
BRANCH  10   3
ATOM      3  O   UNL     1      -5.415   1.329   0.271  0.00  0.00    -0.387 OA
ATOM     32  H   UNL     1      -5.701   1.431   1.194  0.00  0.00    +0.210 HD
ENDBRANCH  10   3
BRANCH   9  12
ATOM     12  C   UNL     1      -1.702  -1.108   1.192  0.00  0.00    +0.130 C 
BRANCH  12  14
ATOM      4  O   UNL     1      -0.749  -2.939  -0.025  0.00  0.00    -0.276 OA
ATOM      7  N   UNL     1       0.633  -1.886   1.511  0.00  0.00    -0.300 N 
ATOM     14  C   UNL     1      -0.575  -2.065   0.829  0.00  0.00    +0.218 C 
ATOM     17  C   UNL     1       0.817  -0.847   2.516  0.00  0.00    +0.132 C 
BRANCH   7  16
ATOM     16  C   UNL     1       1.802  -2.728   1.268  0.00  0.00    +0.142 C 
BRANCH  16  19
ATOM     19  C   UNL     1       2.706  -2.146   0.219  0.00  0.00    -0.030 A 
ATOM     22  C   UNL     1       2.517  -2.474  -1.123  0.00  0.00    +0.005 A 
ATOM     23  C   UNL     1       3.733  -1.278   0.588  0.00  0.00    +0.005 A 
ATOM     27  C   UNL     1       3.357  -1.933  -2.098  0.00  0.00    +0.000 A 
ATOM     28  C   UNL     1       4.572  -0.738  -0.386  0.00  0.00    +0.000 A 
ATOM     29  C   UNL     1       4.384  -1.065  -1.729  0.00  0.00    +0.000 A 
ENDBRANCH  16  19
ENDBRANCH   7  16
ENDBRANCH  12  14
ENDBRANCH   9  12
BRANCH  11  13
ATOM     13  C   UNL     1      -3.021   1.420  -1.856  0.00  0.00    +0.138 C 
BRANCH  13   6
ATOM      5  O   UNL     1      -0.342   0.433  -2.157  0.00  0.00    -0.270 OA
ATOM      6  N   UNL     1      -1.858   1.874  -1.153  0.00  0.00    -0.309 N 
ATOM     15  C   UNL     1      -0.591   1.337  -1.363  0.00  0.00    +0.244 C 
ATOM     33  H   UNL     1      -1.983   2.658  -0.521  0.00  0.00    +0.149 HD
BRANCH  15  18
ATOM     18  C   UNL     1       0.507   1.899  -0.536  0.00  0.00    +0.037 A 
ATOM     20  C   UNL     1       1.819   1.877  -1.009  0.00  0.00    +0.013 A 
ATOM     21  C   UNL     1       0.226   2.451   0.714  0.00  0.00    +0.013 A 
ATOM     24  C   UNL     1       2.850   2.405  -0.232  0.00  0.00    +0.004 A 
ATOM     25  C   UNL     1       1.257   2.979   1.491  0.00  0.00    +0.004 A 
ATOM     26  C   UNL     1       2.569   2.956   1.018  0.00  0.00    -0.050 A 
ATOM     30  C   UNL     1       3.672   3.520   1.849  0.00  0.00    +0.044 C 
ENDBRANCH  15  18
ENDBRANCH  13   6
ENDBRANCH  11  13
TORSDOF 9
