REMARK  Name = 75536576
REMARK  8 active torsions:
REMARK  status: ('A' for Active; 'I' for Inactive)
REMARK    1  A    between atoms: O_4  and  C_11
REMARK    2  A    between atoms: O_6  and  C_21
REMARK    3  A    between atoms: O_6  and  C_22
REMARK    4  A    between atoms: N_7  and  C_9
REMARK    5  A    between atoms: N_7  and  C_10
REMARK    6  A    between atoms: N_8  and  C_19
REMARK    7  A    between atoms: C_14  and  C_19
REMARK    8  A    between atoms: C_20  and  C_21
REMARK                            x       y       z     vdW  Elec       q    Type
REMARK                         _______ _______ _______ _____ _____    ______ ____
ROOT
ATOM      3  O   UNL     1       1.358   0.143  -1.297  0.00  0.00    -0.371 OA
ATOM      9  C   UNL     1      -0.637  -0.424  -0.140  0.00  0.00    +0.111 C 
ATOM     11  C   UNL     1       0.472  -1.364   0.296  0.00  0.00    +0.164 C 
ATOM     14  C   UNL     1       1.706  -0.562  -0.093  0.00  0.00    +0.165 C 
ATOM     15  C   UNL     1      -0.073   0.124  -1.440  0.00  0.00    +0.181 C 
ENDROOT
BRANCH  11   4
ATOM      4  O   UNL     1       0.439  -1.642   1.682  0.00  0.00    -0.388 OA
ATOM     24  H   UNL     1       0.477  -0.798   2.164  0.00  0.00    +0.210 HD
ENDBRANCH  11   4
BRANCH   9   7
ATOM      7  N   UNL     1      -1.923  -1.080  -0.312  0.00  0.00    -0.306 NA
ATOM     23  H   UNL     1      -2.095  -1.726   0.457  0.00  0.00    +0.123 HD
BRANCH   7  10
ATOM      1  F   UNL     1      -6.258  -0.269   0.954  0.00  0.00    -0.206 F 
ATOM      2  F   UNL     1      -6.722   1.699   0.153  0.00  0.00    -0.206 F 
ATOM     10  C   UNL     1      -3.001  -0.095  -0.387  0.00  0.00    +0.054 C 
ATOM     12  C   UNL     1      -4.207  -0.698  -1.118  0.00  0.00    +0.024 C 
ATOM     13  C   UNL     1      -3.381   0.368   1.024  0.00  0.00    +0.024 C 
ATOM     16  C   UNL     1      -5.380   0.280  -1.153  0.00  0.00    +0.077 C 
ATOM     17  C   UNL     1      -4.554   1.346   0.990  0.00  0.00    +0.077 C 
ATOM     18  C   UNL     1      -5.741   0.765   0.240  0.00  0.00    +0.249 C 
ENDBRANCH   7  10
ENDBRANCH   9   7
BRANCH  14  19
ATOM     19  C   UNL     1       2.930  -1.426  -0.340  0.00  0.00    +0.138 C 
BRANCH  19   8
ATOM      5  O   UNL     1       4.896  -0.263   1.435  0.00  0.00    -0.273 OA
ATOM      8  N   UNL     1       4.065  -0.629  -0.708  0.00  0.00    -0.311 N 
ATOM     20  C   UNL     1       4.964  -0.108   0.219  0.00  0.00    +0.239 C 
ATOM     25  H   UNL     1       4.207  -0.432  -1.694  0.00  0.00    +0.149 HD
BRANCH  20  21
ATOM     21  C   UNL     1       6.065   0.691  -0.445  0.00  0.00    +0.255 C 
BRANCH  21   6
ATOM      6  O   UNL     1       6.966   1.194   0.519  0.00  0.00    -0.374 OA
ATOM     22  C   UNL     1       8.015   1.951  -0.078  0.00  0.00    +0.194 C 
ENDBRANCH  21   6
ENDBRANCH  20  21
ENDBRANCH  19   8
ENDBRANCH  14  19
TORSDOF 7
