REMARK  Name = 45783870
REMARK  12 active torsions:
REMARK  status: ('A' for Active; 'I' for Inactive)
REMARK    1  A    between atoms: S_1  and  N_7
REMARK    2  A    between atoms: S_1  and  C_26
REMARK    3  A    between atoms: N_7  and  C_17
REMARK    4  A    between atoms: N_8  and  C_31
REMARK    5  A    between atoms: C_9  and  C_13
REMARK    6  A    between atoms: C_10  and  C_17
REMARK    7  A    between atoms: C_12  and  C_16
REMARK    8  A    between atoms: C_13  and  C_18
REMARK    9  A    between atoms: C_13  and  C_19
REMARK   10  A    between atoms: C_14  and  C_20
REMARK   11  A    between atoms: C_16  and  C_21
REMARK   12  A    between atoms: C_32  and  C_33
REMARK                            x       y       z     vdW  Elec       q    Type
REMARK                         _______ _______ _______ _____ _____    ______ ____
ROOT
ATOM      9  C   UNL     1      -1.474   1.738  -0.533  0.00  0.00    +0.000 C 
ATOM     10  C   UNL     1      -0.340   1.903   0.510  0.00  0.00    +0.030 C 
ATOM     11  C   UNL     1      -2.819   2.179   0.064  0.00  0.00    +0.012 C 
ATOM     12  C   UNL     1      -3.192   1.370   1.321  0.00  0.00    +0.023 C 
ATOM     14  C   UNL     1      -2.028   1.261   2.285  0.00  0.00    -0.073 C 
ATOM     15  C   UNL     1      -0.762   1.516   1.908  0.00  0.00    -0.023 C 
ATOM     20  C   UNL     1      -2.357   0.895   3.705  0.00  0.00    +0.039 C 
ENDROOT
BRANCH   9  13
ATOM     13  C   UNL     1      -1.189   2.531  -1.812  0.00  0.00    -0.013 C 
ATOM     18  C   UNL     1      -1.574   3.995  -1.627  0.00  0.00    +0.007 C 
ATOM     19  C   UNL     1      -1.936   1.921  -2.994  0.00  0.00    +0.007 C 
ENDBRANCH   9  13
BRANCH  12  16
ATOM     16  C   UNL     1      -3.728  -0.016   0.948  0.00  0.00    +0.103 C 
BRANCH  16  21
ATOM      2  O   UNL     1      -5.679   1.205   0.336  0.00  0.00    -0.276 OA
ATOM      6  N   UNL     1      -5.725  -1.084   0.024  0.00  0.00    -0.301 N 
ATOM     21  C   UNL     1      -5.130   0.104   0.408  0.00  0.00    +0.216 C 
ATOM     22  C   UNL     1      -5.131  -2.415   0.080  0.00  0.00    +0.108 C 
ATOM     23  C   UNL     1      -7.078  -1.138  -0.510  0.00  0.00    +0.108 C 
ATOM     24  C   UNL     1      -6.293  -3.361  -0.188  0.00  0.00    +0.020 C 
ATOM     25  C   UNL     1      -7.202  -2.538  -1.092  0.00  0.00    +0.020 C 
ENDBRANCH  16  21
ENDBRANCH  12  16
BRANCH  10  17
ATOM     17  C   UNL     1       0.901   1.098   0.110  0.00  0.00    +0.113 C 
BRANCH  17   7
ATOM      7  N   UNL     1       0.578  -0.337   0.150  0.00  0.00    -0.189 NA
ATOM     34  H   UNL     1       0.257  -0.704   1.054  0.00  0.00    +0.148 HD
BRANCH   7   1
ATOM      1  S   UNL     1       1.368  -1.423  -0.898  0.00  0.00    +0.058 S 
ATOM      3  O   UNL     1       1.222  -0.962  -2.265  0.00  0.00    -0.153 OA
ATOM      4  O   UNL     1       0.998  -2.780  -0.543  0.00  0.00    -0.153 OA
BRANCH   1  26
ATOM     26  C   UNL     1       3.059  -1.210  -0.428  0.00  0.00    +0.105 A 
ATOM     27  C   UNL     1       3.843  -0.249  -1.065  0.00  0.00    +0.030 A 
ATOM     28  C   UNL     1       3.608  -2.004   0.579  0.00  0.00    +0.030 A 
ATOM     29  C   UNL     1       5.177  -0.081  -0.695  0.00  0.00    +0.025 A 
ATOM     30  C   UNL     1       4.943  -1.836   0.949  0.00  0.00    +0.025 A 
ATOM     31  C   UNL     1       5.727  -0.874   0.312  0.00  0.00    +0.033 A 
BRANCH  31   8
ATOM      5  O   UNL     1       7.818   1.029  -0.723  0.00  0.00    -0.276 OA
ATOM      8  N   UNL     1       7.062  -0.705   0.683  0.00  0.00    -0.286 N 
ATOM     32  C   UNL     1       7.996   0.201   0.164  0.00  0.00    +0.214 C 
ATOM     33  C   UNL     1       9.339   0.067   0.837  0.00  0.00    +0.109 C 
ATOM     35  H   UNL     1       7.388  -1.322   1.425  0.00  0.00    +0.155 HD
ENDBRANCH  31   8
ENDBRANCH   1  26
ENDBRANCH   7   1
ENDBRANCH  17   7
ENDBRANCH  10  17
TORSDOF 8
