REMARK  Name = 26744622
REMARK  4 active torsions:
REMARK  status: ('A' for Active; 'I' for Inactive)
REMARK    1  A    between atoms: O_3  and  C_10
REMARK    2  A    between atoms: C_8  and  C_12
REMARK    3  A    between atoms: C_13  and  C_14
REMARK    4  A    between atoms: C_14  and  C_15
REMARK                            x       y       z     vdW  Elec       q    Type
REMARK                         _______ _______ _______ _____ _____    ______ ____
ROOT
ATOM      4  O   UNL     1      -1.370  -1.721  -1.048  0.00  0.00    -0.336 OA
ATOM      6  N   UNL     1      -0.922  -0.526   0.792  0.00  0.00    -0.194 NA
ATOM      7  N   UNL     1      -0.064  -2.058  -0.673  0.00  0.00    -0.061 NA
ATOM     12  C   UNL     1      -1.802  -0.814  -0.134  0.00  0.00    +0.245 A 
ATOM     13  C   UNL     1       0.128  -1.314   0.420  0.00  0.00    +0.176 A 
ENDROOT
BRANCH  12   8
ATOM      5  N   UNL     1      -4.101  -0.574   0.819  0.00  0.00    -0.303 NA
ATOM      8  C   UNL     1      -3.206  -0.286  -0.318  0.00  0.00    +0.146 C 
ATOM      9  C   UNL     1      -3.308   1.231  -0.461  0.00  0.00    +0.061 C 
ATOM     10  C   UNL     1      -4.784   1.497  -0.196  0.00  0.00    +0.130 C 
ATOM     11  C   UNL     1      -5.265   0.307   0.629  0.00  0.00    +0.113 C 
ATOM     21  H   UNL     1      -3.629  -0.291   1.680  0.00  0.00    +0.123 HD
BRANCH  10   3
ATOM      3  O   UNL     1      -5.500   1.529  -1.425  0.00  0.00    -0.390 OA
ATOM     22  H   UNL     1      -6.436   1.680  -1.212  0.00  0.00    +0.210 HD
ENDBRANCH  10   3
ENDBRANCH  12   8
BRANCH  13  14
ATOM     14  C   UNL     1       1.388  -1.344   1.170  0.00  0.00    +0.116 C 
BRANCH  14  15
ATOM      1 CL   UNL     1       1.710   1.633   1.963  0.00  0.00    -0.083 Cl
ATOM      2  F   UNL     1       5.637   1.521  -1.220  0.00  0.00    -0.205 F 
ATOM     15  C   UNL     1       2.525  -0.545   0.542  0.00  0.00    -0.021 A 
ATOM     16  C   UNL     1       2.732   0.800   0.849  0.00  0.00    +0.047 A 
ATOM     17  C   UNL     1       3.370  -1.192  -0.360  0.00  0.00    +0.008 A 
ATOM     18  C   UNL     1       3.783   1.498   0.254  0.00  0.00    +0.058 A 
ATOM     19  C   UNL     1       4.421  -0.494  -0.956  0.00  0.00    +0.039 A 
ATOM     20  C   UNL     1       4.628   0.851  -0.648  0.00  0.00    +0.125 A 
ENDBRANCH  14  15
ENDBRANCH  13  14
TORSDOF 4
