REMARK  Name = 7156392
REMARK  7 active torsions:
REMARK  status: ('A' for Active; 'I' for Inactive)
REMARK    1  A    between atoms: N_3  and  C_12
REMARK    2  A    between atoms: N_6  and  C_28
REMARK    3  A    between atoms: N_6  and  C_32
REMARK    4  A    between atoms: N_6  and  C_33
REMARK    5  A    between atoms: C_21  and  C_24
REMARK    6  A    between atoms: C_23  and  C_25
REMARK    7  A    between atoms: C_26  and  C_28
REMARK                            x       y       z     vdW  Elec       q    Type
REMARK                         _______ _______ _______ _____ _____    ______ ____
ROOT
ATOM      1  O   UNL     1      -2.186  -1.272   2.026  0.00  0.00    -0.267 OA
ATOM      3  N   UNL     1       2.319  -1.697  -0.136  0.00  0.00    -0.298 NA
ATOM      4  N   UNL     1      -0.788  -2.183   0.398  0.00  0.00    -0.311 N 
ATOM      7  C   UNL     1       1.225  -3.662   0.971  0.00  0.00    +0.024 C 
ATOM      8  C   UNL     1       0.714  -3.160  -1.370  0.00  0.00    +0.050 C 
ATOM      9  C   UNL     1       0.955  -4.301  -0.385  0.00  0.00    +0.017 C 
ATOM     10  C   UNL     1       2.461  -2.742   0.886  0.00  0.00    +0.090 C 
ATOM     11  C   UNL     1       1.974  -2.269  -1.446  0.00  0.00    +0.094 C 
ATOM     13  C   UNL     1      -0.036  -2.916   1.427  0.00  0.00    +0.130 C 
ATOM     14  C   UNL     1      -0.493  -2.338  -0.959  0.00  0.00    +0.026 A 
ATOM     19  C   UNL     1      -1.263  -1.749  -1.887  0.00  0.00    +0.022 A 
ATOM     20  C   UNL     1      -1.875  -1.405   0.842  0.00  0.00    +0.259 A 
ATOM     21  C   UNL     1      -2.699  -0.728  -0.221  0.00  0.00    +0.047 A 
ATOM     22  C   UNL     1      -2.378  -0.928  -1.508  0.00  0.00    +0.015 A 
ENDROOT
BRANCH   3  12
ATOM      2  O   UNL     1       4.749   3.915  -0.503  0.00  0.00    -0.276 OA
ATOM      5  N   UNL     1       4.820   1.674   0.103  0.00  0.00    -0.302 N 
ATOM     12  C   UNL     1       3.516  -0.889  -0.222  0.00  0.00    +0.060 C 
ATOM     15  C   UNL     1       3.292   0.257  -1.213  0.00  0.00    +0.038 C 
ATOM     16  C   UNL     1       3.876  -0.343   1.164  0.00  0.00    +0.038 C 
ATOM     17  C   UNL     1       4.493   1.199  -1.243  0.00  0.00    +0.109 C 
ATOM     18  C   UNL     1       5.066   0.612   1.088  0.00  0.00    +0.109 C 
ATOM     23  C   UNL     1       4.920   3.042   0.351  0.00  0.00    +0.212 C 
ATOM     25  C   UNL     1       5.258   3.450   1.763  0.00  0.00    +0.109 C 
ENDBRANCH   3  12
BRANCH  21  24
ATOM     24  C   UNL     1      -3.832   0.145   0.132  0.00  0.00    -0.008 A 
ATOM     26  C   UNL     1      -3.658   1.514   0.345  0.00  0.00    -0.026 A 
ATOM     27  C   UNL     1      -5.104  -0.419   0.255  0.00  0.00    +0.009 A 
ATOM     29  C   UNL     1      -4.750   2.316   0.678  0.00  0.00    +0.005 A 
ATOM     30  C   UNL     1      -6.196   0.382   0.588  0.00  0.00    +0.001 A 
ATOM     31  C   UNL     1      -6.019   1.749   0.800  0.00  0.00    +0.000 A 
BRANCH  26  28
ATOM     28  C   UNL     1      -2.313   2.155   0.223  0.00  0.00    +0.119 C 
BRANCH  28   6
ATOM      6  N   UNL     1      -2.304   3.402  -0.518  0.00  0.00    -0.304 NA
ATOM     32  C   UNL     1      -2.782   3.198  -1.890  0.00  0.00    +0.104 C 
ATOM     33  C   UNL     1      -0.960   3.990  -0.538  0.00  0.00    +0.104 C 
ENDBRANCH  28   6
ENDBRANCH  26  28
ENDBRANCH  21  24
TORSDOF 4
