REMARK  Name = 7051361
REMARK  5 active torsions:
REMARK  status: ('A' for Active; 'I' for Inactive)
REMARK    1  A    between atoms: S_1  and  N_11
REMARK    2  A    between atoms: S_1  and  C_25
REMARK    3  A    between atoms: N_11  and  C_22
REMARK    4  A    between atoms: C_21  and  C_24
REMARK    5  A    between atoms: C_28  and  C_31
REMARK                            x       y       z     vdW  Elec       q    Type
REMARK                         _______ _______ _______ _____ _____    ______ ____
ROOT
ATOM      5  O   UNL     1      -1.391  -2.635  -0.991  0.00  0.00    -0.266 OA
ATOM      6  O   UNL     1      -3.542   2.556  -2.556  0.00  0.00    -0.276 OA
ATOM      9  N   UNL     1      -4.003   1.633  -0.474  0.00  0.00    -0.301 N 
ATOM     10  N   UNL     1      -2.646  -1.151   0.318  0.00  0.00    -0.310 N 
ATOM     12  C   UNL     1      -5.096  -0.592  -0.165  0.00  0.00    +0.027 C 
ATOM     13  C   UNL     1      -3.950   0.479   1.730  0.00  0.00    +0.054 C 
ATOM     14  C   UNL     1      -5.185  -0.328   1.333  0.00  0.00    +0.018 C 
ATOM     15  C   UNL     1      -5.057   0.733  -0.945  0.00  0.00    +0.113 C 
ATOM     16  C   UNL     1      -3.863  -1.461  -0.442  0.00  0.00    +0.130 C 
ATOM     17  C   UNL     1      -3.951   1.827   0.983  0.00  0.00    +0.117 C 
ATOM     18  C   UNL     1      -2.675  -0.283   1.417  0.00  0.00    +0.027 A 
ATOM     19  C   UNL     1      -1.577  -0.101   2.173  0.00  0.00    +0.024 A 
ATOM     20  C   UNL     1      -1.476  -1.849  -0.048  0.00  0.00    +0.274 A 
ATOM     21  C   UNL     1      -3.196   2.294  -1.401  0.00  0.00    +0.212 C 
ATOM     22  C   UNL     1      -0.291  -1.590   0.808  0.00  0.00    +0.112 A 
ATOM     23  C   UNL     1      -0.344  -0.773   1.861  0.00  0.00    +0.031 A 
ATOM     24  C   UNL     1      -1.819   2.694  -0.934  0.00  0.00    +0.109 C 
ENDROOT
BRANCH  22  11
ATOM     11  N   UNL     1       0.934  -2.222   0.533  0.00  0.00    -0.211 N 
ATOM     32  H   UNL     1       1.586  -2.193   1.329  0.00  0.00    +0.174 HD
BRANCH  11   1
ATOM      1  S   UNL     1       1.644  -1.904  -0.971  0.00  0.00    +0.073 S 
ATOM      7  O   UNL     1       1.950  -3.154  -1.641  0.00  0.00    -0.150 OA
ATOM      8  O   UNL     1       0.891  -0.872  -1.658  0.00  0.00    -0.150 OA
BRANCH   1  25
ATOM     25  C   UNL     1       3.180  -1.188  -0.464  0.00  0.00    +0.109 A 
ATOM     26  C   UNL     1       3.257   0.181  -0.281  0.00  0.00    +0.041 A 
ATOM     27  C   UNL     1       4.274  -2.010  -0.262  0.00  0.00    +0.029 A 
ATOM     28  C   UNL     1       4.469   0.746   0.117  0.00  0.00    +0.057 A 
ATOM     29  C   UNL     1       5.486  -1.445   0.136  0.00  0.00    +0.002 A 
ATOM     30  C   UNL     1       5.583  -0.067   0.326  0.00  0.00    +0.012 A 
BRANCH  28  31
ATOM      2  F   UNL     1       5.815   2.635   0.706  0.00  0.00    -0.166 F 
ATOM      3  F   UNL     1       4.289   2.947  -0.803  0.00  0.00    -0.166 F 
ATOM      4  F   UNL     1       3.717   2.681   1.278  0.00  0.00    -0.166 F 
ATOM     31  C   UNL     1       4.572   2.221   0.318  0.00  0.00    +0.417 C 
ENDBRANCH  28  31
ENDBRANCH   1  25
ENDBRANCH  11   1
ENDBRANCH  22  11
TORSDOF 4
