REMARK  Name = 75536831
REMARK  8 active torsions:
REMARK  status: ('A' for Active; 'I' for Inactive)
REMARK    1  A    between atoms: S_1  and  N_7
REMARK    2  A    between atoms: S_1  and  C_16
REMARK    3  A    between atoms: O_3  and  C_10
REMARK    4  A    between atoms: N_6  and  C_9
REMARK    5  A    between atoms: N_6  and  C_14
REMARK    6  A    between atoms: N_7  and  C_13
REMARK    7  A    between atoms: C_11  and  C_13
REMARK    8  A    between atoms: C_14  and  C_15
REMARK                            x       y       z     vdW  Elec       q    Type
REMARK                         _______ _______ _______ _____ _____    ______ ____
ROOT
ATOM      2  O   UNL     1       0.134  -1.261   1.386  0.00  0.00    -0.371 OA
ATOM      9  C   UNL     1      -1.828  -1.077   0.061  0.00  0.00    +0.111 C 
ATOM     10  C   UNL     1      -0.629  -0.658  -0.770  0.00  0.00    +0.164 C 
ATOM     11  C   UNL     1       0.506  -1.321  -0.001  0.00  0.00    +0.164 C 
ATOM     12  C   UNL     1      -1.271  -0.966   1.470  0.00  0.00    +0.181 C 
ENDROOT
BRANCH  10   3
ATOM      3  O   UNL     1      -0.702  -1.119  -2.105  0.00  0.00    -0.388 OA
ATOM     27  H   UNL     1      -0.802  -2.086  -2.089  0.00  0.00    +0.210 HD
ENDBRANCH  10   3
BRANCH   9   6
ATOM      6  N   UNL     1      -3.003  -0.246  -0.151  0.00  0.00    -0.305 NA
ATOM     26  H   UNL     1      -3.134  -0.104  -1.153  0.00  0.00    +0.123 HD
BRANCH   6  14
ATOM     14  C   UNL     1      -4.198  -0.878   0.396  0.00  0.00    +0.116 C 
BRANCH  14  15
ATOM      8  N   UNL     1      -7.697   1.560  -0.161  0.00  0.00    -0.263 NA
ATOM     15  C   UNL     1      -5.423  -0.024   0.201  0.00  0.00    -0.031 A 
ATOM     17  C   UNL     1      -5.635   1.087   1.010  0.00  0.00    +0.024 A 
ATOM     18  C   UNL     1      -6.345  -0.343  -0.789  0.00  0.00    +0.024 A 
ATOM     21  C   UNL     1      -6.777   1.839   0.791  0.00  0.00    +0.111 A 
ATOM     22  C   UNL     1      -7.456   0.474  -0.928  0.00  0.00    +0.111 A 
ENDBRANCH  14  15
ENDBRANCH   6  14
ENDBRANCH   9   6
BRANCH  11  13
ATOM     13  C   UNL     1       1.847  -0.639  -0.203  0.00  0.00    +0.140 C 
BRANCH  13   7
ATOM      7  N   UNL     1       2.884  -1.344   0.575  0.00  0.00    -0.187 NA
ATOM     28  H   UNL     1       2.716  -1.408   1.587  0.00  0.00    +0.148 HD
BRANCH   7   1
ATOM      1  S   UNL     1       4.490  -1.382   0.016  0.00  0.00    +0.058 S 
ATOM      4  O   UNL     1       4.515  -1.892  -1.341  0.00  0.00    -0.153 OA
ATOM      5  O   UNL     1       5.330  -1.982   1.036  0.00  0.00    -0.153 OA
BRANCH   1  16
ATOM     16  C   UNL     1       4.894   0.338  -0.040  0.00  0.00    +0.105 A 
ATOM     19  C   UNL     1       5.449   0.960   1.079  0.00  0.00    +0.028 A 
ATOM     20  C   UNL     1       4.655   1.073  -1.200  0.00  0.00    +0.028 A 
ATOM     23  C   UNL     1       5.764   2.318   1.036  0.00  0.00    +0.002 A 
ATOM     24  C   UNL     1       4.971   2.431  -1.243  0.00  0.00    +0.002 A 
ATOM     25  C   UNL     1       5.525   3.054  -0.125  0.00  0.00    +0.000 A 
ENDBRANCH   1  16
ENDBRANCH   7   1
ENDBRANCH  13   7
ENDBRANCH  11  13
TORSDOF 8
