REMARK  Name = 75536972
REMARK  3 active torsions:
REMARK  status: ('A' for Active; 'I' for Inactive)
REMARK    1  A    between atoms: N_5  and  C_17
REMARK    2  A    between atoms: C_7  and  C_13
REMARK    3  A    between atoms: C_17  and  C_18
REMARK                            x       y       z     vdW  Elec       q    Type
REMARK                         _______ _______ _______ _____ _____    ______ ____
ROOT
ATOM      1  O   UNL     1      -4.977  -0.574  -1.214  0.00  0.00    -0.275 OA
ATOM      2  O   UNL     1       1.432  -2.719   0.484  0.00  0.00    -0.252 OA
ATOM      3  N   UNL     1      -2.731  -0.175  -0.756  0.00  0.00    -0.298 N 
ATOM      4  N   UNL     1      -0.474  -1.350   0.368  0.00  0.00    -0.278 N 
ATOM      5  N   UNL     1       1.419  -0.473   1.204  0.00  0.00    -0.279 N 
ATOM      8  C   UNL     1      -0.853  -0.022   0.819  0.00  0.00    +0.112 C 
ATOM     11  C   UNL     1      -1.653   0.701  -0.262  0.00  0.00    +0.132 C 
ATOM     12  C   UNL     1       0.478   0.634   1.177  0.00  0.00    +0.133 C 
ATOM     13  C   UNL     1      -4.087   0.156  -0.785  0.00  0.00    +0.219 C 
ATOM     14  C   UNL     1      -2.282  -1.480  -1.264  0.00  0.00    +0.127 C 
ATOM     15  C   UNL     1      -1.476  -2.230  -0.207  0.00  0.00    +0.128 C 
ATOM     16  C   UNL     1       0.862  -1.651   0.666  0.00  0.00    +0.306 C 
ENDROOT
BRANCH  13   7
ATOM      7  C   UNL     1      -4.475   1.496  -0.250  0.00  0.00    +0.075 C 
ATOM      9  C   UNL     1      -5.862   1.680   0.266  0.00  0.00    +0.013 C 
ATOM     10  C   UNL     1      -4.704   1.637   1.217  0.00  0.00    +0.013 C 
ENDBRANCH  13   7
BRANCH   5  17
ATOM     17  C   UNL     1       2.795  -0.299   1.612  0.00  0.00    +0.146 C 
BRANCH  17  18
ATOM      6  N   UNL     1       4.814   2.127  -0.471  0.00  0.00    -0.263 NA
ATOM     18  C   UNL     1       3.645   0.247   0.502  0.00  0.00    -0.012 A 
ATOM     19  C   UNL     1       4.051  -0.561  -0.554  0.00  0.00    +0.008 A 
ATOM     20  C   UNL     1       4.050   1.573   0.497  0.00  0.00    +0.115 A 
ATOM     21  C   UNL     1       4.838  -0.028  -1.568  0.00  0.00    +0.020 A 
ATOM     22  C   UNL     1       5.189   1.310  -1.481  0.00  0.00    +0.111 A 
ENDBRANCH  17  18
ENDBRANCH   5  17
TORSDOF 3
