REMARK  Name = 25391098
REMARK  7 active torsions:
REMARK  status: ('A' for Active; 'I' for Inactive)
REMARK    1  A    between atoms: N_7  and  C_19
REMARK    2  A    between atoms: C_11  and  C_14
REMARK    3  A    between atoms: C_14  and  C_19
REMARK    4  A    between atoms: C_18  and  C_27
REMARK    5  A    between atoms: C_19  and  C_30
REMARK    6  A    between atoms: C_20  and  C_23
REMARK    7  A    between atoms: C_31  and  C_32
REMARK                            x       y       z     vdW  Elec       q    Type
REMARK                         _______ _______ _______ _____ _____    ______ ____
ROOT
ATOM      1  O   UNL     1      -2.254   1.593  -1.679  0.00  0.00    -0.275 OA
ATOM      4  O   UNL     1       3.908  -1.380  -1.829  0.00  0.00    -0.270 OA
ATOM      5  N   UNL     1      -0.122   1.233  -0.818  0.00  0.00    -0.287 N 
ATOM      6  N   UNL     1       2.579   0.447  -1.232  0.00  0.00    -0.294 N 
ATOM     18  C   UNL     1       0.190   0.197  -1.814  0.00  0.00    +0.179 C 
ATOM     21  C   UNL     1       1.628   0.265  -2.326  0.00  0.00    +0.140 C 
ATOM     22  C   UNL     1       0.895   1.476   0.221  0.00  0.00    +0.127 C 
ATOM     23  C   UNL     1      -1.403   1.797  -0.810  0.00  0.00    +0.219 C 
ATOM     26  C   UNL     1       2.291   1.601  -0.376  0.00  0.00    +0.127 C 
ATOM     31  C   UNL     1       3.671  -0.412  -1.107  0.00  0.00    +0.248 C 
ENDROOT
BRANCH  23  20
ATOM      8  N   UNL     1      -3.655   4.759  -0.495  0.00  0.00    -0.316 NA
ATOM     20  C   UNL     1      -1.732   2.707   0.340  0.00  0.00    +0.078 C 
ATOM     24  C   UNL     1      -3.220   2.630   0.688  0.00  0.00    +0.028 C 
ATOM     25  C   UNL     1      -1.316   4.147   0.031  0.00  0.00    +0.028 C 
ATOM     28  C   UNL     1      -4.091   3.373  -0.326  0.00  0.00    +0.081 C 
ATOM     29  C   UNL     1      -2.268   4.827  -0.955  0.00  0.00    +0.081 C 
ATOM     38  H   UNL     1      -4.258   5.222  -1.173  0.00  0.00    +0.122 HD
ENDBRANCH  23  20
BRANCH  31  32
ATOM     10  N   UNL     1       6.636   0.924   0.762  0.00  0.00    -0.263 NA
ATOM     32  C   UNL     1       4.623  -0.167  -0.016  0.00  0.00    +0.055 A 
ATOM     33  C   UNL     1       4.450  -0.754   1.232  0.00  0.00    +0.016 A 
ATOM     34  C   UNL     1       5.723   0.657  -0.199  0.00  0.00    +0.123 A 
ATOM     35  C   UNL     1       5.369  -0.503   2.246  0.00  0.00    +0.020 A 
ATOM     36  C   UNL     1       6.435   0.335   1.962  0.00  0.00    +0.111 A 
ENDBRANCH  31  32
BRANCH  18  27
ATOM      2  O   UNL     1       0.765  -1.760  -0.569  0.00  0.00    -0.274 OA
ATOM      7  N   UNL     1      -1.421  -1.510  -1.329  0.00  0.00    -0.302 N 
ATOM     27  C   UNL     1      -0.103  -1.122  -1.160  0.00  0.00    +0.236 C 
ATOM     37  H   UNL     1      -2.052  -0.915  -1.857  0.00  0.00    +0.150 HD
BRANCH   7  19
ATOM     19  C   UNL     1      -1.952  -2.751  -0.814  0.00  0.00    +0.159 C 
BRANCH  19  30
ATOM      3  O   UNL     1      -2.867  -3.181  -3.024  0.00  0.00    -0.274 OA
ATOM      9  N   UNL     1      -2.186  -4.969  -1.754  0.00  0.00    -0.328 N 
ATOM     30  C   UNL     1      -2.377  -3.624  -1.988  0.00  0.00    +0.231 C 
ATOM     39  H   UNL     1      -1.800  -5.324  -0.885  0.00  0.00    +0.145 HD
ATOM     40  H   UNL     1      -2.437  -5.660  -2.454  0.00  0.00    +0.145 HD
ENDBRANCH  19  30
BRANCH  19  14
ATOM     14  C   UNL     1      -3.082  -2.524   0.196  0.00  0.00    +0.035 C 
BRANCH  14  11
ATOM     11  C   UNL     1      -2.700  -1.624   1.370  0.00  0.00    -0.009 C 
ATOM     12  C   UNL     1      -3.900  -1.415   2.304  0.00  0.00    +0.003 C 
ATOM     13  C   UNL     1      -1.507  -2.211   2.136  0.00  0.00    +0.003 C 
ATOM     15  C   UNL     1      -3.529  -0.562   3.515  0.00  0.00    +0.000 C 
ATOM     16  C   UNL     1      -1.140  -1.356   3.348  0.00  0.00    +0.000 C 
ATOM     17  C   UNL     1      -2.337  -1.143   4.269  0.00  0.00    +0.000 C 
ENDBRANCH  14  11
ENDBRANCH  19  14
ENDBRANCH   7  19
ENDBRANCH  18  27
TORSDOF 7
