REMARK  Name = 56775249
REMARK  3 active torsions:
REMARK  status: ('A' for Active; 'I' for Inactive)
REMARK    1  A    between atoms: N_5  and  C_13
REMARK    2  A    between atoms: C_13  and  C_15
REMARK    3  A    between atoms: C_14  and  C_16
REMARK                            x       y       z     vdW  Elec       q    Type
REMARK                         _______ _______ _______ _____ _____    ______ ____
ROOT
ATOM      1  O   UNL     1      -1.675   2.029   0.762  0.00  0.00    -0.364 OA
ATOM      2  O   UNL     1       1.256   2.675  -1.147  0.00  0.00    -0.273 OA
ATOM      3  O   UNL     1      -5.181  -1.179   0.597  0.00  0.00    -0.276 OA
ATOM      4  N   UNL     1      -2.992  -0.590   0.149  0.00  0.00    -0.297 N 
ATOM      5  N   UNL     1       0.385   0.627  -0.470  0.00  0.00    -0.288 N 
ATOM      7  C   UNL     1      -0.681  -0.094   0.214  0.00  0.00    +0.124 C 
ATOM      8  C   UNL     1      -1.399   0.730   1.281  0.00  0.00    +0.158 C 
ATOM      9  C   UNL     1      -1.823  -0.503  -0.721  0.00  0.00    +0.133 C 
ATOM     10  C   UNL     1      -2.720  -0.009   1.459  0.00  0.00    +0.141 C 
ATOM     11  C   UNL     1       0.458   2.017  -0.478  0.00  0.00    +0.242 C 
ATOM     12  C   UNL     1      -0.479   2.721   0.488  0.00  0.00    +0.256 C 
ATOM     14  C   UNL     1      -4.224  -1.129  -0.177  0.00  0.00    +0.213 C 
ATOM     16  C   UNL     1      -4.343  -1.682  -1.574  0.00  0.00    +0.109 C 
ENDROOT
BRANCH   5  13
ATOM     13  C   UNL     1       1.293  -0.162  -1.292  0.00  0.00    +0.143 C 
BRANCH  13  15
ATOM      6  N   UNL     1       4.848  -1.271   0.851  0.00  0.00    -0.263 NA
ATOM     15  C   UNL     1       2.535  -0.549  -0.543  0.00  0.00    -0.027 A 
ATOM     17  C   UNL     1       3.532   0.392  -0.311  0.00  0.00    +0.025 A 
ATOM     18  C   UNL     1       2.693  -1.850  -0.079  0.00  0.00    +0.025 A 
ATOM     19  C   UNL     1       4.659  -0.016   0.385  0.00  0.00    +0.111 A 
ATOM     20  C   UNL     1       3.858  -2.158   0.606  0.00  0.00    +0.111 A 
ENDBRANCH  13  15
ENDBRANCH   5  13
TORSDOF 2
