REMARK  Name = 45783284
REMARK  4 active torsions:
REMARK  status: ('A' for Active; 'I' for Inactive)
REMARK    1  A    between atoms: N_3  and  C_12
REMARK    2  A    between atoms: C_8  and  C_13
REMARK    3  A    between atoms: C_12  and  C_14
REMARK    4  A    between atoms: C_15  and  C_20
REMARK                            x       y       z     vdW  Elec       q    Type
REMARK                         _______ _______ _______ _____ _____    ______ ____
ROOT
ATOM      1  O   UNL     1      -1.665  -3.586   0.403  0.00  0.00    -0.336 OA
ATOM      4  N   UNL     1      -0.754  -1.562   0.100  0.00  0.00    -0.190 NA
ATOM      6  N   UNL     1      -0.278  -3.772   0.453  0.00  0.00    -0.056 NA
ATOM     13  C   UNL     1      -1.859  -2.257   0.192  0.00  0.00    +0.245 A 
ATOM     15  C   UNL     1       0.189  -2.534   0.266  0.00  0.00    +0.202 A 
ENDROOT
BRANCH  15  20
ATOM      2  O   UNL     1       4.856   3.227  -0.408  0.00  0.00    -0.377 OA
ATOM      5  N   UNL     1       3.806   0.629  -0.179  0.00  0.00    -0.311 N 
ATOM      7  N   UNL     1       4.325  -1.651   0.187  0.00  0.00    -0.240 NA
ATOM     18  C   UNL     1       5.094   0.854  -0.851  0.00  0.00    +0.134 C 
ATOM     19  C   UNL     1       3.404   1.677   0.766  0.00  0.00    +0.134 C 
ATOM     20  C   UNL     1       1.592  -2.234   0.238  0.00  0.00    +0.027 A 
ATOM     21  C   UNL     1       3.388  -0.690   0.023  0.00  0.00    +0.122 A 
ATOM     22  C   UNL     1       5.136   2.265  -1.425  0.00  0.00    +0.178 C 
ATOM     23  C   UNL     1       3.537   3.045   0.105  0.00  0.00    +0.178 C 
ATOM     24  C   UNL     1       2.023  -0.927   0.040  0.00  0.00    +0.055 A 
ATOM     27  C   UNL     1       2.526  -3.250   0.411  0.00  0.00    +0.031 A 
ATOM     29  C   UNL     1       3.868  -2.909   0.377  0.00  0.00    +0.113 A 
ENDBRANCH  15  20
BRANCH  13   8
ATOM      3  N   UNL     1      -3.409  -0.349  -0.192  0.00  0.00    -0.287 NA
ATOM      8  C   UNL     1      -3.297  -1.792   0.099  0.00  0.00    +0.146 C 
ATOM      9  C   UNL     1      -4.073  -2.482  -1.038  0.00  0.00    +0.030 C 
ATOM     10  C   UNL     1      -4.635  -1.347  -1.882  0.00  0.00    +0.017 C 
ATOM     11  C   UNL     1      -4.662  -0.172  -0.926  0.00  0.00    +0.085 C 
BRANCH   3  12
ATOM     12  C   UNL     1      -3.351   0.484   1.002  0.00  0.00    +0.120 C 
BRANCH  12  14
ATOM     14  C   UNL     1      -2.975   1.905   0.676  0.00  0.00    -0.033 A 
ATOM     16  C   UNL     1      -1.633   2.286   0.661  0.00  0.00    +0.005 A 
ATOM     17  C   UNL     1      -3.968   2.841   0.388  0.00  0.00    +0.005 A 
ATOM     25  C   UNL     1      -1.284   3.603   0.359  0.00  0.00    +0.000 A 
ATOM     26  C   UNL     1      -3.620   4.158   0.086  0.00  0.00    +0.000 A 
ATOM     28  C   UNL     1      -2.278   4.538   0.072  0.00  0.00    +0.000 A 
ENDBRANCH  12  14
ENDBRANCH   3  12
ENDBRANCH  13   8
TORSDOF 4
