REMARK  Name = 51138033
REMARK  10 active torsions:
REMARK  status: ('A' for Active; 'I' for Inactive)
REMARK    1  A    between atoms: N_3  and  C_19
REMARK    2  A    between atoms: N_4  and  C_24
REMARK    3  A    between atoms: C_6  and  C_10
REMARK    4  A    between atoms: C_9  and  C_17
REMARK    5  A    between atoms: C_10  and  C_14
REMARK    6  A    between atoms: C_14  and  C_21
REMARK    7  A    between atoms: C_14  and  C_22
REMARK    8  A    between atoms: C_19  and  C_23
REMARK    9  A    between atoms: C_24  and  C_25
REMARK   10  A    between atoms: C_25  and  C_28
REMARK                            x       y       z     vdW  Elec       q    Type
REMARK                         _______ _______ _______ _____ _____    ______ ____
ROOT
ATOM      2  N   UNL     1      -2.137  -0.307  -0.626  0.00  0.00    -0.299 NA
ATOM      3  N   UNL     1       2.510   0.958   0.894  0.00  0.00    -0.342 N 
ATOM      6  C   UNL     1      -1.666  -1.432   0.192  0.00  0.00    +0.085 C 
ATOM      7  C   UNL     1      -0.198  -1.375   0.627  0.00  0.00    -0.021 A 
ATOM      8  C   UNL     1       0.621  -0.209   0.600  0.00  0.00    +0.008 A 
ATOM      9  C   UNL     1      -2.120   0.984   0.047  0.00  0.00    +0.145 C 
ATOM     11  C   UNL     1       0.399   1.160   0.221  0.00  0.00    -0.020 A 
ATOM     12  C   UNL     1      -0.859   1.777  -0.292  0.00  0.00    +0.065 C 
ATOM     13  C   UNL     1       1.947  -0.288   1.040  0.00  0.00    +0.050 A 
ATOM     15  C   UNL     1       1.587   1.837   0.409  0.00  0.00    +0.091 A 
ATOM     16  C   UNL     1       0.393  -2.542   1.174  0.00  0.00    +0.006 A 
ATOM     18  C   UNL     1       2.526  -1.460   1.532  0.00  0.00    +0.026 A 
ATOM     20  C   UNL     1       1.718  -2.587   1.604  0.00  0.00    +0.002 A 
ATOM     31  H   UNL     1      -1.636  -0.267  -1.513  0.00  0.00    +0.123 HD
ENDROOT
BRANCH   9  17
ATOM      1  O   UNL     1      -3.445   1.976  -1.672  0.00  0.00    -0.274 OA
ATOM      4  N   UNL     1      -4.202   2.063   0.528  0.00  0.00    -0.314 N 
ATOM     17  C   UNL     1      -3.317   1.716  -0.478  0.00  0.00    +0.230 C 
ATOM     32  H   UNL     1      -4.004   1.797   1.488  0.00  0.00    +0.149 HD
BRANCH   4  24
ATOM     24  C   UNL     1      -5.424   2.795   0.288  0.00  0.00    +0.104 C 
BRANCH  24  25
ATOM     25  C   UNL     1      -6.606   1.876   0.002  0.00  0.00    +0.015 C 
ATOM     28  C   UNL     1      -6.914   0.937   1.160  0.00  0.00    +0.005 C 
ENDBRANCH  24  25
ENDBRANCH   4  24
ENDBRANCH   9  17
BRANCH   6  10
ATOM     10  C   UNL     1      -1.985  -2.683  -0.646  0.00  0.00    +0.026 C 
BRANCH  10  14
ATOM     14  C   UNL     1      -3.468  -3.064  -0.614  0.00  0.00    -0.015 C 
ATOM     21  C   UNL     1      -4.373  -1.955  -1.154  0.00  0.00    +0.007 C 
ATOM     22  C   UNL     1      -3.679  -4.344  -1.425  0.00  0.00    +0.007 C 
ENDBRANCH  10  14
ENDBRANCH   6  10
BRANCH   3  19
ATOM     19  C   UNL     1       3.874   1.310   1.223  0.00  0.00    +0.158 C 
BRANCH  19  23
ATOM      5  N   UNL     1       6.864  -0.360  -0.398  0.00  0.00    -0.263 NA
ATOM     23  C   UNL     1       4.871   0.883   0.174  0.00  0.00    -0.010 A 
ATOM     26  C   UNL     1       4.749   1.308  -1.145  0.00  0.00    +0.008 A 
ATOM     27  C   UNL     1       5.936   0.057   0.493  0.00  0.00    +0.116 A 
ATOM     29  C   UNL     1       5.684   0.900  -2.090  0.00  0.00    +0.020 A 
ATOM     30  C   UNL     1       6.713   0.073  -1.669  0.00  0.00    +0.111 A 
ENDBRANCH  19  23
ENDBRANCH   3  19
TORSDOF 7
