REMARK  Name = 26743149
REMARK  9 active torsions:
REMARK  status: ('A' for Active; 'I' for Inactive)
REMARK    1  A    between atoms: O_3  and  C_19
REMARK    2  A    between atoms: O_3  and  C_25
REMARK    3  A    between atoms: N_5  and  C_18
REMARK    4  A    between atoms: C_7  and  C_13
REMARK    5  A    between atoms: C_8  and  C_12
REMARK    6  A    between atoms: C_12  and  C_14
REMARK    7  A    between atoms: C_13  and  C_15
REMARK    8  A    between atoms: C_17  and  C_19
REMARK    9  A    between atoms: C_18  and  C_20
REMARK                            x       y       z     vdW  Elec       q    Type
REMARK                         _______ _______ _______ _____ _____    ______ ____
ROOT
ATOM      4  N   UNL     1       6.442  -0.609   0.026  0.00  0.00    -0.316 NA
ATOM      7  C   UNL     1       3.561  -0.203   0.513  0.00  0.00    +0.004 C 
ATOM      8  C   UNL     1       4.108  -1.376  -0.334  0.00  0.00    +0.012 C 
ATOM      9  C   UNL     1       4.654   0.265   1.489  0.00  0.00    +0.019 C 
ATOM     10  C   UNL     1       5.462  -1.029  -0.976  0.00  0.00    +0.085 C 
ATOM     11  C   UNL     1       5.980   0.551   0.785  0.00  0.00    +0.081 C 
ATOM     32  H   UNL     1       7.321  -0.380  -0.438  0.00  0.00    +0.122 HD
ENDROOT
BRANCH   8  12
ATOM     12  C   UNL     1       3.119  -1.862  -1.395  0.00  0.00    +0.064 C 
BRANCH  12  14
ATOM      2  O   UNL     1       0.374  -3.621   0.130  0.00  0.00    -0.356 OA
ATOM      6  N   UNL     1       1.660  -3.565  -0.393  0.00  0.00    -0.083 NA
ATOM     14  C   UNL     1       1.822  -2.296  -0.776  0.00  0.00    +0.084 A 
ATOM     16  C   UNL     1       0.683  -1.512  -0.523  0.00  0.00    +0.074 A 
ATOM     17  C   UNL     1      -0.198  -2.393   0.047  0.00  0.00    +0.175 A 
BRANCH  17  19
ATOM     19  C   UNL     1      -1.568  -2.272   0.558  0.00  0.00    +0.306 C 
BRANCH  19   3
ATOM      3  O   UNL     1      -2.450  -1.842  -0.483  0.00  0.00    -0.484 OA
BRANCH   3  25
ATOM     25  C   UNL     1      -3.752  -1.624  -0.128  0.00  0.00    +0.121 A 
ATOM     27  C   UNL     1      -4.157  -1.823   1.192  0.00  0.00    +0.045 A 
ATOM     28  C   UNL     1      -4.675  -1.203  -1.085  0.00  0.00    +0.045 A 
ATOM     29  C   UNL     1      -5.485  -1.601   1.555  0.00  0.00    +0.004 A 
ATOM     30  C   UNL     1      -6.003  -0.981  -0.722  0.00  0.00    +0.004 A 
ATOM     31  C   UNL     1      -6.409  -1.180   0.598  0.00  0.00    +0.000 A 
ENDBRANCH   3  25
ENDBRANCH  19   3
ENDBRANCH  17  19
ENDBRANCH  12  14
ENDBRANCH   8  12
BRANCH   7  13
ATOM     13  C   UNL     1       3.031   0.973  -0.317  0.00  0.00    +0.099 C 
BRANCH  13  15
ATOM      1  O   UNL     1       1.748   1.616   1.631  0.00  0.00    -0.276 OA
ATOM      5  N   UNL     1       1.624   2.910  -0.296  0.00  0.00    -0.311 N 
ATOM     15  C   UNL     1       2.073   1.843   0.469  0.00  0.00    +0.214 C 
ATOM     33  H   UNL     1       1.939   2.999  -1.258  0.00  0.00    +0.149 HD
BRANCH   5  18
ATOM     18  C   UNL     1       0.697   3.901   0.201  0.00  0.00    +0.139 C 
BRANCH  18  20
ATOM     20  C   UNL     1      -0.731   3.515  -0.056  0.00  0.00    -0.030 A 
ATOM     21  C   UNL     1      -1.356   3.903  -1.240  0.00  0.00    +0.005 A 
ATOM     22  C   UNL     1      -1.431   2.767   0.890  0.00  0.00    +0.005 A 
ATOM     23  C   UNL     1      -2.683   3.544  -1.479  0.00  0.00    +0.000 A 
ATOM     24  C   UNL     1      -2.758   2.408   0.651  0.00  0.00    +0.000 A 
ATOM     26  C   UNL     1      -3.384   2.796  -0.533  0.00  0.00    +0.000 A 
ENDBRANCH  18  20
ENDBRANCH   5  18
ENDBRANCH  13  15
ENDBRANCH   7  13
TORSDOF 9
