REMARK  Name = 45784173
REMARK  6 active torsions:
REMARK  status: ('A' for Active; 'I' for Inactive)
REMARK    1  A    between atoms: N_3  and  C_10
REMARK    2  A    between atoms: N_5  and  C_19
REMARK    3  A    between atoms: N_5  and  C_24
REMARK    4  A    between atoms: N_5  and  C_25
REMARK    5  A    between atoms: C_6  and  C_11
REMARK    6  A    between atoms: C_10  and  C_12
REMARK                            x       y       z     vdW  Elec       q    Type
REMARK                         _______ _______ _______ _____ _____    ______ ____
ROOT
ATOM      3  N   UNL     1      -0.961  -0.242  -0.250  0.00  0.00    -0.297 NA
ATOM      6  C   UNL     1       1.201  -0.873   0.405  0.00  0.00    +0.090 C 
ATOM      7  C   UNL     1       0.476  -0.212   1.590  0.00  0.00    +0.029 C 
ATOM      8  C   UNL     1       0.363  -0.493  -0.824  0.00  0.00    +0.097 C 
ATOM      9  C   UNL     1      -0.705   0.524   0.970  0.00  0.00    +0.085 C 
ENDROOT
BRANCH   6  11
ATOM      1 CL   UNL     1       8.284   1.743  -0.389  0.00  0.00    -0.083 Cl
ATOM      2  O   UNL     1       3.546  -1.531   0.329  0.00  0.00    -0.439 OA
ATOM      4  N   UNL     1       3.183   0.693   0.083  0.00  0.00    -0.213 NA
ATOM     11  C   UNL     1       2.658  -0.499   0.263  0.00  0.00    +0.201 A 
ATOM     13  C   UNL     1       4.532   0.439   0.023  0.00  0.00    +0.111 A 
ATOM     14  C   UNL     1       4.758  -0.921   0.173  0.00  0.00    +0.155 A 
ATOM     20  C   UNL     1       5.629   1.293  -0.155  0.00  0.00    +0.051 A 
ATOM     21  C   UNL     1       6.011  -1.521   0.162  0.00  0.00    +0.050 A 
ATOM     22  C   UNL     1       6.911   0.724  -0.172  0.00  0.00    +0.043 A 
ATOM     23  C   UNL     1       7.095  -0.656  -0.017  0.00  0.00    +0.024 A 
ENDBRANCH   6  11
BRANCH   3  10
ATOM     10  C   UNL     1      -1.841   0.461  -1.171  0.00  0.00    +0.119 C 
BRANCH  10  12
ATOM     12  C   UNL     1      -3.288   0.332  -0.774  0.00  0.00    -0.033 A 
ATOM     15  C   UNL     1      -3.975  -0.857  -1.017  0.00  0.00    +0.007 A 
ATOM     16  C   UNL     1      -3.940   1.402  -0.161  0.00  0.00    +0.007 A 
ATOM     17  C   UNL     1      -5.315  -0.976  -0.648  0.00  0.00    +0.023 A 
ATOM     18  C   UNL     1      -5.280   1.283   0.208  0.00  0.00    +0.023 A 
ATOM     19  C   UNL     1      -5.967   0.094  -0.036  0.00  0.00    +0.029 A 
BRANCH  19   5
ATOM      5  N   UNL     1      -7.322  -0.026   0.338  0.00  0.00    -0.336 N 
ATOM     24  C   UNL     1      -8.045  -1.258   0.090  0.00  0.00    +0.129 C 
ATOM     25  C   UNL     1      -8.007   1.077   0.982  0.00  0.00    +0.129 C 
ENDBRANCH  19   5
ENDBRANCH  10  12
ENDBRANCH   3  10
TORSDOF 4
