REMARK  Name = 28961678
REMARK  10 active torsions:
REMARK  status: ('A' for Active; 'I' for Inactive)
REMARK    1  A    between atoms: O_2  and  C_12
REMARK    2  A    between atoms: O_3  and  C_19
REMARK    3  A    between atoms: O_5  and  C_25
REMARK    4  A    between atoms: O_5  and  C_28
REMARK    5  A    between atoms: N_6  and  C_10
REMARK    6  A    between atoms: N_7  and  C_20
REMARK    7  A    between atoms: N_8  and  C_16
REMARK    8  A    between atoms: N_9  and  C_22
REMARK    9  A    between atoms: C_11  and  C_16
REMARK   10  A    between atoms: C_13  and  C_19
REMARK                            x       y       z     vdW  Elec       q    Type
REMARK                         _______ _______ _______ _____ _____    ______ ____
ROOT
ATOM      1  O   UNL     1      -0.990  -1.744  -0.722  0.00  0.00    -0.365 OA
ATOM     10  C   UNL     1      -3.098  -0.638  -0.712  0.00  0.00    +0.118 C 
ATOM     11  C   UNL     1      -1.579  -0.424  -0.690  0.00  0.00    +0.155 C 
ATOM     12  C   UNL     1      -3.259  -2.024  -0.106  0.00  0.00    +0.165 C 
ATOM     13  C   UNL     1      -2.041  -2.729  -0.691  0.00  0.00    +0.174 C 
ENDROOT
BRANCH  10   6
ATOM      6  N   UNL     1      -3.907   0.411  -0.094  0.00  0.00    -0.292 NA
ATOM      7  N   UNL     1      -5.962   2.444  -0.144  0.00  0.00    -0.303 NA
ATOM     14  C   UNL     1      -3.687   1.700  -0.760  0.00  0.00    +0.100 C 
ATOM     15  C   UNL     1      -5.331   0.055  -0.121  0.00  0.00    +0.100 C 
ATOM     17  C   UNL     1      -4.538   2.800  -0.115  0.00  0.00    +0.099 C 
ATOM     18  C   UNL     1      -6.181   1.155   0.524  0.00  0.00    +0.099 C 
ATOM     20  C   UNL     1      -6.772   3.493   0.473  0.00  0.00    +0.105 C 
ENDBRANCH  10   6
BRANCH  12   2
ATOM      2  O   UNL     1      -3.175  -1.985   1.313  0.00  0.00    -0.388 OA
ATOM     29  H   UNL     1      -3.390  -2.873   1.645  0.00  0.00    +0.210 HD
ENDBRANCH  12   2
BRANCH  11  16
ATOM     16  C   UNL     1      -1.008   0.296   0.527  0.00  0.00    +0.139 C 
BRANCH  16   8
ATOM      4  O   UNL     1       1.510  -1.019   0.896  0.00  0.00    -0.253 OA
ATOM      8  N   UNL     1       0.288   0.835   0.245  0.00  0.00    -0.297 N 
ATOM      9  N   UNL     1       2.588   0.904   0.089  0.00  0.00    -0.269 N 
ATOM     21  C   UNL     1       1.485   0.127   0.452  0.00  0.00    +0.304 C 
ATOM     30  H   UNL     1       0.344   1.774  -0.137  0.00  0.00    +0.150 HD
ATOM     32  H   UNL     1       2.393   1.838  -0.262  0.00  0.00    +0.156 HD
BRANCH   9  22
ATOM     22  C   UNL     1       3.957   0.550   0.149  0.00  0.00    +0.038 A 
ATOM     23  C   UNL     1       4.931   1.461  -0.258  0.00  0.00    +0.069 A 
ATOM     24  C   UNL     1       4.331  -0.710   0.616  0.00  0.00    +0.023 A 
ATOM     25  C   UNL     1       6.280   1.112  -0.198  0.00  0.00    +0.122 A 
ATOM     26  C   UNL     1       5.680  -1.059   0.676  0.00  0.00    +0.005 A 
ATOM     27  C   UNL     1       6.655  -0.147   0.269  0.00  0.00    +0.046 A 
BRANCH  25   5
ATOM      5  O   UNL     1       7.232   2.001  -0.595  0.00  0.00    -0.495 OA
ATOM     28  C   UNL     1       8.592   1.579  -0.507  0.00  0.00    +0.277 C 
ENDBRANCH  25   5
ENDBRANCH   9  22
ENDBRANCH  16   8
ENDBRANCH  11  16
BRANCH  13  19
ATOM     19  C   UNL     1      -1.562  -3.948   0.075  0.00  0.00    +0.190 C 
BRANCH  19   3
ATOM      3  O   UNL     1      -0.437  -4.497  -0.593  0.00  0.00    -0.392 OA
ATOM     31  H   UNL     1      -0.154  -5.276  -0.084  0.00  0.00    +0.210 HD
ENDBRANCH  19   3
ENDBRANCH  13  19
TORSDOF 8
