REMARK  Name = 11912850
REMARK  7 active torsions:
REMARK  status: ('A' for Active; 'I' for Inactive)
REMARK    1  A    between atoms: O_5  and  C_28
REMARK    2  A    between atoms: O_5  and  C_31
REMARK    3  A    between atoms: N_8  and  C_16
REMARK    4  A    between atoms: N_10  and  C_25
REMARK    5  A    between atoms: N_11  and  C_24
REMARK    6  A    between atoms: C_12  and  C_17
REMARK    7  A    between atoms: C_23  and  C_24
REMARK                            x       y       z     vdW  Elec       q    Type
REMARK                         _______ _______ _______ _____ _____    ______ ____
ROOT
ATOM      3  O   UNL     1       0.143  -2.821  -1.485  0.00  0.00    -0.252 OA
ATOM      4  O   UNL     1      -6.137  -0.619  -0.446  0.00  0.00    -0.274 OA
ATOM      6  N   UNL     1      -1.324  -1.514  -0.255  0.00  0.00    -0.271 N 
ATOM      7  N   UNL     1      -4.033  -0.977   0.470  0.00  0.00    -0.297 N 
ATOM     10  N   UNL     1       0.955  -1.676   0.363  0.00  0.00    -0.269 N 
ATOM     12  C   UNL     1      -1.611  -0.501   0.780  0.00  0.00    +0.181 C 
ATOM     13  C   UNL     1      -2.981  -0.676   1.444  0.00  0.00    +0.139 C 
ATOM     14  C   UNL     1      -2.435  -1.856  -1.157  0.00  0.00    +0.129 C 
ATOM     15  C   UNL     1      -3.731  -2.108  -0.401  0.00  0.00    +0.127 C 
ATOM     22  C   UNL     1      -0.048  -2.070  -0.525  0.00  0.00    +0.307 C 
ATOM     23  C   UNL     1      -5.254  -0.315   0.360  0.00  0.00    +0.229 C 
ATOM     34  H   UNL     1       0.691  -1.441   1.313  0.00  0.00    +0.156 HD
ENDROOT
BRANCH  10  25
ATOM     25  C   UNL     1       2.339  -1.540   0.093  0.00  0.00    +0.038 A 
ATOM     26  C   UNL     1       3.210  -1.133   1.104  0.00  0.00    +0.069 A 
ATOM     27  C   UNL     1       2.831  -1.813  -1.183  0.00  0.00    +0.023 A 
ATOM     28  C   UNL     1       4.573  -0.999   0.838  0.00  0.00    +0.122 A 
ATOM     29  C   UNL     1       4.194  -1.679  -1.449  0.00  0.00    +0.005 A 
ATOM     30  C   UNL     1       5.065  -1.272  -0.439  0.00  0.00    +0.046 A 
BRANCH  28   5
ATOM      5  O   UNL     1       5.423  -0.602   1.824  0.00  0.00    -0.495 OA
ATOM     31  C   UNL     1       4.854  -0.339   3.105  0.00  0.00    +0.277 C 
ENDBRANCH  28   5
ENDBRANCH  10  25
BRANCH  12  17
ATOM      1  O   UNL     1      -2.464   1.393  -0.401  0.00  0.00    -0.274 OA
ATOM      8  N   UNL     1      -0.199   1.323   0.132  0.00  0.00    -0.302 N 
ATOM     17  C   UNL     1      -1.495   0.838   0.111  0.00  0.00    +0.236 C 
ATOM     32  H   UNL     1       0.535   0.756   0.546  0.00  0.00    +0.150 HD
BRANCH   8  16
ATOM      2  O   UNL     1       0.632   1.639  -2.627  0.00  0.00    -0.274 OA
ATOM      9  N   UNL     1       2.437   2.434  -1.478  0.00  0.00    -0.314 N 
ATOM     16  C   UNL     1       0.183   2.580  -0.465  0.00  0.00    +0.159 C 
ATOM     18  C   UNL     1       0.792   3.535   0.555  0.00  0.00    +0.033 C 
ATOM     19  C   UNL     1       2.230   3.155   0.873  0.00  0.00    +0.021 C 
ATOM     20  C   UNL     1       3.043   3.200  -0.406  0.00  0.00    +0.104 C 
ATOM     21  C   UNL     1       1.086   2.212  -1.634  0.00  0.00    +0.233 C 
ATOM     33  H   UNL     1       3.043   2.150  -2.241  0.00  0.00    +0.149 HD
ENDBRANCH   8  16
ENDBRANCH  12  17
BRANCH  23  24
ATOM     24  C   UNL     1      -5.479   0.845   1.298  0.00  0.00    +0.174 C 
BRANCH  24  11
ATOM     11  N   UNL     1      -6.800   1.355   1.002  0.00  0.00    -0.322 NA
ATOM     35  H   UNL     1      -7.010   2.135   1.624  0.00  0.00    +0.119 HD
ATOM     36  H   UNL     1      -6.821   1.736   0.057  0.00  0.00    +0.119 HD
ENDBRANCH  24  11
ENDBRANCH  23  24
TORSDOF 6
