REMARK  Name = 11912454
REMARK  9 active torsions:
REMARK  status: ('A' for Active; 'I' for Inactive)
REMARK    1  A    between atoms: O_4  and  C_29
REMARK    2  A    between atoms: O_4  and  C_30
REMARK    3  A    between atoms: N_7  and  C_20
REMARK    4  A    between atoms: C_10  and  C_15
REMARK    5  A    between atoms: C_11  and  C_16
REMARK    6  A    between atoms: C_15  and  C_17
REMARK    7  A    between atoms: C_16  and  C_19
REMARK    8  A    between atoms: C_24  and  C_29
REMARK    9  A    between atoms: C_30  and  C_31
REMARK                            x       y       z     vdW  Elec       q    Type
REMARK                         _______ _______ _______ _____ _____    ______ ____
ROOT
ATOM      2  O   UNL     1      -1.208   2.476   1.126  0.00  0.00    -0.252 OA
ATOM      6  N   UNL     1      -0.154   0.462   1.553  0.00  0.00    -0.285 N 
ATOM      7  N   UNL     1      -2.445   0.519   0.987  0.00  0.00    -0.269 N 
ATOM     10  C   UNL     1       2.253   0.595   0.929  0.00  0.00    +0.010 C 
ATOM     11  C   UNL     1       2.342  -0.944   1.064  0.00  0.00    +0.004 C 
ATOM     12  C   UNL     1       0.981  -1.609   0.806  0.00  0.00    +0.023 C 
ATOM     13  C   UNL     1       1.125   1.124   1.830  0.00  0.00    +0.113 C 
ATOM     14  C   UNL     1      -0.124  -1.003   1.673  0.00  0.00    +0.109 C 
ATOM     18  C   UNL     1      -1.275   1.247   1.204  0.00  0.00    +0.306 C 
ATOM     32  H   UNL     1      -2.557  -0.364   1.471  0.00  0.00    +0.156 HD
ENDROOT
BRANCH   7  20
ATOM     20  C   UNL     1      -3.555   0.897   0.192  0.00  0.00    +0.036 A 
ATOM     22  C   UNL     1      -4.693   0.096   0.166  0.00  0.00    +0.038 A 
ATOM     23  C   UNL     1      -3.501   2.068  -0.559  0.00  0.00    +0.023 A 
ATOM     24  C   UNL     1      -5.786   0.469  -0.616  0.00  0.00    +0.061 A 
ATOM     25  C   UNL     1      -4.593   2.442  -1.341  0.00  0.00    +0.003 A 
ATOM     26  C   UNL     1      -5.736   1.642  -1.370  0.00  0.00    +0.015 A 
BRANCH  24  29
ATOM      5  O   UNL     1      -8.125   0.061  -0.832  0.00  0.00    -0.245 OA
ATOM     29  C   UNL     1      -6.977  -0.364  -0.648  0.00  0.00    +0.339 C 
BRANCH  29   4
ATOM      4  O   UNL     1      -6.673  -1.684  -0.450  0.00  0.00    -0.461 OA
BRANCH   4  30
ATOM     30  C   UNL     1      -7.766  -2.608  -0.460  0.00  0.00    +0.229 C 
ATOM     31  C   UNL     1      -7.233  -4.005  -0.226  0.00  0.00    +0.048 C 
ENDBRANCH   4  30
ENDBRANCH  29   4
ENDBRANCH  24  29
ENDBRANCH   7  20
BRANCH  10  15
ATOM     15  C   UNL     1       2.064   1.089  -0.510  0.00  0.00    +0.002 C 
ATOM     17  C   UNL     1       2.112   2.601  -0.580  0.00  0.00    +0.004 C 
ENDBRANCH  10  15
BRANCH  11  16
ATOM     16  C   UNL     1       3.422  -1.562   0.176  0.00  0.00    +0.100 C 
BRANCH  16  19
ATOM      1  S   UNL     1       7.559  -0.808  -2.396  0.00  0.00    -0.061 S 
ATOM      3  O   UNL     1       5.120  -0.571   1.567  0.00  0.00    -0.275 OA
ATOM      8  N   UNL     1       5.582  -1.034  -0.690  0.00  0.00    -0.265 N 
ATOM      9  N   UNL     1       7.657  -0.080   0.083  0.00  0.00    -0.233 NA
ATOM     19  C   UNL     1       4.799  -0.993   0.461  0.00  0.00    +0.219 C 
ATOM     21  C   UNL     1       6.921  -0.599  -0.838  0.00  0.00    +0.164 A 
ATOM     27  C   UNL     1       9.022  -0.125  -1.817  0.00  0.00    +0.068 A 
ATOM     28  C   UNL     1       8.885   0.198  -0.483  0.00  0.00    +0.120 A 
ATOM     33  H   UNL     1       5.184  -1.420  -1.542  0.00  0.00    +0.157 HD
ENDBRANCH  16  19
ENDBRANCH  11  16
TORSDOF 7
