REMARK  Name = 26744806
REMARK  6 active torsions:
REMARK  status: ('A' for Active; 'I' for Inactive)
REMARK    1  A    between atoms: O_2  and  C_23
REMARK    2  A    between atoms: O_2  and  C_28
REMARK    3  A    between atoms: N_3  and  C_14
REMARK    4  A    between atoms: C_9  and  C_15
REMARK    5  A    between atoms: C_14  and  C_16
REMARK    6  A    between atoms: C_20  and  C_24
REMARK                            x       y       z     vdW  Elec       q    Type
REMARK                         _______ _______ _______ _____ _____    ______ ____
ROOT
ATOM      3  N   UNL     1      -1.234  -0.978   0.455  0.00  0.00    -0.281 NA
ATOM      4  N   UNL     1      -3.537  -3.690  -0.730  0.00  0.00    -0.347 N 
ATOM      5  N   UNL     1      -1.655  -4.778  -1.255  0.00  0.00    -0.240 NA
ATOM      9  C   UNL     1      -0.108  -1.927   0.760  0.00  0.00    +0.152 C 
ATOM     10  C   UNL     1      -0.021  -3.105  -0.274  0.00  0.00    +0.086 C 
ATOM     11  C   UNL     1      -2.564  -1.653   0.475  0.00  0.00    +0.140 C 
ATOM     12  C   UNL     1      -2.507  -2.930  -0.265  0.00  0.00    +0.053 A 
ATOM     13  C   UNL     1      -1.368  -3.619  -0.592  0.00  0.00    +0.065 A 
ATOM     17  C   UNL     1      -2.972  -4.794  -1.320  0.00  0.00    +0.197 A 
ATOM     30  H   UNL     1      -4.525  -3.488  -0.655  0.00  0.00    +0.167 HD
ENDROOT
BRANCH   9  15
ATOM      1  O   UNL     1       1.920  -1.342   2.011  0.00  0.00    -0.336 OA
ATOM      6  N   UNL     1       1.913  -0.607  -0.105  0.00  0.00    -0.189 NA
ATOM      7  N   UNL     1       3.134  -0.667   1.829  0.00  0.00    -0.054 NA
ATOM     15  C   UNL     1       1.262  -1.260   0.825  0.00  0.00    +0.245 A 
ATOM     20  C   UNL     1       3.055  -0.263   0.558  0.00  0.00    +0.220 A 
BRANCH  20  24
ATOM      8  N   UNL     1       5.177   0.760   0.690  0.00  0.00    -0.252 NA
ATOM     24  C   UNL     1       4.100   0.485  -0.080  0.00  0.00    +0.111 A 
ATOM     25  C   UNL     1       3.970   0.879  -1.402  0.00  0.00    +0.031 A 
ATOM     26  C   UNL     1       5.013   1.602  -1.970  0.00  0.00    +0.004 A 
ATOM     27  C   UNL     1       6.170   1.465   0.103  0.00  0.00    +0.111 A 
ATOM     29  C   UNL     1       6.137   1.905  -1.210  0.00  0.00    +0.020 A 
ENDBRANCH  20  24
ENDBRANCH   9  15
BRANCH   3  14
ATOM     14  C   UNL     1      -1.282   0.152   1.394  0.00  0.00    +0.120 C 
BRANCH  14  16
ATOM     16  C   UNL     1      -1.964   1.352   0.792  0.00  0.00    -0.033 A 
ATOM     18  C   UNL     1      -1.290   2.146  -0.136  0.00  0.00    +0.008 A 
ATOM     19  C   UNL     1      -3.270   1.670   1.163  0.00  0.00    +0.008 A 
ATOM     21  C   UNL     1      -1.922   3.257  -0.693  0.00  0.00    +0.046 A 
ATOM     22  C   UNL     1      -3.903   2.781   0.606  0.00  0.00    +0.046 A 
ATOM     23  C   UNL     1      -3.228   3.575  -0.322  0.00  0.00    +0.120 A 
BRANCH  23   2
ATOM      2  O   UNL     1      -3.846   4.659  -0.866  0.00  0.00    -0.495 OA
ATOM     28  C   UNL     1      -5.181   4.926  -0.442  0.00  0.00    +0.277 C 
ENDBRANCH  23   2
ENDBRANCH  14  16
ENDBRANCH   3  14
TORSDOF 5
