REMARK  Name = 7144237
REMARK  7 active torsions:
REMARK  status: ('A' for Active; 'I' for Inactive)
REMARK    1  A    between atoms: S_1  and  N_7
REMARK    2  A    between atoms: S_1  and  C_21
REMARK    3  A    between atoms: S_2  and  C_32
REMARK    4  A    between atoms: S_2  and  C_34
REMARK    5  A    between atoms: N_9  and  C_31
REMARK    6  A    between atoms: C_17  and  C_22
REMARK    7  A    between atoms: C_33  and  C_35
REMARK                            x       y       z     vdW  Elec       q    Type
REMARK                         _______ _______ _______ _____ _____    ______ ____
ROOT
ATOM      5  O   UNL     1      -3.885   0.192   3.240  0.00  0.00    -0.268 OA
ATOM      7  N   UNL     1      -2.324  -1.215  -1.245  0.00  0.00    -0.176 NA
ATOM      8  N   UNL     1      -3.009   0.730   1.135  0.00  0.00    -0.311 N 
ATOM     10  C   UNL     1      -4.315   0.265  -1.022  0.00  0.00    +0.025 C 
ATOM     11  C   UNL     1      -2.072   1.258  -1.137  0.00  0.00    +0.053 C 
ATOM     12  C   UNL     1      -3.523   1.436  -1.581  0.00  0.00    +0.017 C 
ATOM     13  C   UNL     1      -3.773  -1.068  -1.560  0.00  0.00    +0.114 C 
ATOM     14  C   UNL     1      -1.516  -0.055  -1.722  0.00  0.00    +0.119 C 
ATOM     15  C   UNL     1      -4.276   0.334   0.505  0.00  0.00    +0.130 C 
ATOM     16  C   UNL     1      -1.944   1.271   0.388  0.00  0.00    +0.034 A 
ATOM     17  C   UNL     1      -0.849   1.760   1.028  0.00  0.00    +0.002 A 
ATOM     18  C   UNL     1      -2.978   0.642   2.538  0.00  0.00    +0.252 A 
ATOM     19  C   UNL     1      -0.780   1.682   2.475  0.00  0.00    +0.015 A 
ATOM     20  C   UNL     1      -1.758   1.150   3.207  0.00  0.00    +0.071 A 
ENDROOT
BRANCH  17  22
ATOM     22  C   UNL     1       0.285   2.356   0.288  0.00  0.00    -0.016 A 
ATOM     25  C   UNL     1       1.332   1.546  -0.141  0.00  0.00    +0.009 A 
ATOM     26  C   UNL     1       0.297   3.723   0.027  0.00  0.00    +0.009 A 
ATOM     29  C   UNL     1       2.402   2.108  -0.837  0.00  0.00    +0.015 A 
ATOM     30  C   UNL     1       1.367   4.285  -0.669  0.00  0.00    +0.015 A 
ATOM     32  C   UNL     1       2.419   3.478  -1.101  0.00  0.00    +0.008 A 
BRANCH  32   2
ATOM      2  S   UNL     1       3.786   4.197  -1.991  0.00  0.00    -0.129 S 
ATOM     34  C   UNL     1       5.185   3.792  -0.909  0.00  0.00    +0.090 C 
ENDBRANCH  32   2
ENDBRANCH  17  22
BRANCH   7   1
ATOM      1  S   UNL     1      -1.653  -2.760  -1.546  0.00  0.00    +0.061 S 
ATOM      3  O   UNL     1      -1.330  -2.870  -2.953  0.00  0.00    -0.153 OA
ATOM      4  O   UNL     1      -2.463  -3.762  -0.887  0.00  0.00    -0.153 OA
BRANCH   1  21
ATOM     21  C   UNL     1      -0.135  -2.616  -0.655  0.00  0.00    +0.106 A 
ATOM     23  C   UNL     1       1.065  -2.753  -1.334  0.00  0.00    +0.030 A 
ATOM     24  C   UNL     1      -0.170  -2.370   0.707  0.00  0.00    +0.030 A 
ATOM     27  C   UNL     1       2.264  -2.640  -0.630  0.00  0.00    +0.025 A 
ATOM     28  C   UNL     1       1.030  -2.256   1.411  0.00  0.00    +0.025 A 
ATOM     31  C   UNL     1       2.246  -2.391   0.742  0.00  0.00    +0.033 A 
BRANCH  31   9
ATOM      6  O   UNL     1       5.096  -2.592  -0.208  0.00  0.00    -0.276 OA
ATOM      9  N   UNL     1       3.446  -2.278   1.446  0.00  0.00    -0.286 N 
ATOM     33  C   UNL     1       4.752  -2.382   0.950  0.00  0.00    +0.214 C 
ATOM     35  C   UNL     1       5.779  -2.197   2.039  0.00  0.00    +0.109 C 
ATOM     36  H   UNL     1       3.349  -2.096   2.443  0.00  0.00    +0.155 HD
ENDBRANCH  31   9
ENDBRANCH   1  21
ENDBRANCH   7   1
TORSDOF 5
