REMARK  Name = 75536740
REMARK  9 active torsions:
REMARK  status: ('A' for Active; 'I' for Inactive)
REMARK    1  A    between atoms: O_3  and  C_9
REMARK    2  A    between atoms: N_5  and  C_8
REMARK    3  A    between atoms: N_5  and  C_13
REMARK    4  A    between atoms: N_6  and  C_12
REMARK    5  A    between atoms: N_7  and  C_18
REMARK    6  A    between atoms: C_10  and  C_12
REMARK    7  A    between atoms: C_13  and  C_14
REMARK    8  A    between atoms: C_18  and  C_21
REMARK    9  A    between atoms: C_18  and  C_22
REMARK                            x       y       z     vdW  Elec       q    Type
REMARK                         _______ _______ _______ _____ _____    ______ ____
ROOT
ATOM      2  O   UNL     1       3.284   0.459   0.788  0.00  0.00    -0.371 OA
ATOM      8  C   UNL     1       1.962  -1.505   0.779  0.00  0.00    +0.111 C 
ATOM      9  C   UNL     1       2.811  -1.507  -0.480  0.00  0.00    +0.164 C 
ATOM     10  C   UNL     1       3.461  -0.125  -0.516  0.00  0.00    +0.165 C 
ATOM     11  C   UNL     1       2.718  -0.525   1.662  0.00  0.00    +0.181 C 
ENDROOT
BRANCH   9   3
ATOM      3  O   UNL     1       3.828  -2.498  -0.319  0.00  0.00    -0.388 OA
ATOM     25  H   UNL     1       4.388  -2.472  -1.114  0.00  0.00    +0.210 HD
ENDBRANCH   9   3
BRANCH   8   5
ATOM      5  N   UNL     1       0.607  -1.026   0.516  0.00  0.00    -0.305 NA
ATOM     24  H   UNL     1       0.220  -0.622   1.369  0.00  0.00    +0.123 HD
BRANCH   5  13
ATOM     13  C   UNL     1      -0.260  -2.116   0.084  0.00  0.00    +0.119 C 
BRANCH  13  14
ATOM      1  F   UNL     1      -2.139  -1.500   2.112  0.00  0.00    -0.205 F 
ATOM     14  C   UNL     1      -1.657  -1.638  -0.208  0.00  0.00    +0.002 A 
ATOM     16  C   UNL     1      -2.533  -1.352   0.840  0.00  0.00    +0.128 A 
ATOM     17  C   UNL     1      -2.077  -1.482  -1.529  0.00  0.00    +0.008 A 
ATOM     19  C   UNL     1      -3.827  -0.910   0.567  0.00  0.00    +0.038 A 
ATOM     20  C   UNL     1      -3.371  -1.039  -1.803  0.00  0.00    +0.000 A 
ATOM     23  C   UNL     1      -4.246  -0.753  -0.755  0.00  0.00    +0.003 A 
ENDBRANCH  13  14
ENDBRANCH   5  13
ENDBRANCH   8   5
BRANCH  10  12
ATOM     12  C   UNL     1       2.846   0.810  -1.546  0.00  0.00    +0.140 C 
BRANCH  12   6
ATOM      4  O   UNL     1       1.675   2.876   0.093  0.00  0.00    -0.253 OA
ATOM      6  N   UNL     1       1.451   1.023  -1.290  0.00  0.00    -0.297 N 
ATOM      7  N   UNL     1      -0.427   2.029  -0.404  0.00  0.00    -0.297 N 
ATOM     15  C   UNL     1       0.963   2.052  -0.480  0.00  0.00    +0.300 C 
ATOM     26  H   UNL     1       0.783   0.387  -1.714  0.00  0.00    +0.150 HD
ATOM     27  H   UNL     1      -0.923   1.266  -0.855  0.00  0.00    +0.150 HD
BRANCH   7  18
ATOM     18  C   UNL     1      -1.185   2.985   0.370  0.00  0.00    +0.068 C 
ATOM     21  C   UNL     1      -2.536   3.249  -0.282  0.00  0.00    +0.027 C 
ATOM     22  C   UNL     1      -1.349   2.495   1.802  0.00  0.00    +0.027 C 
ENDBRANCH   7  18
ENDBRANCH  12   6
ENDBRANCH  10  12
TORSDOF 7
