REMARK  Name = 51138058
REMARK  12 active torsions:
REMARK  status: ('A' for Active; 'I' for Inactive)
REMARK    1  A    between atoms: N_3  and  C_20
REMARK    2  A    between atoms: N_4  and  C_25
REMARK    3  A    between atoms: N_6  and  C_26
REMARK    4  A    between atoms: N_6  and  C_30
REMARK    5  A    between atoms: N_6  and  C_31
REMARK    6  A    between atoms: C_7  and  C_11
REMARK    7  A    between atoms: C_9  and  C_18
REMARK    8  A    between atoms: C_11  and  C_15
REMARK    9  A    between atoms: C_15  and  C_22
REMARK   10  A    between atoms: C_15  and  C_23
REMARK   11  A    between atoms: C_20  and  C_24
REMARK   12  A    between atoms: C_25  and  C_26
REMARK                            x       y       z     vdW  Elec       q    Type
REMARK                         _______ _______ _______ _____ _____    ______ ____
ROOT
ATOM      2  N   UNL     1      -1.578  -0.458  -0.325  0.00  0.00    -0.299 NA
ATOM      3  N   UNL     1       3.111   0.896   0.972  0.00  0.00    -0.341 N 
ATOM      7  C   UNL     1      -0.973  -1.651   0.283  0.00  0.00    +0.085 C 
ATOM      8  C   UNL     1       0.524  -1.555   0.599  0.00  0.00    -0.021 A 
ATOM      9  C   UNL     1      -1.571   0.726   0.522  0.00  0.00    +0.145 C 
ATOM     10  C   UNL     1       1.271  -0.344   0.671  0.00  0.00    +0.008 A 
ATOM     12  C   UNL     1       0.940   1.046   0.511  0.00  0.00    -0.020 A 
ATOM     13  C   UNL     1      -0.392   1.641   0.197  0.00  0.00    +0.065 C 
ATOM     14  C   UNL     1       2.635  -0.393   0.984  0.00  0.00    +0.050 A 
ATOM     16  C   UNL     1       2.101   1.769   0.695  0.00  0.00    +0.091 A 
ATOM     17  C   UNL     1       1.226  -2.744   0.923  0.00  0.00    +0.006 A 
ATOM     19  C   UNL     1       3.319  -1.579   1.254  0.00  0.00    +0.026 A 
ATOM     21  C   UNL     1       2.585  -2.758   1.231  0.00  0.00    +0.002 A 
ATOM     33  H   UNL     1      -1.163  -0.263  -1.235  0.00  0.00    +0.123 HD
ENDROOT
BRANCH   9  18
ATOM      1  O   UNL     1      -2.914   2.295  -0.673  0.00  0.00    -0.274 OA
ATOM      4  N   UNL     1      -3.889   1.040   1.028  0.00  0.00    -0.313 N 
ATOM     18  C   UNL     1      -2.849   1.442   0.208  0.00  0.00    +0.230 C 
ATOM     34  H   UNL     1      -3.729   0.311   1.717  0.00  0.00    +0.149 HD
BRANCH   4  25
ATOM     25  C   UNL     1      -5.221   1.594   0.944  0.00  0.00    +0.119 C 
BRANCH  25  26
ATOM     26  C   UNL     1      -6.085   0.806  -0.030  0.00  0.00    +0.102 C 
BRANCH  26   6
ATOM      6  N   UNL     1      -7.431   1.363  -0.079  0.00  0.00    -0.307 NA
ATOM     30  C   UNL     1      -7.464   2.561  -0.920  0.00  0.00    +0.104 C 
ATOM     31  C   UNL     1      -8.384   0.369  -0.576  0.00  0.00    +0.104 C 
ENDBRANCH  26   6
ENDBRANCH  25  26
ENDBRANCH   4  25
ENDBRANCH   9  18
BRANCH   7  11
ATOM     11  C   UNL     1      -1.297  -2.794  -0.696  0.00  0.00    +0.026 C 
BRANCH  11  15
ATOM     15  C   UNL     1      -2.748  -3.274  -0.595  0.00  0.00    -0.015 C 
ATOM     22  C   UNL     1      -2.961  -4.442  -1.560  0.00  0.00    +0.007 C 
ATOM     23  C   UNL     1      -3.758  -2.165  -0.895  0.00  0.00    +0.007 C 
ENDBRANCH  11  15
ENDBRANCH   7  11
BRANCH   3  20
ATOM     20  C   UNL     1       4.479   1.291   1.233  0.00  0.00    +0.177 C 
BRANCH  20  24
ATOM      5  N   UNL     1       6.477   0.294   0.261  0.00  0.00    -0.258 NA
ATOM     24  C   UNL     1       5.398   1.081   0.055  0.00  0.00    +0.061 A 
ATOM     27  C   UNL     1       5.100   1.689  -1.154  0.00  0.00    +0.025 A 
ATOM     28  C   UNL     1       5.966   1.474  -2.221  0.00  0.00    +0.003 A 
ATOM     29  C   UNL     1       7.296   0.109  -0.799  0.00  0.00    +0.111 A 
ATOM     32  C   UNL     1       7.087   0.670  -2.048  0.00  0.00    +0.020 A 
ENDBRANCH  20  24
ENDBRANCH   3  20
TORSDOF 8
