REMARK  Name = 40777017
REMARK  10 active torsions:
REMARK  status: ('A' for Active; 'I' for Inactive)
REMARK    1  A    between atoms: O_2  and  C_30
REMARK    2  A    between atoms: N_5  and  C_15
REMARK    3  A    between atoms: C_9  and  C_16
REMARK    4  A    between atoms: C_10  and  C_15
REMARK    5  A    between atoms: C_18  and  C_19
REMARK    6  A    between atoms: C_24  and  C_27
REMARK    7  A    between atoms: C_25  and  C_26
REMARK    8  A    between atoms: C_26  and  C_28
REMARK    9  A    between atoms: C_28  and  C_29
REMARK   10  A    between atoms: C_29  and  C_30
REMARK                            x       y       z     vdW  Elec       q    Type
REMARK                         _______ _______ _______ _____ _____    ______ ____
ROOT
ATOM      4  N   UNL     1      -0.222   2.735  -1.000  0.00  0.00    -0.297 NA
ATOM      8  C   UNL     1       0.528   2.194   1.435  0.00  0.00    +0.002 C 
ATOM      9  C   UNL     1       1.719   2.033   0.451  0.00  0.00    +0.055 C 
ATOM     10  C   UNL     1      -1.171   1.774  -0.377  0.00  0.00    +0.074 C 
ATOM     11  C   UNL     1      -0.633   1.283   0.984  0.00  0.00    +0.024 C 
ATOM     12  C   UNL     1       0.037   3.652   1.306  0.00  0.00    +0.019 C 
ATOM     13  C   UNL     1       1.151   2.172  -0.991  0.00  0.00    +0.094 C 
ATOM     14  C   UNL     1      -0.222   3.969  -0.178  0.00  0.00    +0.085 C 
ENDROOT
BRANCH   9  16
ATOM      6  N   UNL     1       2.299  -0.056   1.584  0.00  0.00    -0.237 NA
ATOM      7  N   UNL     1       4.191  -1.393   0.921  0.00  0.00    -0.237 NA
ATOM     16  C   UNL     1       2.616   0.813   0.602  0.00  0.00    +0.050 A 
ATOM     17  C   UNL     1       3.691   0.650  -0.249  0.00  0.00    +0.047 A 
ATOM     19  C   UNL     1       4.450  -0.483  -0.040  0.00  0.00    +0.048 A 
ATOM     24  C   UNL     1       3.117  -1.121   1.686  0.00  0.00    +0.127 A 
ATOM     27  C   UNL     1       2.797  -2.107   2.759  0.00  0.00    +0.088 C 
BRANCH  19  18
ATOM     18  C   UNL     1       5.651  -0.748  -0.921  0.00  0.00    +0.038 C 
ATOM     20  C   UNL     1       6.965  -0.812  -0.123  0.00  0.00    +0.010 C 
ATOM     21  C   UNL     1       5.582  -2.068  -1.716  0.00  0.00    +0.010 C 
ATOM     22  C   UNL     1       7.796  -1.873  -0.829  0.00  0.00    +0.001 C 
ATOM     23  C   UNL     1       6.759  -2.907  -1.232  0.00  0.00    +0.001 C 
ENDBRANCH  19  18
ENDBRANCH   9  16
BRANCH  10  15
ATOM     15  C   UNL     1      -1.514   0.609  -1.308  0.00  0.00    +0.123 C 
BRANCH  15   5
ATOM      1  O   UNL     1      -4.357   0.879  -1.600  0.00  0.00    -0.276 OA
ATOM      5  N   UNL     1      -2.514  -0.232  -0.726  0.00  0.00    -0.314 N 
ATOM     25  C   UNL     1      -3.880  -0.027  -0.921  0.00  0.00    +0.213 C 
ATOM     31  H   UNL     1      -2.210  -1.005  -0.141  0.00  0.00    +0.149 HD
BRANCH  25  26
ATOM     26  C   UNL     1      -4.724  -1.042  -0.170  0.00  0.00    +0.096 C 
BRANCH  26  28
ATOM     28  C   UNL     1      -6.228  -0.851  -0.358  0.00  0.00    +0.020 C 
BRANCH  28  29
ATOM     29  C   UNL     1      -7.048  -1.895   0.402  0.00  0.00    +0.121 C 
BRANCH  29  30
ATOM      3  O   UNL     1      -9.048  -0.837  -0.498  0.00  0.00    -0.251 OA
ATOM     30  C   UNL     1      -8.533  -1.698   0.202  0.00  0.00    +0.305 C 
BRANCH  30   2
ATOM      2  O   UNL     1      -9.254  -2.612   0.905  0.00  0.00    -0.481 OA
ATOM     32  H   UNL     1     -10.219  -2.491   0.779  0.00  0.00    +0.295 HD
ENDBRANCH  30   2
ENDBRANCH  29  30
ENDBRANCH  28  29
ENDBRANCH  26  28
ENDBRANCH  25  26
ENDBRANCH  15   5
ENDBRANCH  10  15
TORSDOF 9
