REMARK  Name = 75367647
REMARK  7 active torsions:
REMARK  status: ('A' for Active; 'I' for Inactive)
REMARK    1  A    between atoms: O_2  and  C_7
REMARK    2  A    between atoms: O_2  and  C_15
REMARK    3  A    between atoms: O_3  and  C_18
REMARK    4  A    between atoms: O_3  and  C_24
REMARK    5  A    between atoms: N_4  and  C_10
REMARK    6  A    between atoms: C_10  and  C_12
REMARK    7  A    between atoms: C_20  and  C_23
REMARK                            x       y       z     vdW  Elec       q    Type
REMARK                         _______ _______ _______ _____ _____    ______ ____
ROOT
ATOM      1  O   UNL     1       1.644   3.601  -0.936  0.00  0.00    -0.375 OA
ATOM      4  N   UNL     1      -0.535   1.902   0.511  0.00  0.00    -0.292 NA
ATOM      6  C   UNL     1       0.333   0.813   0.050  0.00  0.00    +0.131 C 
ATOM      7  C   UNL     1       1.622   1.192  -0.697  0.00  0.00    +0.215 C 
ATOM      8  C   UNL     1       0.182   3.085   0.989  0.00  0.00    +0.113 C 
ATOM      9  C   UNL     1       1.476   2.376  -1.642  0.00  0.00    +0.205 C 
ATOM     11  C   UNL     1       0.508   4.008  -0.186  0.00  0.00    +0.175 C 
ENDROOT
BRANCH   7   2
ATOM      2  O   UNL     1       2.038   0.062  -1.466  0.00  0.00    -0.469 OA
BRANCH   2  15
ATOM      5  N   UNL     1       3.168  -0.584   0.452  0.00  0.00    -0.218 NA
ATOM     15  C   UNL     1       2.843  -0.845  -0.834  0.00  0.00    +0.215 A 
ATOM     19  C   UNL     1       3.277  -1.960  -1.532  0.00  0.00    +0.067 A 
ATOM     20  C   UNL     1       3.965  -1.487   1.065  0.00  0.00    +0.042 A 
ATOM     21  C   UNL     1       4.096  -2.866  -0.868  0.00  0.00    +0.007 A 
ATOM     22  C   UNL     1       4.451  -2.633   0.456  0.00  0.00    +0.023 A 
ATOM     23  C   UNL     1       4.329  -1.203   2.485  0.00  0.00    +0.066 C 
ENDBRANCH   2  15
ENDBRANCH   7   2
BRANCH   4  10
ATOM     10  C   UNL     1      -1.476   1.404   1.515  0.00  0.00    +0.119 C 
BRANCH  10  12
ATOM     12  C   UNL     1      -2.538   0.529   0.904  0.00  0.00    -0.033 A 
ATOM     13  C   UNL     1      -2.466  -0.857   1.046  0.00  0.00    +0.008 A 
ATOM     14  C   UNL     1      -3.592   1.104   0.194  0.00  0.00    +0.008 A 
ATOM     16  C   UNL     1      -3.450  -1.667   0.479  0.00  0.00    +0.046 A 
ATOM     17  C   UNL     1      -4.575   0.293  -0.373  0.00  0.00    +0.046 A 
ATOM     18  C   UNL     1      -4.504  -1.093  -0.230  0.00  0.00    +0.120 A 
BRANCH  18   3
ATOM      3  O   UNL     1      -5.463  -1.884  -0.784  0.00  0.00    -0.495 OA
ATOM     24  C   UNL     1      -5.329  -3.292  -0.599  0.00  0.00    +0.277 C 
ENDBRANCH  18   3
ENDBRANCH  10  12
ENDBRANCH   4  10
TORSDOF 5
