REMARK  Name = 25338757
REMARK  5 active torsions:
REMARK  status: ('A' for Active; 'I' for Inactive)
REMARK    1  A    between atoms: N_3  and  C_14
REMARK    2  A    between atoms: N_4  and  C_9
REMARK    3  A    between atoms: C_10  and  C_13
REMARK    4  A    between atoms: C_15  and  C_17
REMARK    5  A    between atoms: C_16  and  C_18
REMARK                            x       y       z     vdW  Elec       q    Type
REMARK                         _______ _______ _______ _____ _____    ______ ____
ROOT
ATOM      3  N   UNL     1      -0.249  -2.836   1.157  0.00  0.00    -0.293 NA
ATOM      9  C   UNL     1      -2.026  -2.428  -0.295  0.00  0.00    +0.089 C 
ATOM     10  C   UNL     1       0.383  -2.814  -0.175  0.00  0.00    +0.147 C 
ATOM     11  C   UNL     1      -0.749  -2.394  -1.134  0.00  0.00    +0.052 C 
ATOM     12  C   UNL     1      -1.642  -3.238   0.934  0.00  0.00    +0.107 C 
ATOM     14  C   UNL     1       0.427  -3.720   2.099  0.00  0.00    +0.105 C 
ENDROOT
BRANCH  10  13
ATOM      1  O   UNL     1       2.756  -2.466  -0.645  0.00  0.00    -0.336 OA
ATOM      5  N   UNL     1       1.669  -0.614  -0.006  0.00  0.00    -0.190 NA
ATOM      6  N   UNL     1       3.706  -1.437  -0.645  0.00  0.00    -0.056 NA
ATOM     13  C   UNL     1       1.585  -1.896  -0.258  0.00  0.00    +0.245 A 
ATOM     16  C   UNL     1       2.989  -0.377  -0.258  0.00  0.00    +0.202 A 
BRANCH  16  18
ATOM     18  C   UNL     1       3.561   0.930  -0.114  0.00  0.00    +0.022 A 
ATOM     20  C   UNL     1       2.761   1.999   0.292  0.00  0.00    +0.012 A 
ATOM     21  C   UNL     1       4.914   1.134  -0.381  0.00  0.00    +0.012 A 
ATOM     22  C   UNL     1       3.316   3.271   0.432  0.00  0.00    +0.001 A 
ATOM     23  C   UNL     1       5.469   2.406  -0.241  0.00  0.00    +0.001 A 
ATOM     25  C   UNL     1       4.670   3.475   0.165  0.00  0.00    +0.000 A 
ENDBRANCH  16  18
ENDBRANCH  10  13
BRANCH   9   4
ATOM      2  O   UNL     1      -3.874  -0.776  -1.744  0.00  0.00    -0.268 OA
ATOM      4  N   UNL     1      -2.460  -1.099   0.066  0.00  0.00    -0.306 N 
ATOM     15  C   UNL     1      -3.361  -0.377  -0.702  0.00  0.00    +0.264 C 
ATOM     27  H   UNL     1      -2.048  -0.663   0.886  0.00  0.00    +0.149 HD
BRANCH  15  17
ATOM      7  N   UNL     1      -3.078   1.378   0.928  0.00  0.00    -0.247 NA
ATOM      8  N   UNL     1      -4.871   3.041  -0.444  0.00  0.00    -0.259 NA
ATOM     17  C   UNL     1      -3.686   0.987  -0.209  0.00  0.00    +0.143 A 
ATOM     19  C   UNL     1      -4.567   1.803  -0.883  0.00  0.00    +0.143 A 
ATOM     24  C   UNL     1      -3.382   2.615   1.367  0.00  0.00    +0.131 A 
ATOM     26  C   UNL     1      -4.263   3.432   0.693  0.00  0.00    +0.130 A 
ENDBRANCH  15  17
ENDBRANCH   9   4
TORSDOF 4
