REMARK  Name = 86769372
REMARK  9 active torsions:
REMARK  status: ('A' for Active; 'I' for Inactive)
REMARK    1  A    between atoms: O_2  and  C_10
REMARK    2  A    between atoms: O_5  and  C_26
REMARK    3  A    between atoms: O_5  and  C_27
REMARK    4  A    between atoms: N_6  and  C_14
REMARK    5  A    between atoms: N_7  and  C_20
REMARK    6  A    between atoms: C_9  and  C_20
REMARK    7  A    between atoms: C_11  and  C_21
REMARK    8  A    between atoms: C_21  and  C_23
REMARK    9  A    between atoms: C_25  and  C_26
REMARK                            x       y       z     vdW  Elec       q    Type
REMARK                         _______ _______ _______ _____ _____    ______ ____
ROOT
ATOM      1  O   UNL     1       2.447   0.026   0.698  0.00  0.00    -0.369 OA
ATOM      9  C   UNL     1       2.824   1.358   0.324  0.00  0.00    +0.164 C 
ATOM     10  C   UNL     1       4.348   1.532   0.345  0.00  0.00    +0.145 C 
ATOM     11  C   UNL     1       3.042  -1.016  -0.079  0.00  0.00    +0.125 C 
ATOM     12  C   UNL     1       5.071   0.425  -0.417  0.00  0.00    +0.036 C 
ATOM     13  C   UNL     1       4.566  -0.950   0.009  0.00  0.00    +0.034 C 
ENDROOT
BRANCH  10   2
ATOM      2  O   UNL     1       4.798   1.493   1.702  0.00  0.00    -0.389 OA
ATOM     30  H   UNL     1       5.757   1.652   1.699  0.00  0.00    +0.210 HD
ENDBRANCH  10   2
BRANCH   9  20
ATOM     20  C   UNL     1       2.197   1.754  -1.011  0.00  0.00    +0.140 C 
BRANCH  20   7
ATOM      3  O   UNL     1       0.227   3.691  -0.216  0.00  0.00    -0.253 OA
ATOM      6  N   UNL     1      -1.438   2.133  -0.651  0.00  0.00    -0.297 N 
ATOM      7  N   UNL     1       0.778   1.571  -0.985  0.00  0.00    -0.297 N 
ATOM     22  C   UNL     1      -0.117   2.568  -0.583  0.00  0.00    +0.300 C 
ATOM     28  H   UNL     1      -1.605   1.161  -0.896  0.00  0.00    +0.151 HD
ATOM     29  H   UNL     1       0.403   0.667  -1.258  0.00  0.00    +0.150 HD
BRANCH   6  14
ATOM     14  C   UNL     1      -2.565   2.964  -0.293  0.00  0.00    +0.074 C 
ATOM     15  C   UNL     1      -3.794   2.622  -1.142  0.00  0.00    +0.022 C 
ATOM     16  C   UNL     1      -2.876   2.855   1.204  0.00  0.00    +0.022 C 
ATOM     17  C   UNL     1      -4.409   1.274  -0.765  0.00  0.00    +0.002 C 
ATOM     18  C   UNL     1      -3.492   1.506   1.576  0.00  0.00    +0.002 C 
ATOM     19  C   UNL     1      -4.719   1.194   0.726  0.00  0.00    +0.000 C 
ENDBRANCH   6  14
ENDBRANCH  20   7
ENDBRANCH   9  20
BRANCH  11  21
ATOM     21  C   UNL     1       2.524  -2.343   0.460  0.00  0.00    +0.090 C 
BRANCH  21  23
ATOM      4  O   UNL     1      -0.439  -3.397  -1.300  0.00  0.00    -0.357 OA
ATOM      8  N   UNL     1       0.940  -3.305  -1.158  0.00  0.00    -0.083 NA
ATOM     23  C   UNL     1       1.127  -2.632  -0.019  0.00  0.00    +0.086 A 
ATOM     24  C   UNL     1      -0.086  -2.278   0.596  0.00  0.00    +0.073 A 
ATOM     25  C   UNL     1      -1.040  -2.782  -0.249  0.00  0.00    +0.163 A 
BRANCH  25  26
ATOM     26  C   UNL     1      -2.507  -2.785  -0.239  0.00  0.00    +0.236 C 
BRANCH  26   5
ATOM      5  O   UNL     1      -2.994  -3.728   0.720  0.00  0.00    -0.375 OA
ATOM     27  C   UNL     1      -4.412  -3.748   0.746  0.00  0.00    +0.194 C 
ENDBRANCH  26   5
ENDBRANCH  25  26
ENDBRANCH  21  23
ENDBRANCH  11  21
TORSDOF 8
