REMARK  Name = 45361394
REMARK  12 active torsions:
REMARK  status: ('A' for Active; 'I' for Inactive)
REMARK    1  A    between atoms: O_2  and  C_11
REMARK    2  A    between atoms: O_5  and  C_31
REMARK    3  A    between atoms: O_5  and  C_35
REMARK    4  A    between atoms: N_6  and  C_15
REMARK    5  A    between atoms: N_7  and  C_25
REMARK    6  A    between atoms: C_8  and  C_18
REMARK    7  A    between atoms: C_10  and  C_20
REMARK    8  A    between atoms: C_14  and  C_19
REMARK    9  A    between atoms: C_19  and  C_21
REMARK   10  A    between atoms: C_19  and  C_22
REMARK   11  A    between atoms: C_23  and  C_24
REMARK   12  A    between atoms: C_25  and  C_28
REMARK                            x       y       z     vdW  Elec       q    Type
REMARK                         _______ _______ _______ _____ _____    ______ ____
ROOT
ATOM      8  C   UNL     1       0.653  -0.254  -1.543  0.00  0.00    -0.027 C 
ATOM      9  C   UNL     1       0.423   0.309  -0.101  0.00  0.00    +0.028 C 
ATOM     10  C   UNL     1      -1.087   0.684   0.118  0.00  0.00    +0.012 C 
ATOM     11  C   UNL     1       1.446   1.431   0.235  0.00  0.00    +0.122 C 
ATOM     12  C   UNL     1       2.122  -0.719  -1.687  0.00  0.00    +0.007 C 
ATOM     13  C   UNL     1      -0.254  -1.489  -1.752  0.00  0.00    +0.009 C 
ATOM     14  C   UNL     1       2.910   0.995  -0.010  0.00  0.00    +0.029 C 
ATOM     15  C   UNL     1      -1.994  -0.545  -0.169  0.00  0.00    +0.076 C 
ATOM     16  C   UNL     1       3.126   0.389  -1.397  0.00  0.00    +0.007 C 
ATOM     17  C   UNL     1      -1.729  -1.192  -1.527  0.00  0.00    +0.023 C 
ATOM     18  C   UNL     1       0.351   0.793  -2.645  0.00  0.00    +0.011 C 
ATOM     20  C   UNL     1      -1.390   1.220   1.528  0.00  0.00    +0.010 C 
ENDROOT
BRANCH  15   6
ATOM      4  O   UNL     1      -4.130  -2.264   0.683  0.00  0.00    -0.270 OA
ATOM      6  N   UNL     1      -3.399  -0.204  -0.089  0.00  0.00    -0.308 N 
ATOM     23  C   UNL     1      -4.358  -1.108   0.336  0.00  0.00    +0.244 C 
ATOM     36  H   UNL     1      -3.675   0.696  -0.469  0.00  0.00    +0.149 HD
BRANCH  23  24
ATOM     24  C   UNL     1      -5.758  -0.612   0.336  0.00  0.00    +0.037 A 
ATOM     26  C   UNL     1      -6.815  -1.510   0.186  0.00  0.00    +0.016 A 
ATOM     27  C   UNL     1      -6.016   0.751   0.483  0.00  0.00    +0.016 A 
ATOM     29  C   UNL     1      -8.130  -1.044   0.183  0.00  0.00    +0.046 A 
ATOM     30  C   UNL     1      -7.330   1.216   0.481  0.00  0.00    +0.046 A 
ATOM     31  C   UNL     1      -8.388   0.319   0.330  0.00  0.00    +0.120 A 
BRANCH  31   5
ATOM      5  O   UNL     1      -9.671   0.773   0.328  0.00  0.00    -0.495 OA
ATOM     35  C   UNL     1     -10.704  -0.198   0.171  0.00  0.00    +0.277 C 
ENDBRANCH  31   5
ENDBRANCH  23  24
ENDBRANCH  15   6
BRANCH  11   2
ATOM      2  O   UNL     1       1.348   1.767   1.620  0.00  0.00    -0.391 OA
ATOM     37  H   UNL     1       1.542   0.968   2.139  0.00  0.00    +0.210 HD
ENDBRANCH  11   2
BRANCH  14  19
ATOM     19  C   UNL     1       3.892   2.153   0.201  0.00  0.00    +0.077 C 
ATOM     21  C   UNL     1       3.564   3.300  -0.749  0.00  0.00    +0.017 C 
BRANCH  19  22
ATOM      3  O   UNL     1       5.900   1.705  -1.077  0.00  0.00    -0.276 OA
ATOM      7  N   UNL     1       5.880   1.173   1.181  0.00  0.00    -0.310 N 
ATOM     22  C   UNL     1       5.324   1.663   0.008  0.00  0.00    +0.216 C 
ATOM     38  H   UNL     1       5.321   1.152   2.029  0.00  0.00    +0.149 HD
BRANCH   7  25
ATOM     25  C   UNL     1       7.226   0.650   1.248  0.00  0.00    +0.146 C 
BRANCH  25  28
ATOM      1  S   UNL     1       8.678  -1.466   0.186  0.00  0.00    -0.100 S 
ATOM     28  C   UNL     1       7.276  -0.815   0.923  0.00  0.00    +0.007 A 
ATOM     32  C   UNL     1       6.311  -1.774   1.137  0.00  0.00    +0.013 A 
ATOM     33  C   UNL     1       6.729  -3.061   0.691  0.00  0.00    +0.008 A 
ATOM     34  C   UNL     1       7.996  -3.037   0.153  0.00  0.00    +0.045 A 
ENDBRANCH  25  28
ENDBRANCH   7  25
ENDBRANCH  19  22
ENDBRANCH  14  19
TORSDOF 8
