REMARK  Name = 75368597
REMARK  4 active torsions:
REMARK  status: ('A' for Active; 'I' for Inactive)
REMARK    1  A    between atoms: N_3  and  C_9
REMARK    2  A    between atoms: N_5  and  C_19
REMARK    3  A    between atoms: C_19  and  C_21
REMARK    4  A    between atoms: C_20  and  C_22
REMARK                            x       y       z     vdW  Elec       q    Type
REMARK                         _______ _______ _______ _____ _____    ______ ____
ROOT
ATOM      1  O   UNL     1       3.144   2.690   0.451  0.00  0.00    -0.252 OA
ATOM      3  N   UNL     1      -1.535   0.801  -0.097  0.00  0.00    -0.296 NA
ATOM      4  N   UNL     1       1.097   1.782  -0.256  0.00  0.00    -0.278 N 
ATOM      5  N   UNL     1       2.993   0.877  -1.050  0.00  0.00    -0.278 N 
ATOM      8  C   UNL     1       0.653   0.800  -1.224  0.00  0.00    +0.109 C 
ATOM     10  C   UNL     1      -0.463  -0.061  -0.635  0.00  0.00    +0.108 C 
ATOM     11  C   UNL     1      -1.015   1.688   0.964  0.00  0.00    +0.104 C 
ATOM     12  C   UNL     1       0.113   2.582   0.443  0.00  0.00    +0.125 C 
ATOM     13  C   UNL     1       1.929   0.041  -1.581  0.00  0.00    +0.133 C 
ATOM     16  C   UNL     1       2.493   1.888  -0.205  0.00  0.00    +0.306 C 
ENDROOT
BRANCH   3   9
ATOM      2  O   UNL     1      -7.080  -1.680  -1.046  0.00  0.00    -0.276 OA
ATOM      6  N   UNL     1      -5.411  -0.828   0.328  0.00  0.00    -0.302 N 
ATOM      9  C   UNL     1      -2.634  -0.013   0.415  0.00  0.00    +0.060 C 
ATOM     14  C   UNL     1      -3.754   0.889   0.950  0.00  0.00    +0.038 C 
ATOM     15  C   UNL     1      -3.169  -0.931  -0.692  0.00  0.00    +0.038 C 
ATOM     17  C   UNL     1      -4.956   0.061   1.403  0.00  0.00    +0.109 C 
ATOM     18  C   UNL     1      -4.382  -1.723  -0.206  0.00  0.00    +0.109 C 
ATOM     20  C   UNL     1      -6.714  -0.897  -0.166  0.00  0.00    +0.212 C 
ATOM     22  C   UNL     1      -7.714   0.059   0.433  0.00  0.00    +0.109 C 
ENDBRANCH   3   9
BRANCH   5  19
ATOM     19  C   UNL     1       4.389   0.572  -1.270  0.00  0.00    +0.164 C 
BRANCH  19  21
ATOM      7  N   UNL     1       5.066  -1.721  -0.839  0.00  0.00    -0.258 NA
ATOM     21  C   UNL     1       4.889  -0.483  -0.325  0.00  0.00    +0.059 A 
ATOM     23  C   UNL     1       5.141  -0.147   0.995  0.00  0.00    +0.025 A 
ATOM     24  C   UNL     1       5.604  -1.147   1.843  0.00  0.00    +0.003 A 
ATOM     25  C   UNL     1       5.517  -2.666   0.016  0.00  0.00    +0.111 A 
ATOM     26  C   UNL     1       5.799  -2.433   1.352  0.00  0.00    +0.020 A 
ENDBRANCH  19  21
ENDBRANCH   5  19
TORSDOF 3
