REMARK  Name = 51137930
REMARK  5 active torsions:
REMARK  status: ('A' for Active; 'I' for Inactive)
REMARK    1  A    between atoms: O_2  and  C_16
REMARK    2  A    between atoms: O_2  and  C_25
REMARK    3  A    between atoms: C_8  and  C_12
REMARK    4  A    between atoms: C_14  and  C_15
REMARK    5  A    between atoms: C_23  and  C_24
REMARK                            x       y       z     vdW  Elec       q    Type
REMARK                         _______ _______ _______ _____ _____    ______ ____
ROOT
ATOM      3  N   UNL     1      -2.105  -1.198   0.438  0.00  0.00    -0.299 N 
ATOM      5  N   UNL     1      -3.141   0.603  -0.589  0.00  0.00    -0.179 NA
ATOM      6  N   UNL     1      -3.081   0.394   1.811  0.00  0.00    -0.223 NA
ATOM      8  C   UNL     1      -0.726  -2.911  -0.461  0.00  0.00    +0.095 C 
ATOM      9  C   UNL     1      -1.205  -3.316   0.937  0.00  0.00    +0.033 C 
ATOM     10  C   UNL     1      -1.724  -1.800  -0.840  0.00  0.00    +0.121 C 
ATOM     11  C   UNL     1      -1.660  -2.002   1.572  0.00  0.00    +0.109 C 
ATOM     13  C   UNL     1      -2.805  -0.017   0.558  0.00  0.00    +0.221 A 
ATOM     16  C   UNL     1      -3.825   1.756  -0.434  0.00  0.00    +0.219 A 
ATOM     17  C   UNL     1      -3.768   1.552   1.892  0.00  0.00    +0.119 A 
ATOM     18  C   UNL     1      -4.170   2.284   0.793  0.00  0.00    +0.087 A 
ENDROOT
BRANCH   8  12
ATOM      1  O   UNL     1       1.044  -1.223  -0.241  0.00  0.00    -0.420 OA
ATOM      4  N   UNL     1       1.803  -3.288  -0.642  0.00  0.00    -0.112 NA
ATOM      7  N   UNL     1       2.894  -2.445  -0.541  0.00  0.00    -0.107 NA
ATOM     12  C   UNL     1       0.746  -2.533  -0.460  0.00  0.00    +0.222 A 
ATOM     14  C   UNL     1       2.403  -1.250  -0.307  0.00  0.00    +0.248 A 
BRANCH  14  15
ATOM     15  C   UNL     1       3.066   0.007  -0.114  0.00  0.00    +0.038 A 
ATOM     19  C   UNL     1       4.459   0.076  -0.164  0.00  0.00    +0.013 A 
ATOM     20  C   UNL     1       2.319   1.161   0.123  0.00  0.00    +0.013 A 
ATOM     21  C   UNL     1       5.104   1.299   0.023  0.00  0.00    +0.004 A 
ATOM     22  C   UNL     1       2.964   2.383   0.311  0.00  0.00    +0.004 A 
ATOM     23  C   UNL     1       4.356   2.452   0.261  0.00  0.00    -0.050 A 
ATOM     24  C   UNL     1       5.046   3.759   0.462  0.00  0.00    +0.044 C 
ENDBRANCH  14  15
ENDBRANCH   8  12
BRANCH  16   2
ATOM      2  O   UNL     1      -4.188   2.423  -1.574  0.00  0.00    -0.480 OA
ATOM     25  C   UNL     1      -3.806   1.832  -2.811  0.00  0.00    +0.279 C 
ENDBRANCH  16   2
TORSDOF 3
