REMARK  Name = 38030644
REMARK  11 active torsions:
REMARK  status: ('A' for Active; 'I' for Inactive)
REMARK    1  A    between atoms: O_1  and  C_21
REMARK    2  A    between atoms: N_3  and  C_11
REMARK    3  A    between atoms: C_6  and  C_10
REMARK    4  A    between atoms: C_7  and  C_11
REMARK    5  A    between atoms: C_9  and  C_14
REMARK    6  A    between atoms: C_10  and  C_17
REMARK    7  A    between atoms: C_10  and  C_18
REMARK    8  A    between atoms: C_13  and  C_22
REMARK    9  A    between atoms: C_14  and  C_23
REMARK   10  A    between atoms: C_24  and  C_25
REMARK   11  A    between atoms: C_30  and  C_31
REMARK                            x       y       z     vdW  Elec       q    Type
REMARK                         _______ _______ _______ _____ _____    ______ ____
ROOT
ATOM      6  C   UNL     1      -1.040  -0.264  -0.627  0.00  0.00    +0.000 C 
ATOM      7  C   UNL     1      -2.515  -0.715  -0.485  0.00  0.00    +0.029 C 
ATOM      8  C   UNL     1      -0.183  -1.403  -1.200  0.00  0.00    +0.012 C 
ATOM      9  C   UNL     1      -0.225  -2.664  -0.316  0.00  0.00    +0.024 C 
ATOM     12  C   UNL     1      -2.653  -2.141  -0.004  0.00  0.00    -0.023 C 
ATOM     13  C   UNL     1      -1.640  -3.021   0.091  0.00  0.00    -0.073 C 
ATOM     22  C   UNL     1      -1.874  -4.427   0.568  0.00  0.00    +0.039 C 
ENDROOT
BRANCH   6  10
ATOM     10  C   UNL     1      -0.908   0.979  -1.513  0.00  0.00    -0.013 C 
ATOM     17  C   UNL     1       0.369   1.741  -1.174  0.00  0.00    +0.007 C 
ATOM     18  C   UNL     1      -0.929   0.587  -2.986  0.00  0.00    +0.007 C 
ENDBRANCH   6  10
BRANCH   7  11
ATOM     11  C   UNL     1      -3.291   0.217   0.452  0.00  0.00    +0.092 C 
BRANCH  11   3
ATOM      3  N   UNL     1      -4.709  -0.134   0.475  0.00  0.00    -0.302 NA
ATOM     15  C   UNL     1      -5.388   0.378   1.673  0.00  0.00    +0.087 C 
ATOM     16  C   UNL     1      -5.404   0.281  -0.751  0.00  0.00    +0.087 C 
ATOM     19  C   UNL     1      -5.630   1.888   1.657  0.00  0.00    +0.046 C 
ATOM     20  C   UNL     1      -5.646   1.788  -0.852  0.00  0.00    +0.046 C 
ATOM     21  C   UNL     1      -6.362   2.318   0.389  0.00  0.00    +0.117 C 
BRANCH  21   1
ATOM      1  O   UNL     1      -6.420   3.738   0.346  0.00  0.00    -0.392 OA
ATOM     32  H   UNL     1      -6.883   3.988  -0.472  0.00  0.00    +0.210 HD
ENDBRANCH  21   1
ENDBRANCH  11   3
ENDBRANCH   7  11
BRANCH   9  14
ATOM     14  C   UNL     1       0.676  -2.506   0.914  0.00  0.00    +0.105 C 
BRANCH  14  23
ATOM      2  O   UNL     1       2.494  -0.897   0.672  0.00  0.00    -0.420 OA
ATOM      4  N   UNL     1       3.023  -2.977   0.043  0.00  0.00    -0.112 NA
ATOM      5  N   UNL     1       4.135  -2.178  -0.147  0.00  0.00    -0.107 NA
ATOM     23  C   UNL     1       2.090  -2.188   0.521  0.00  0.00    +0.218 A 
ATOM     24  C   UNL     1       3.781  -0.973   0.234  0.00  0.00    +0.248 A 
BRANCH  24  25
ATOM     25  C   UNL     1       4.526   0.252   0.258  0.00  0.00    +0.038 A 
ATOM     26  C   UNL     1       5.853   0.270  -0.172  0.00  0.00    +0.013 A 
ATOM     27  C   UNL     1       3.924   1.426   0.711  0.00  0.00    +0.013 A 
ATOM     28  C   UNL     1       6.577   1.462  -0.149  0.00  0.00    +0.004 A 
ATOM     29  C   UNL     1       4.648   2.618   0.735  0.00  0.00    +0.004 A 
ATOM     30  C   UNL     1       5.975   2.636   0.305  0.00  0.00    -0.050 A 
ATOM     31  C   UNL     1       6.750   3.909   0.330  0.00  0.00    +0.044 C 
ENDBRANCH  24  25
ENDBRANCH  14  23
ENDBRANCH   9  14
TORSDOF 7
