REMARK  Name = 75536393
REMARK  10 active torsions:
REMARK  status: ('A' for Active; 'I' for Inactive)
REMARK    1  A    between atoms: O_2  and  C_11
REMARK    2  A    between atoms: O_5  and  C_27
REMARK    3  A    between atoms: O_5  and  C_33
REMARK    4  A    between atoms: N_6  and  C_15
REMARK    5  A    between atoms: N_8  and  C_21
REMARK    6  A    between atoms: C_9  and  C_14
REMARK    7  A    between atoms: C_10  and  C_15
REMARK    8  A    between atoms: C_14  and  C_16
REMARK    9  A    between atoms: C_19  and  C_20
REMARK   10  A    between atoms: C_21  and  C_24
REMARK                            x       y       z     vdW  Elec       q    Type
REMARK                         _______ _______ _______ _____ _____    ______ ____
ROOT
ATOM      1  O   UNL     1       3.699  -0.196   0.681  0.00  0.00    -0.369 OA
ATOM      9  C   UNL     1       4.058  -1.289  -0.169  0.00  0.00    +0.125 C 
ATOM     10  C   UNL     1       4.247   1.074   0.305  0.00  0.00    +0.164 C 
ATOM     11  C   UNL     1       5.776   1.013   0.194  0.00  0.00    +0.145 C 
ATOM     12  C   UNL     1       5.575  -1.461  -0.214  0.00  0.00    +0.034 C 
ATOM     13  C   UNL     1       6.250  -0.165  -0.654  0.00  0.00    +0.036 C 
ENDROOT
BRANCH  11   2
ATOM      2  O   UNL     1       6.327   0.857   1.504  0.00  0.00    -0.389 OA
ATOM     34  H   UNL     1       7.295   0.868   1.419  0.00  0.00    +0.210 HD
ENDBRANCH  11   2
BRANCH   9  14
ATOM     14  C   UNL     1       3.387  -2.540   0.386  0.00  0.00    +0.090 C 
BRANCH  14  16
ATOM      3  O   UNL     1       0.156  -3.062  -1.125  0.00  0.00    -0.354 OA
ATOM      7  N   UNL     1       1.540  -3.190  -1.106  0.00  0.00    -0.083 NA
ATOM     16  C   UNL     1       1.926  -2.595   0.026  0.00  0.00    +0.087 A 
ATOM     17  C   UNL     1       0.841  -2.078   0.755  0.00  0.00    +0.076 A 
ATOM     19  C   UNL     1      -0.248  -2.398  -0.012  0.00  0.00    +0.167 A 
BRANCH  19  20
ATOM     20  C   UNL     1      -1.662  -2.191   0.109  0.00  0.00    +0.020 A 
ATOM     22  C   UNL     1      -2.448  -2.057  -1.035  0.00  0.00    +0.015 A 
ATOM     23  C   UNL     1      -2.251  -2.123   1.372  0.00  0.00    +0.015 A 
ATOM     25  C   UNL     1      -3.823  -1.854  -0.917  0.00  0.00    +0.046 A 
ATOM     26  C   UNL     1      -3.626  -1.920   1.490  0.00  0.00    +0.046 A 
ATOM     27  C   UNL     1      -4.412  -1.786   0.346  0.00  0.00    +0.120 A 
BRANCH  27   5
ATOM      5  O   UNL     1      -5.753  -1.586   0.461  0.00  0.00    -0.495 OA
ATOM     33  C   UNL     1      -6.497  -1.457  -0.750  0.00  0.00    +0.277 C 
ENDBRANCH  27   5
ENDBRANCH  19  20
ENDBRANCH  14  16
ENDBRANCH   9  14
BRANCH  10  15
ATOM     15  C   UNL     1       3.578   1.608  -0.960  0.00  0.00    +0.140 C 
BRANCH  15   6
ATOM      4  O   UNL     1       2.008   3.795   0.049  0.00  0.00    -0.253 OA
ATOM      6  N   UNL     1       2.155   1.644  -0.813  0.00  0.00    -0.297 N 
ATOM      8  N   UNL     1       0.090   2.526  -0.271  0.00  0.00    -0.295 N 
ATOM     18  C   UNL     1       1.463   2.752  -0.311  0.00  0.00    +0.300 C 
ATOM     35  H   UNL     1       1.623   0.818  -1.070  0.00  0.00    +0.150 HD
ATOM     36  H   UNL     1      -0.254   1.625  -0.591  0.00  0.00    +0.151 HD
BRANCH   8  21
ATOM     21  C   UNL     1      -0.859   3.506   0.204  0.00  0.00    +0.141 C 
BRANCH  21  24
ATOM     24  C   UNL     1      -2.271   3.000   0.137  0.00  0.00    -0.030 A 
ATOM     28  C   UNL     1      -3.033   3.205  -1.013  0.00  0.00    +0.005 A 
ATOM     29  C   UNL     1      -2.821   2.324   1.226  0.00  0.00    +0.005 A 
ATOM     30  C   UNL     1      -4.344   2.734  -1.075  0.00  0.00    +0.000 A 
ATOM     31  C   UNL     1      -4.133   1.852   1.165  0.00  0.00    +0.000 A 
ATOM     32  C   UNL     1      -4.894   2.058   0.014  0.00  0.00    +0.000 A 
ENDBRANCH  21  24
ENDBRANCH   8  21
ENDBRANCH  15   6
ENDBRANCH  10  15
TORSDOF 9
