REMARK  Name = 25338516
REMARK  7 active torsions:
REMARK  status: ('A' for Active; 'I' for Inactive)
REMARK    1  A    between atoms: O_3  and  C_16
REMARK    2  A    between atoms: O_3  and  C_23
REMARK    3  A    between atoms: N_4  and  C_13
REMARK    4  A    between atoms: N_5  and  C_8
REMARK    5  A    between atoms: C_9  and  C_12
REMARK    6  A    between atoms: C_14  and  C_16
REMARK    7  A    between atoms: C_15  and  C_17
REMARK                            x       y       z     vdW  Elec       q    Type
REMARK                         _______ _______ _______ _____ _____    ______ ____
ROOT
ATOM      4  N   UNL     1       0.213   4.032   1.218  0.00  0.00    -0.293 NA
ATOM      8  C   UNL     1       2.147   3.602  -0.011  0.00  0.00    +0.089 C 
ATOM      9  C   UNL     1      -0.264   3.963  -0.176  0.00  0.00    +0.147 C 
ATOM     10  C   UNL     1       0.973   3.530  -0.988  0.00  0.00    +0.052 C 
ATOM     11  C   UNL     1       1.619   4.442   1.142  0.00  0.00    +0.107 C 
ATOM     13  C   UNL     1      -0.573   4.935   2.050  0.00  0.00    +0.105 C 
ENDROOT
BRANCH   9  12
ATOM      1  O   UNL     1      -2.565   3.575  -0.900  0.00  0.00    -0.336 OA
ATOM      6  N   UNL     1      -1.542   1.755  -0.088  0.00  0.00    -0.190 NA
ATOM      7  N   UNL     1      -3.501   2.535  -0.978  0.00  0.00    -0.056 NA
ATOM     12  C   UNL     1      -1.441   3.030  -0.366  0.00  0.00    +0.245 A 
ATOM     15  C   UNL     1      -2.824   1.496  -0.480  0.00  0.00    +0.202 A 
BRANCH  15  17
ATOM     17  C   UNL     1      -3.397   0.186  -0.363  0.00  0.00    +0.023 A 
ATOM     18  C   UNL     1      -2.640  -0.861   0.163  0.00  0.00    +0.020 A 
ATOM     19  C   UNL     1      -4.707  -0.039  -0.774  0.00  0.00    +0.012 A 
ATOM     20  C   UNL     1      -3.187  -2.149   0.285  0.00  0.00    -0.017 A 
ATOM     21  C   UNL     1      -4.520  -2.378  -0.133  0.00  0.00    -0.018 A 
ATOM     22  C   UNL     1      -5.266  -1.312  -0.660  0.00  0.00    +0.009 A 
ATOM     24  C   UNL     1      -2.440  -3.215   0.812  0.00  0.00    +0.008 A 
ATOM     25  C   UNL     1      -5.066  -3.666  -0.011  0.00  0.00    +0.008 A 
ATOM     26  C   UNL     1      -2.999  -4.489   0.926  0.00  0.00    +0.001 A 
ATOM     27  C   UNL     1      -4.310  -4.713   0.515  0.00  0.00    +0.001 A 
ENDBRANCH  15  17
ENDBRANCH   9  12
BRANCH   8   5
ATOM      2  O   UNL     1       4.171   1.902  -1.184  0.00  0.00    -0.272 OA
ATOM      5  N   UNL     1       2.548   2.289   0.436  0.00  0.00    -0.308 N 
ATOM     14  C   UNL     1       3.534   1.547  -0.196  0.00  0.00    +0.251 C 
ATOM     33  H   UNL     1       2.043   1.875   1.214  0.00  0.00    +0.149 HD
BRANCH  14  16
ATOM     16  C   UNL     1       3.752   0.212   0.483  0.00  0.00    +0.324 C 
BRANCH  16   3
ATOM      3  O   UNL     1       4.768  -0.519  -0.169  0.00  0.00    -0.483 OA
BRANCH   3  23
ATOM     23  C   UNL     1       4.678  -1.891  -0.131  0.00  0.00    +0.121 A 
ATOM     28  C   UNL     1       4.073  -2.520   0.957  0.00  0.00    +0.045 A 
ATOM     29  C   UNL     1       5.192  -2.653  -1.180  0.00  0.00    +0.045 A 
ATOM     30  C   UNL     1       3.981  -3.911   0.996  0.00  0.00    +0.004 A 
ATOM     31  C   UNL     1       5.100  -4.044  -1.141  0.00  0.00    +0.004 A 
ATOM     32  C   UNL     1       4.495  -4.673  -0.053  0.00  0.00    +0.000 A 
ENDBRANCH   3  23
ENDBRANCH  16   3
ENDBRANCH  14  16
ENDBRANCH   8   5
TORSDOF 6
