REMARK  Name = 45361088
REMARK  7 active torsions:
REMARK  status: ('A' for Active; 'I' for Inactive)
REMARK    1  A    between atoms: N_4  and  C_17
REMARK    2  A    between atoms: N_5  and  C_16
REMARK    3  A    between atoms: C_12  and  C_15
REMARK    4  A    between atoms: C_15  and  C_18
REMARK    5  A    between atoms: C_16  and  C_19
REMARK    6  A    between atoms: C_18  and  C_20
REMARK    7  A    between atoms: C_27  and  C_30
REMARK                            x       y       z     vdW  Elec       q    Type
REMARK                         _______ _______ _______ _____ _____    ______ ____
ROOT
ATOM      1  O   UNL     1       0.733  -0.533   1.358  0.00  0.00    -0.274 OA
ATOM      4  N   UNL     1      -0.973   2.125  -0.880  0.00  0.00    -0.296 NA
ATOM      5  N   UNL     1       2.415   0.958  -0.138  0.00  0.00    -0.286 NA
ATOM      6  N   UNL     1      -0.695   1.190   1.835  0.00  0.00    -0.312 N 
ATOM      8  C   UNL     1       0.495   2.292  -0.790  0.00  0.00    +0.084 C 
ATOM      9  C   UNL     1       1.240   1.654   0.419  0.00  0.00    +0.161 C 
ATOM     10  C   UNL     1       1.265   1.705  -1.987  0.00  0.00    +0.036 C 
ATOM     11  C   UNL     1       2.671   1.536  -1.453  0.00  0.00    +0.087 C 
ATOM     12  C   UNL     1      -1.735   2.764   0.230  0.00  0.00    +0.074 C 
ATOM     13  C   UNL     1       0.422   0.649   1.226  0.00  0.00    +0.232 C 
ATOM     14  C   UNL     1      -1.133   2.557   1.633  0.00  0.00    +0.123 C 
ATOM     17  C   UNL     1      -1.475   2.598  -2.181  0.00  0.00    +0.105 C 
ATOM     31  H   UNL     1      -1.238   0.593   2.450  0.00  0.00    +0.149 HD
ENDROOT
BRANCH  12  15
ATOM     15  C   UNL     1      -3.184   2.234   0.264  0.00  0.00    +0.029 C 
BRANCH  15  18
ATOM     18  C   UNL     1      -3.235   0.719   0.204  0.00  0.00    +0.097 C 
BRANCH  18  20
ATOM      2  O   UNL     1      -5.581   1.031   0.348  0.00  0.00    -0.276 OA
ATOM      3  O   UNL     1      -5.306  -3.812  -0.615  0.00  0.00    -0.377 OA
ATOM      7  N   UNL     1      -4.831  -1.163   0.218  0.00  0.00    -0.297 N 
ATOM     20  C   UNL     1      -4.657   0.219   0.265  0.00  0.00    +0.216 C 
ATOM     23  C   UNL     1      -6.178  -1.732   0.267  0.00  0.00    +0.136 C 
ATOM     24  C   UNL     1      -3.755  -2.158   0.247  0.00  0.00    +0.136 C 
ATOM     28  C   UNL     1      -6.329  -2.827  -0.780  0.00  0.00    +0.179 C 
ATOM     29  C   UNL     1      -4.008  -3.240  -0.795  0.00  0.00    +0.179 C 
ENDBRANCH  18  20
ENDBRANCH  15  18
ENDBRANCH  12  15
BRANCH   5  16
ATOM     16  C   UNL     1       3.587   1.020   0.726  0.00  0.00    +0.120 C 
BRANCH  16  19
ATOM     19  C   UNL     1       4.569  -0.079   0.419  0.00  0.00    -0.033 A 
ATOM     21  C   UNL     1       4.314  -1.381   0.849  0.00  0.00    +0.005 A 
ATOM     22  C   UNL     1       5.734   0.205  -0.292  0.00  0.00    +0.005 A 
ATOM     25  C   UNL     1       5.225  -2.399   0.568  0.00  0.00    +0.003 A 
ATOM     26  C   UNL     1       6.645  -0.813  -0.574  0.00  0.00    +0.003 A 
ATOM     27  C   UNL     1       6.391  -2.115  -0.144  0.00  0.00    -0.050 A 
ATOM     30  C   UNL     1       7.365  -3.204  -0.445  0.00  0.00    +0.044 C 
ENDBRANCH  16  19
ENDBRANCH   5  16
TORSDOF 5
