REMARK  Name = 56775726
REMARK  7 active torsions:
REMARK  status: ('A' for Active; 'I' for Inactive)
REMARK    1  A    between atoms: O_3  and  C_23
REMARK    2  A    between atoms: N_4  and  C_6
REMARK    3  A    between atoms: N_4  and  C_11
REMARK    4  A    between atoms: C_6  and  C_9
REMARK    5  A    between atoms: C_9  and  C_10
REMARK    6  A    between atoms: C_11  and  C_12
REMARK    7  A    between atoms: C_14  and  C_17
REMARK                            x       y       z     vdW  Elec       q    Type
REMARK                         _______ _______ _______ _____ _____    ______ ____
ROOT
ATOM      9  C   UNL     1       0.853   2.195  -1.202  0.00  0.00    +0.085 C 
ENDROOT
BRANCH   9  10
ATOM      2  O   UNL     1      -2.512   2.120  -0.006  0.00  0.00    -0.354 OA
ATOM      5  N   UNL     1      -1.333   2.787  -0.315  0.00  0.00    -0.083 NA
ATOM     10  C   UNL     1      -0.510   1.840  -0.774  0.00  0.00    +0.086 A 
ATOM     13  C   UNL     1      -1.109   0.568  -0.777  0.00  0.00    +0.076 A 
ATOM     14  C   UNL     1      -2.366   0.800  -0.285  0.00  0.00    +0.168 A 
BRANCH  14  17
ATOM     17  C   UNL     1      -3.517  -0.028  -0.016  0.00  0.00    +0.023 A 
ATOM     21  C   UNL     1      -3.468  -1.397  -0.275  0.00  0.00    +0.057 A 
ATOM     22  C   UNL     1      -4.680   0.543   0.501  0.00  0.00    +0.012 A 
ATOM     23  C   UNL     1      -4.581  -2.197  -0.017  0.00  0.00    +0.118 A 
ATOM     24  C   UNL     1      -5.794  -0.256   0.759  0.00  0.00    +0.004 A 
ATOM     25  C   UNL     1      -5.745  -1.626   0.500  0.00  0.00    +0.045 A 
BRANCH  23   3
ATOM      3  O   UNL     1      -4.533  -3.533  -0.270  0.00  0.00    -0.507 OA
ATOM     27  H   UNL     1      -5.389  -3.930  -0.033  0.00  0.00    +0.292 HD
ENDBRANCH  23   3
ENDBRANCH  14  17
ENDBRANCH   9  10
BRANCH   9   6
ATOM      1  O   UNL     1       2.916   3.549   1.108  0.00  0.00    -0.376 OA
ATOM      6  C   UNL     1       1.843   2.100  -0.034  0.00  0.00    +0.072 C 
ATOM      7  C   UNL     1       1.604   2.949   1.209  0.00  0.00    +0.184 C 
ATOM      8  C   UNL     1       3.170   2.845  -0.129  0.00  0.00    +0.184 C 
BRANCH   6   4
ATOM      4  N   UNL     1       2.104   0.727   0.378  0.00  0.00    -0.302 NA
ATOM     26  H   UNL     1       1.318   0.249   0.815  0.00  0.00    +0.123 HD
BRANCH   4  11
ATOM     11  C   UNL     1       2.582  -0.049  -0.764  0.00  0.00    +0.117 C 
BRANCH  11  12
ATOM     12  C   UNL     1       3.411  -1.229  -0.332  0.00  0.00    -0.034 A 
ATOM     15  C   UNL     1       4.791  -1.094  -0.179  0.00  0.00    +0.005 A 
ATOM     16  C   UNL     1       2.799  -2.458  -0.085  0.00  0.00    +0.005 A 
ATOM     18  C   UNL     1       5.559  -2.187   0.221  0.00  0.00    +0.000 A 
ATOM     19  C   UNL     1       3.567  -3.552   0.315  0.00  0.00    +0.000 A 
ATOM     20  C   UNL     1       4.947  -3.416   0.468  0.00  0.00    +0.000 A 
ENDBRANCH  11  12
ENDBRANCH   4  11
ENDBRANCH   6   4
ENDBRANCH   9   6
TORSDOF 7
