REMARK  Name = 25390419
REMARK  10 active torsions:
REMARK  status: ('A' for Active; 'I' for Inactive)
REMARK    1  A    between atoms: O_2  and  C_12
REMARK    2  A    between atoms: O_3  and  C_13
REMARK    3  A    between atoms: N_6  and  C_15
REMARK    4  A    between atoms: N_7  and  C_19
REMARK    5  A    between atoms: C_8  and  C_16
REMARK    6  A    between atoms: C_9  and  C_15
REMARK    7  A    between atoms: C_14  and  C_17
REMARK    8  A    between atoms: C_17  and  C_18
REMARK    9  A    between atoms: C_19  and  C_20
REMARK   10  A    between atoms: C_19  and  C_21
REMARK                            x       y       z     vdW  Elec       q    Type
REMARK                         _______ _______ _______ _____ _____    ______ ____
ROOT
ATOM      1  O   UNL     1       1.425   0.518  -1.022  0.00  0.00    -0.366 OA
ATOM      9  C   UNL     1       2.507  -0.393  -0.760  0.00  0.00    +0.167 C 
ATOM     12  C   UNL     1       2.955  -0.100   0.662  0.00  0.00    +0.176 C 
ATOM     13  C   UNL     1       2.757   1.400   0.740  0.00  0.00    +0.175 C 
ATOM     14  C   UNL     1       1.470   1.592  -0.055  0.00  0.00    +0.158 C 
ENDROOT
BRANCH  12   2
ATOM      2  O   UNL     1       4.289  -0.500   0.891  0.00  0.00    -0.387 OA
ATOM     23  H   UNL     1       4.547  -0.170   1.768  0.00  0.00    +0.210 HD
ENDBRANCH  12   2
BRANCH  13   3
ATOM      3  O   UNL     1       3.809   2.075   0.050  0.00  0.00    -0.387 OA
ATOM     24  H   UNL     1       3.624   3.028   0.099  0.00  0.00    +0.210 HD
ENDBRANCH  13   3
BRANCH   9  15
ATOM     15  C   UNL     1       2.033  -1.821  -0.959  0.00  0.00    +0.138 C 
BRANCH  15   6
ATOM      4  O   UNL     1      -0.794  -1.482  -1.550  0.00  0.00    -0.276 OA
ATOM      6  N   UNL     1       0.920  -2.122  -0.107  0.00  0.00    -0.313 N 
ATOM     16  C   UNL     1      -0.403  -1.925  -0.477  0.00  0.00    +0.216 C 
ATOM     22  H   UNL     1       1.120  -2.497   0.815  0.00  0.00    +0.149 HD
BRANCH  16   8
ATOM      8  C   UNL     1      -1.399  -2.309   0.567  0.00  0.00    +0.075 C 
ATOM     10  C   UNL     1      -2.481  -3.290   0.219  0.00  0.00    +0.013 C 
ATOM     11  C   UNL     1      -1.364  -3.698   1.135  0.00  0.00    +0.013 C 
ENDBRANCH  16   8
ENDBRANCH  15   6
ENDBRANCH   9  15
BRANCH  14  17
ATOM     17  C   UNL     1       0.218   1.497   0.806  0.00  0.00    +0.130 C 
BRANCH  17  18
ATOM      5  O   UNL     1      -0.973   2.913  -0.754  0.00  0.00    -0.276 OA
ATOM      7  N   UNL     1      -2.171   1.411   0.548  0.00  0.00    -0.313 N 
ATOM     18  C   UNL     1      -1.014   2.034   0.102  0.00  0.00    +0.216 C 
ATOM     25  H   UNL     1      -2.103   0.673   1.242  0.00  0.00    +0.149 HD
BRANCH   7  19
ATOM     19  C   UNL     1      -3.470   1.741   0.037  0.00  0.00    +0.067 C 
ATOM     20  C   UNL     1      -4.526   1.559   1.120  0.00  0.00    +0.027 C 
ATOM     21  C   UNL     1      -3.791   0.900  -1.193  0.00  0.00    +0.027 C 
ENDBRANCH   7  19
ENDBRANCH  17  18
ENDBRANCH  14  17
TORSDOF 8
