REMARK  Name = 51137885
REMARK  4 active torsions:
REMARK  status: ('A' for Active; 'I' for Inactive)
REMARK    1  A    between atoms: N_3  and  C_11
REMARK    2  A    between atoms: N_4  and  C_15
REMARK    3  A    between atoms: C_6  and  C_10
REMARK    4  A    between atoms: C_11  and  C_13
REMARK                            x       y       z     vdW  Elec       q    Type
REMARK                         _______ _______ _______ _____ _____    ______ ____
ROOT
ATOM      3  N   UNL     1      -1.165  -0.359  -0.058  0.00  0.00    -0.297 NA
ATOM      6  C   UNL     1       1.031  -0.562   0.739  0.00  0.00    +0.070 C 
ATOM      7  C   UNL     1       0.266   0.463   1.594  0.00  0.00    +0.028 C 
ATOM      8  C   UNL     1       0.172  -0.735  -0.521  0.00  0.00    +0.096 C 
ATOM      9  C   UNL     1      -0.958   0.832   0.766  0.00  0.00    +0.085 C 
ENDROOT
BRANCH   6  10
ATOM      4  N   UNL     1       3.435  -1.131   0.238  0.00  0.00    -0.330 N 
ATOM      5  N   UNL     1       2.931   1.033   0.311  0.00  0.00    -0.232 NA
ATOM     10  C   UNL     1       2.462  -0.189   0.429  0.00  0.00    +0.115 A 
ATOM     12  C   UNL     1       4.610  -0.473  -0.021  0.00  0.00    +0.069 A 
ATOM     14  C   UNL     1       4.269   0.876   0.030  0.00  0.00    +0.089 A 
ATOM     15  C   UNL     1       3.261  -2.565   0.297  0.00  0.00    +0.150 C 
ATOM     16  C   UNL     1       5.901  -0.928  -0.288  0.00  0.00    +0.028 A 
ATOM     17  C   UNL     1       5.264   1.843  -0.196  0.00  0.00    +0.030 A 
ATOM     20  C   UNL     1       6.879   0.048  -0.510  0.00  0.00    +0.002 A 
ATOM     21  C   UNL     1       6.568   1.409  -0.466  0.00  0.00    +0.002 A 
ENDBRANCH   6  10
BRANCH   3  11
ATOM     11  C   UNL     1      -2.087  -0.118  -1.159  0.00  0.00    +0.119 C 
BRANCH  11  13
ATOM      1  F   UNL     1      -6.261   2.111   0.036  0.00  0.00    -0.202 F 
ATOM      2  F   UNL     1      -7.461  -0.296   0.527  0.00  0.00    -0.202 F 
ATOM     13  C   UNL     1      -3.523  -0.166  -0.708  0.00  0.00    -0.030 A 
ATOM     18  C   UNL     1      -4.241   1.018  -0.541  0.00  0.00    +0.046 A 
ATOM     19  C   UNL     1      -4.135  -1.394  -0.458  0.00  0.00    +0.008 A 
ATOM     22  C   UNL     1      -5.571   0.974  -0.124  0.00  0.00    +0.159 A 
ATOM     23  C   UNL     1      -5.465  -1.438  -0.041  0.00  0.00    +0.041 A 
ATOM     24  C   UNL     1      -6.184  -0.254   0.126  0.00  0.00    +0.158 A 
ENDBRANCH  11  13
ENDBRANCH   3  11
TORSDOF 3
