REMARK  Name = 40777064
REMARK  7 active torsions:
REMARK  status: ('A' for Active; 'I' for Inactive)
REMARK    1  A    between atoms: N_7  and  C_17
REMARK    2  A    between atoms: C_11  and  C_18
REMARK    3  A    between atoms: C_12  and  C_17
REMARK    4  A    between atoms: C_20  and  C_23
REMARK    5  A    between atoms: C_21  and  C_25
REMARK    6  A    between atoms: C_22  and  C_24
REMARK    7  A    between atoms: C_33  and  C_34
REMARK                            x       y       z     vdW  Elec       q    Type
REMARK                         _______ _______ _______ _____ _____    ______ ____
ROOT
ATOM      6  N   UNL     1       1.082  -3.208   0.488  0.00  0.00    -0.297 NA
ATOM     10  C   UNL     1       1.418  -2.068  -1.829  0.00  0.00    +0.002 C 
ATOM     11  C   UNL     1       2.667  -1.851  -0.931  0.00  0.00    +0.055 C 
ATOM     12  C   UNL     1      -0.099  -2.366   0.160  0.00  0.00    +0.074 C 
ATOM     13  C   UNL     1       0.168  -1.524  -1.106  0.00  0.00    +0.024 C 
ATOM     14  C   UNL     1       1.231  -3.594  -1.971  0.00  0.00    +0.019 C 
ATOM     15  C   UNL     1       2.313  -2.378   0.489  0.00  0.00    +0.094 C 
ATOM     16  C   UNL     1       1.217  -4.235  -0.572  0.00  0.00    +0.085 C 
ENDROOT
BRANCH  11  18
ATOM      8  N   UNL     1       2.700   0.489  -1.641  0.00  0.00    -0.237 NA
ATOM      9  N   UNL     1       4.371   2.043  -0.864  0.00  0.00    -0.232 NA
ATOM     18  C   UNL     1       3.292  -0.464  -0.892  0.00  0.00    +0.050 A 
ATOM     19  C   UNL     1       4.410  -0.244  -0.114  0.00  0.00    +0.052 A 
ATOM     20  C   UNL     1       4.911   1.041  -0.139  0.00  0.00    +0.081 A 
ATOM     21  C   UNL     1       3.283   1.702  -1.581  0.00  0.00    +0.127 A 
ATOM     25  C   UNL     1       2.656   2.783  -2.395  0.00  0.00    +0.088 C 
BRANCH  20  23
ATOM      1  S   UNL     1       7.092   2.653   0.035  0.00  0.00    -0.095 S 
ATOM     23  C   UNL     1       6.074   1.409   0.624  0.00  0.00    +0.038 A 
ATOM     26  C   UNL     1       6.526   0.894   1.819  0.00  0.00    +0.017 A 
ATOM     29  C   UNL     1       7.724   1.529   2.256  0.00  0.00    +0.008 A 
ATOM     30  C   UNL     1       8.142   2.505   1.379  0.00  0.00    +0.046 A 
ENDBRANCH  20  23
ENDBRANCH  11  18
BRANCH  12  17
ATOM     17  C   UNL     1      -0.542  -1.498   1.340  0.00  0.00    +0.123 C 
BRANCH  17   7
ATOM      5  O   UNL     1      -3.229  -2.405   1.790  0.00  0.00    -0.270 OA
ATOM      7  N   UNL     1      -1.746  -0.791   1.029  0.00  0.00    -0.310 N 
ATOM     22  C   UNL     1      -3.015  -1.307   1.282  0.00  0.00    +0.244 C 
ATOM     35  H   UNL     1      -1.642   0.097   0.549  0.00  0.00    +0.149 HD
BRANCH  22  24
ATOM     24  C   UNL     1      -4.166  -0.459   0.876  0.00  0.00    +0.037 A 
ATOM     27  C   UNL     1      -5.389  -1.048   0.556  0.00  0.00    +0.013 A 
ATOM     28  C   UNL     1      -4.022   0.927   0.816  0.00  0.00    +0.013 A 
ATOM     31  C   UNL     1      -6.468  -0.252   0.174  0.00  0.00    +0.013 A 
ATOM     32  C   UNL     1      -5.102   1.724   0.434  0.00  0.00    +0.013 A 
ATOM     33  C   UNL     1      -6.324   1.135   0.113  0.00  0.00    +0.055 A 
BRANCH  33  34
ATOM      2  F   UNL     1      -8.597   1.255  -0.574  0.00  0.00    -0.166 F 
ATOM      3  F   UNL     1      -7.859   2.887   0.659  0.00  0.00    -0.166 F 
ATOM      4  F   UNL     1      -7.240   2.732  -1.414  0.00  0.00    -0.166 F 
ATOM     34  C   UNL     1      -7.479   1.986  -0.295  0.00  0.00    +0.417 C 
ENDBRANCH  33  34
ENDBRANCH  22  24
ENDBRANCH  17   7
ENDBRANCH  12  17
TORSDOF 6
