REMARK  Name = 45783698
REMARK  7 active torsions:
REMARK  status: ('A' for Active; 'I' for Inactive)
REMARK    1  A    between atoms: O_4  and  C_27
REMARK    2  A    between atoms: O_4  and  C_28
REMARK    3  A    between atoms: N_5  and  C_14
REMARK    4  A    between atoms: N_8  and  C_22
REMARK    5  A    between atoms: C_10  and  C_15
REMARK    6  A    between atoms: C_14  and  C_16
REMARK    7  A    between atoms: C_19  and  C_23
REMARK                            x       y       z     vdW  Elec       q    Type
REMARK                         _______ _______ _______ _____ _____    ______ ____
ROOT
ATOM      5  N   UNL     1      -3.631  -0.392  -0.685  0.00  0.00    -0.287 NA
ATOM     10  C   UNL     1      -3.309  -1.268   0.460  0.00  0.00    +0.146 C 
ATOM     11  C   UNL     1      -3.939  -2.626   0.102  0.00  0.00    +0.030 C 
ATOM     12  C   UNL     1      -4.644  -2.400  -1.228  0.00  0.00    +0.017 C 
ATOM     13  C   UNL     1      -4.876  -0.903  -1.259  0.00  0.00    +0.085 C 
ENDROOT
BRANCH  10  15
ATOM      1  O   UNL     1      -1.444  -1.629   1.997  0.00  0.00    -0.336 OA
ATOM      6  N   UNL     1      -0.822  -1.227  -0.117  0.00  0.00    -0.190 NA
ATOM      7  N   UNL     1      -0.043  -1.669   1.988  0.00  0.00    -0.056 NA
ATOM     15  C   UNL     1      -1.820  -1.364   0.718  0.00  0.00    +0.245 A 
ATOM     19  C   UNL     1       0.248  -1.423   0.708  0.00  0.00    +0.204 A 
BRANCH  19  23
ATOM      9  N   UNL     1       3.965  -1.526   0.672  0.00  0.00    -0.221 NA
ATOM     23  C   UNL     1       1.595  -1.367   0.219  0.00  0.00    +0.041 A 
ATOM     24  C   UNL     1       1.861  -1.110  -1.121  0.00  0.00    +0.018 A 
ATOM     25  C   UNL     1       2.673  -1.566   1.068  0.00  0.00    +0.126 A 
ATOM     26  C   UNL     1       3.178  -1.061  -1.566  0.00  0.00    +0.068 A 
ATOM     27  C   UNL     1       4.184  -1.274  -0.637  0.00  0.00    +0.214 A 
BRANCH  27   4
ATOM      4  O   UNL     1       5.490  -1.230  -1.051  0.00  0.00    -0.480 OA
ATOM     28  C   UNL     1       6.484  -1.455  -0.058  0.00  0.00    +0.279 C 
ENDBRANCH  27   4
ENDBRANCH  19  23
ENDBRANCH  10  15
BRANCH   5  14
ATOM     14  C   UNL     1      -3.732   1.016  -0.321  0.00  0.00    +0.120 C 
BRANCH  14  16
ATOM     16  C   UNL     1      -2.378   1.661  -0.194  0.00  0.00    -0.033 A 
ATOM     17  C   UNL     1      -1.995   2.249   1.011  0.00  0.00    +0.007 A 
ATOM     18  C   UNL     1      -1.506   1.670  -1.283  0.00  0.00    +0.007 A 
ATOM     20  C   UNL     1      -0.740   2.847   1.128  0.00  0.00    +0.033 A 
ATOM     21  C   UNL     1      -0.251   2.268  -1.166  0.00  0.00    +0.033 A 
ATOM     22  C   UNL     1       0.132   2.857   0.039  0.00  0.00    +0.126 A 
BRANCH  22   8
ATOM      2  O   UNL     1       1.733   3.990   1.251  0.00  0.00    -0.126 OA
ATOM      3  O   UNL     1       2.178   3.464  -0.833  0.00  0.00    -0.126 OA
ATOM      8  N   UNL     1       1.409   3.466   0.158  0.00  0.00    +0.056 N 
ENDBRANCH  22   8
ENDBRANCH  14  16
ENDBRANCH   5  14
TORSDOF 6
