REMARK  Name = 26743320
REMARK  9 active torsions:
REMARK  status: ('A' for Active; 'I' for Inactive)
REMARK    1  A    between atoms: C_6  and  C_10
REMARK    2  A    between atoms: C_7  and  C_12
REMARK    3  A    between atoms: C_10  and  C_13
REMARK    4  A    between atoms: C_12  and  C_14
REMARK    5  A    between atoms: C_21  and  C_24
REMARK    6  A    between atoms: C_25  and  C_28
REMARK    7  A    between atoms: C_25  and  C_33
REMARK    8  A    between atoms: C_25  and  C_34
REMARK    9  A    between atoms: C_25  and  C_35
REMARK                            x       y       z     vdW  Elec       q    Type
REMARK                         _______ _______ _______ _____ _____    ______ ____
ROOT
ATOM      3  N   UNL     1       0.588   2.024   2.812  0.00  0.00    -0.316 NA
ATOM      6  C   UNL     1       1.931   2.091   0.185  0.00  0.00    +0.004 C 
ATOM      7  C   UNL     1       0.460   1.646   0.361  0.00  0.00    +0.012 C 
ATOM      8  C   UNL     1       2.319   3.013   1.354  0.00  0.00    +0.019 C 
ATOM      9  C   UNL     1       0.202   1.076   1.766  0.00  0.00    +0.085 C 
ATOM     11  C   UNL     1       1.998   2.397   2.715  0.00  0.00    +0.081 C 
ATOM     36  H   UNL     1       0.411   1.609   3.726  0.00  0.00    +0.122 HD
ENDROOT
BRANCH   6  10
ATOM     10  C   UNL     1       2.923   0.929   0.054  0.00  0.00    +0.100 C 
BRANCH  10  13
ATOM      1  O   UNL     1       4.282   2.587  -0.962  0.00  0.00    -0.276 OA
ATOM      4  N   UNL     1       5.205   0.460  -0.764  0.00  0.00    -0.297 N 
ATOM     13  C   UNL     1       4.192   1.409  -0.606  0.00  0.00    +0.216 C 
ATOM     15  C   UNL     1       6.399   0.801  -1.537  0.00  0.00    +0.113 C 
ATOM     16  C   UNL     1       5.092  -0.942  -0.336  0.00  0.00    +0.143 C 
ATOM     17  C   UNL     1       7.660   0.459  -0.755  0.00  0.00    +0.054 C 
ATOM     18  C   UNL     1       6.411  -1.626  -0.070  0.00  0.00    -0.027 A 
ATOM     20  C   UNL     1       7.636  -0.970  -0.281  0.00  0.00    -0.041 A 
ATOM     22  C   UNL     1       6.412  -2.950   0.391  0.00  0.00    +0.005 A 
ATOM     23  C   UNL     1       8.838  -1.635  -0.001  0.00  0.00    +0.004 A 
ATOM     26  C   UNL     1       7.613  -3.609   0.654  0.00  0.00    +0.000 A 
ATOM     27  C   UNL     1       8.825  -2.950   0.461  0.00  0.00    +0.000 A 
ENDBRANCH  10  13
ENDBRANCH   6  10
BRANCH   7  12
ATOM     12  C   UNL     1       0.000   0.658  -0.712  0.00  0.00    +0.064 C 
BRANCH  12  14
ATOM      2  O   UNL     1      -3.444   1.233  -1.590  0.00  0.00    -0.354 OA
ATOM      5  N   UNL     1      -2.084   1.492  -1.712  0.00  0.00    -0.083 NA
ATOM     14  C   UNL     1      -1.495   0.657  -0.851  0.00  0.00    +0.085 A 
ATOM     19  C   UNL     1      -2.423  -0.143  -0.164  0.00  0.00    +0.076 A 
ATOM     21  C   UNL     1      -3.633   0.258  -0.665  0.00  0.00    +0.167 A 
BRANCH  21  24
ATOM     24  C   UNL     1      -4.997  -0.118  -0.428  0.00  0.00    +0.020 A 
ATOM     28  C   UNL     1      -7.649  -0.849   0.032  0.00  0.00    -0.042 A 
ATOM     29  C   UNL     1      -5.294  -1.112   0.504  0.00  0.00    +0.012 A 
ATOM     30  C   UNL     1      -6.025   0.510  -1.131  0.00  0.00    +0.012 A 
ATOM     31  C   UNL     1      -6.621  -1.478   0.735  0.00  0.00    +0.005 A 
ATOM     32  C   UNL     1      -7.351   0.144  -0.900  0.00  0.00    +0.005 A 
BRANCH  28  25
ATOM     25  C   UNL     1      -9.067  -1.241   0.279  0.00  0.00    -0.013 C 
ATOM     33  C   UNL     1      -9.469  -1.004   1.767  0.00  0.00    +0.015 C 
ATOM     34  C   UNL     1      -9.300  -2.751  -0.037  0.00  0.00    +0.015 C 
ATOM     35  C   UNL     1     -10.133  -0.469  -0.568  0.00  0.00    +0.015 C 
ENDBRANCH  28  25
ENDBRANCH  21  24
ENDBRANCH  12  14
ENDBRANCH   7  12
TORSDOF 6
