REMARK  Name = 51138093
REMARK  11 active torsions:
REMARK  status: ('A' for Active; 'I' for Inactive)
REMARK    1  A    between atoms: N_3  and  C_20
REMARK    2  A    between atoms: N_4  and  C_25
REMARK    3  A    between atoms: N_5  and  C_29
REMARK    4  A    between atoms: C_7  and  C_13
REMARK    5  A    between atoms: C_9  and  C_18
REMARK    6  A    between atoms: C_13  and  C_15
REMARK    7  A    between atoms: C_15  and  C_22
REMARK    8  A    between atoms: C_15  and  C_23
REMARK    9  A    between atoms: C_20  and  C_24
REMARK   10  A    between atoms: C_25  and  C_26
REMARK   11  A    between atoms: C_25  and  C_27
REMARK                            x       y       z     vdW  Elec       q    Type
REMARK                         _______ _______ _______ _____ _____    ______ ____
ROOT
ATOM      2  N   UNL     1      -2.207  -0.308  -0.544  0.00  0.00    -0.299 NA
ATOM      3  N   UNL     1       2.568   0.863   0.613  0.00  0.00    -0.339 N 
ATOM      7  C   UNL     1      -1.715  -1.416   0.286  0.00  0.00    +0.085 C 
ATOM      8  C   UNL     1      -0.220  -1.389   0.620  0.00  0.00    -0.021 A 
ATOM      9  C   UNL     1      -2.106   1.006   0.074  0.00  0.00    +0.145 C 
ATOM     10  C   UNL     1       0.629  -0.253   0.492  0.00  0.00    +0.008 A 
ATOM     11  C   UNL     1       0.423   1.108   0.073  0.00  0.00    -0.020 A 
ATOM     12  C   UNL     1      -0.848   1.745  -0.379  0.00  0.00    +0.065 C 
ATOM     14  C   UNL     1       1.980  -0.357   0.845  0.00  0.00    +0.050 A 
ATOM     16  C   UNL     1       1.641   1.752   0.155  0.00  0.00    +0.091 A 
ATOM     17  C   UNL     1       0.372  -2.553   1.174  0.00  0.00    +0.006 A 
ATOM     19  C   UNL     1       2.555  -1.527   1.345  0.00  0.00    +0.026 A 
ATOM     21  C   UNL     1       1.721  -2.624   1.516  0.00  0.00    +0.002 A 
ATOM     31  H   UNL     1      -1.766  -0.318  -1.463  0.00  0.00    +0.123 HD
ENDROOT
BRANCH   9  18
ATOM      1  O   UNL     1      -3.293   2.437  -1.422  0.00  0.00    -0.274 OA
ATOM      4  N   UNL     1      -4.394   1.601   0.451  0.00  0.00    -0.312 N 
ATOM     18  C   UNL     1      -3.313   1.757  -0.399  0.00  0.00    +0.231 C 
ATOM     32  H   UNL     1      -4.316   0.960   1.236  0.00  0.00    +0.149 HD
BRANCH   4  25
ATOM     25  C   UNL     1      -5.672   2.240   0.231  0.00  0.00    +0.067 C 
ATOM     26  C   UNL     1      -6.343   2.552   1.562  0.00  0.00    +0.027 C 
ATOM     27  C   UNL     1      -6.562   1.367  -0.645  0.00  0.00    +0.027 C 
ENDBRANCH   4  25
ENDBRANCH   9  18
BRANCH   7  13
ATOM     13  C   UNL     1      -2.127  -2.687  -0.478  0.00  0.00    +0.026 C 
BRANCH  13  15
ATOM     15  C   UNL     1      -3.615  -3.017  -0.331  0.00  0.00    -0.015 C 
ATOM     22  C   UNL     1      -3.918  -4.321  -1.074  0.00  0.00    +0.007 C 
ATOM     23  C   UNL     1      -4.521  -1.902  -0.855  0.00  0.00    +0.007 C 
ENDBRANCH  13  15
ENDBRANCH   7  13
BRANCH   3  20
ATOM     20  C   UNL     1       3.962   1.183   0.836  0.00  0.00    +0.196 C 
BRANCH  20  24
ATOM      5  N   UNL     1       6.232   0.670  -0.125  0.00  0.00    -0.336 N 
ATOM      6  N   UNL     1       4.492   0.223  -1.430  0.00  0.00    -0.239 NA
ATOM     24  C   UNL     1       4.872   0.685  -0.259  0.00  0.00    +0.129 A 
ATOM     28  C   UNL     1       6.753   0.166  -1.283  0.00  0.00    +0.106 A 
ATOM     29  C   UNL     1       6.995   1.102   1.022  0.00  0.00    +0.150 C 
ATOM     30  C   UNL     1       5.659  -0.103  -2.073  0.00  0.00    +0.130 A 
ENDBRANCH  20  24
ENDBRANCH   3  20
TORSDOF 6
