REMARK  Name = 45784203
REMARK  4 active torsions:
REMARK  status: ('A' for Active; 'I' for Inactive)
REMARK    1  A    between atoms: N_3  and  C_6
REMARK    2  A    between atoms: C_7  and  C_15
REMARK    3  A    between atoms: C_16  and  C_19
REMARK    4  A    between atoms: C_22  and  C_24
REMARK                            x       y       z     vdW  Elec       q    Type
REMARK                         _______ _______ _______ _____ _____    ______ ____
ROOT
ATOM      3  N   UNL     1       1.453   0.986  -0.190  0.00  0.00    -0.299 NA
ATOM      7  C   UNL     1      -0.816   1.187  -0.745  0.00  0.00    +0.090 C 
ATOM      8  C   UNL     1       0.301   0.155  -0.545  0.00  0.00    +0.097 C 
ATOM      9  C   UNL     1       0.928   1.977   0.750  0.00  0.00    +0.085 C 
ATOM     10  C   UNL     1      -0.384   2.398   0.101  0.00  0.00    +0.029 C 
ENDROOT
BRANCH   7  15
ATOM      1  O   UNL     1      -3.089   0.649  -1.440  0.00  0.00    -0.439 OA
ATOM      5  N   UNL     1      -2.626   0.162   0.724  0.00  0.00    -0.213 NA
ATOM     15  C   UNL     1      -2.188   0.642  -0.419  0.00  0.00    +0.201 A 
ATOM     17  C   UNL     1      -3.926  -0.182   0.445  0.00  0.00    +0.110 A 
ATOM     18  C   UNL     1      -4.214   0.115  -0.879  0.00  0.00    +0.155 A 
ATOM     20  C   UNL     1      -4.929  -0.746   1.246  0.00  0.00    +0.035 A 
ATOM     21  C   UNL     1      -5.441  -0.105  -1.492  0.00  0.00    +0.049 A 
ATOM     22  C   UNL     1      -6.182  -0.984   0.663  0.00  0.00    -0.048 A 
ATOM     23  C   UNL     1      -6.431  -0.669  -0.679  0.00  0.00    +0.007 A 
ATOM     24  C   UNL     1      -7.271  -1.585   1.490  0.00  0.00    +0.044 C 
ENDBRANCH   7  15
BRANCH   3   6
ATOM      2  O   UNL     1       7.512   0.029   0.240  0.00  0.00    -0.276 OA
ATOM      4  N   UNL     1       5.303  -0.687   0.305  0.00  0.00    -0.302 N 
ATOM      6  C   UNL     1       2.550   0.206   0.379  0.00  0.00    +0.060 C 
ATOM     11  C   UNL     1       3.026  -0.847  -0.631  0.00  0.00    +0.038 C 
ATOM     12  C   UNL     1       3.707   1.133   0.773  0.00  0.00    +0.038 C 
ATOM     13  C   UNL     1       4.235  -1.613  -0.094  0.00  0.00    +0.109 C 
ATOM     14  C   UNL     1       4.901   0.328   1.282  0.00  0.00    +0.109 C 
ATOM     16  C   UNL     1       6.624  -0.739  -0.138  0.00  0.00    +0.212 C 
ATOM     19  C   UNL     1       6.957  -1.810  -1.145  0.00  0.00    +0.109 C 
ENDBRANCH   3   6
TORSDOF 2
