REMARK  Name = 45783795
REMARK  7 active torsions:
REMARK  status: ('A' for Active; 'I' for Inactive)
REMARK    1  A    between atoms: N_3  and  C_9
REMARK    2  A    between atoms: N_8  and  C_26
REMARK    3  A    between atoms: N_8  and  C_27
REMARK    4  A    between atoms: N_8  and  C_28
REMARK    5  A    between atoms: C_10  and  C_18
REMARK    6  A    between atoms: C_19  and  C_20
REMARK    7  A    between atoms: C_21  and  C_22
REMARK                            x       y       z     vdW  Elec       q    Type
REMARK                         _______ _______ _______ _____ _____    ______ ____
ROOT
ATOM      3  N   UNL     1       2.717   1.551  -0.685  0.00  0.00    -0.288 NA
ATOM     10  C   UNL     1       2.062   2.482   0.256  0.00  0.00    +0.146 C 
ATOM     11  C   UNL     1       3.689   2.342  -1.440  0.00  0.00    +0.085 C 
ATOM     12  C   UNL     1       2.139   3.855  -0.435  0.00  0.00    +0.030 C 
ATOM     15  C   UNL     1       2.908   3.608  -1.726  0.00  0.00    +0.017 C 
ENDROOT
BRANCH   3   9
ATOM      2  O   UNL     1       3.848  -4.493  -0.674  0.00  0.00    -0.276 OA
ATOM      4  N   UNL     1       3.534  -2.453   0.393  0.00  0.00    -0.302 N 
ATOM      9  C   UNL     1       3.337   0.405  -0.023  0.00  0.00    +0.060 C 
ATOM     13  C   UNL     1       3.985  -0.516  -1.064  0.00  0.00    +0.038 C 
ATOM     14  C   UNL     1       2.288  -0.362   0.793  0.00  0.00    +0.038 C 
ATOM     16  C   UNL     1       4.556  -1.770  -0.403  0.00  0.00    +0.109 C 
ATOM     17  C   UNL     1       2.892  -1.620   1.417  0.00  0.00    +0.109 C 
ATOM     19  C   UNL     1       3.269  -3.804   0.170  0.00  0.00    +0.212 C 
ATOM     20  C   UNL     1       2.201  -4.434   1.028  0.00  0.00    +0.109 C 
ENDBRANCH   3   9
BRANCH  10  18
ATOM      1  O   UNL     1       0.163   2.465   1.795  0.00  0.00    -0.336 OA
ATOM      5  N   UNL     1      -0.211   1.384  -0.131  0.00  0.00    -0.190 NA
ATOM      6  N   UNL     1      -1.147   1.976   1.871  0.00  0.00    -0.056 NA
ATOM     18  C   UNL     1       0.642   2.072   0.585  0.00  0.00    +0.245 A 
ATOM     21  C   UNL     1      -1.294   1.351   0.699  0.00  0.00    +0.204 A 
BRANCH  21  22
ATOM      7  N   UNL     1      -4.772   0.050   0.890  0.00  0.00    -0.240 NA
ATOM     22  C   UNL     1      -2.509   0.685   0.326  0.00  0.00    +0.041 A 
ATOM     23  C   UNL     1      -2.627   0.045  -0.902  0.00  0.00    +0.016 A 
ATOM     24  C   UNL     1      -3.600   0.659   1.179  0.00  0.00    +0.124 A 
ATOM     25  C   UNL     1      -3.817  -0.593  -1.236  0.00  0.00    +0.044 A 
ATOM     26  C   UNL     1      -4.850  -0.562  -0.314  0.00  0.00    +0.121 A 
BRANCH  26   8
ATOM      8  N   UNL     1      -6.056  -1.215  -0.668  0.00  0.00    -0.321 N 
ATOM     27  C   UNL     1      -7.174  -1.228   0.250  0.00  0.00    +0.130 C 
ATOM     28  C   UNL     1      -6.176  -1.878  -1.948  0.00  0.00    +0.130 C 
ENDBRANCH  26   8
ENDBRANCH  21  22
ENDBRANCH  10  18
TORSDOF 4
