REMARK  Name = 56774163
REMARK  11 active torsions:
REMARK  status: ('A' for Active; 'I' for Inactive)
REMARK    1  A    between atoms: O_2  and  C_18
REMARK    2  A    between atoms: O_2  and  C_19
REMARK    3  A    between atoms: N_3  and  C_7
REMARK    4  A    between atoms: N_3  and  C_12
REMARK    5  A    between atoms: C_5  and  C_10
REMARK    6  A    between atoms: C_5  and  C_11
REMARK    7  A    between atoms: C_6  and  C_9
REMARK    8  A    between atoms: C_9  and  C_13
REMARK    9  A    between atoms: C_12  and  C_14
REMARK   10  A    between atoms: C_12  and  C_15
REMARK   11  A    between atoms: C_17  and  C_18
REMARK                            x       y       z     vdW  Elec       q    Type
REMARK                         _______ _______ _______ _____ _____    ______ ____
ROOT
ATOM      1  O   UNL     1       1.549   1.665   1.079  0.00  0.00    -0.356 OA
ATOM      4  N   UNL     1       0.303   2.225   0.822  0.00  0.00    -0.083 NA
ATOM     13  C   UNL     1      -0.281   1.387  -0.039  0.00  0.00    +0.084 A 
ATOM     16  C   UNL     1       0.539   0.292  -0.358  0.00  0.00    +0.074 A 
ATOM     17  C   UNL     1       1.678   0.514   0.371  0.00  0.00    +0.175 A 
ENDROOT
BRANCH  13   9
ATOM      9  C   UNL     1      -1.673   1.681  -0.547  0.00  0.00    +0.063 C 
BRANCH   9   6
ATOM      5  C   UNL     1      -4.160   1.009  -0.154  0.00  0.00    -0.016 C 
ATOM      6  C   UNL     1      -2.706   1.053   0.361  0.00  0.00    +0.004 C 
ATOM      7  C   UNL     1      -4.264  -0.391   0.487  0.00  0.00    +0.060 C 
ATOM      8  C   UNL     1      -2.732  -0.490   0.335  0.00  0.00    +0.023 C 
ATOM     10  C   UNL     1      -5.114   2.003   0.486  0.00  0.00    +0.013 C 
ATOM     11  C   UNL     1      -4.280   1.102  -1.660  0.00  0.00    +0.013 C 
BRANCH   7   3
ATOM      3  N   UNL     1      -4.895  -1.347  -0.426  0.00  0.00    -0.311 NA
ATOM     25  H   UNL     1      -4.407  -2.240  -0.503  0.00  0.00    +0.122 HD
BRANCH   3  12
ATOM     12  C   UNL     1      -6.272  -1.586   0.004  0.00  0.00    +0.048 C 
ATOM     14  C   UNL     1      -6.299  -2.563   1.176  0.00  0.00    +0.023 C 
ATOM     15  C   UNL     1      -7.086  -2.117  -1.171  0.00  0.00    +0.023 C 
ENDBRANCH   3  12
ENDBRANCH   7   3
ENDBRANCH   9   6
ENDBRANCH  13   9
BRANCH  17  18
ATOM     18  C   UNL     1       2.943  -0.212   0.526  0.00  0.00    +0.306 C 
BRANCH  18   2
ATOM      2  O   UNL     1       3.987   0.450  -0.194  0.00  0.00    -0.484 OA
BRANCH   2  19
ATOM     19  C   UNL     1       5.211  -0.158  -0.188  0.00  0.00    +0.121 A 
ATOM     20  C   UNL     1       5.389  -1.361   0.496  0.00  0.00    +0.045 A 
ATOM     21  C   UNL     1       6.282   0.423  -0.867  0.00  0.00    +0.045 A 
ATOM     22  C   UNL     1       6.639  -1.982   0.501  0.00  0.00    +0.004 A 
ATOM     23  C   UNL     1       7.531  -0.197  -0.862  0.00  0.00    +0.004 A 
ATOM     24  C   UNL     1       7.710  -1.400  -0.177  0.00  0.00    +0.000 A 
ENDBRANCH   2  19
ENDBRANCH  18   2
ENDBRANCH  17  18
TORSDOF 7
