REMARK  Name = 75367744
REMARK  6 active torsions:
REMARK  status: ('A' for Active; 'I' for Inactive)
REMARK    1  A    between atoms: O_2  and  C_8
REMARK    2  A    between atoms: O_2  and  C_14
REMARK    3  A    between atoms: O_5  and  C_22
REMARK    4  A    between atoms: O_5  and  C_24
REMARK    5  A    between atoms: C_13  and  C_15
REMARK    6  A    between atoms: C_19  and  C_23
REMARK                            x       y       z     vdW  Elec       q    Type
REMARK                         _______ _______ _______ _____ _____    ______ ____
ROOT
ATOM      1  O   UNL     1       4.189   1.827   0.237  0.00  0.00    -0.375 OA
ATOM      3  O   UNL     1       2.490  -2.648  -1.252  0.00  0.00    -0.268 OA
ATOM      6  N   UNL     1       2.607  -0.769   0.145  0.00  0.00    -0.290 N 
ATOM      8  C   UNL     1       1.702   1.523   0.303  0.00  0.00    +0.216 C 
ATOM      9  C   UNL     1       1.942   0.201   1.029  0.00  0.00    +0.155 C 
ATOM     10  C   UNL     1       4.035  -0.551  -0.104  0.00  0.00    +0.136 C 
ATOM     11  C   UNL     1       2.916   2.457   0.301  0.00  0.00    +0.206 C 
ATOM     12  C   UNL     1       4.314   0.804  -0.745  0.00  0.00    +0.179 C 
ATOM     13  C   UNL     1       1.964  -1.843  -0.486  0.00  0.00    +0.268 C 
ENDROOT
BRANCH  13  15
ATOM      4  O   UNL     1      -1.604  -1.843  -0.490  0.00  0.00    -0.359 OA
ATOM      7  N   UNL     1      -0.375  -1.450  -1.006  0.00  0.00    -0.073 NA
ATOM     15  C   UNL     1       0.533  -2.042  -0.226  0.00  0.00    +0.168 A 
ATOM     16  C   UNL     1      -0.057  -2.814   0.789  0.00  0.00    +0.080 A 
ATOM     19  C   UNL     1      -1.401  -2.656   0.579  0.00  0.00    +0.135 A 
ATOM     23  C   UNL     1      -2.602  -3.168   1.250  0.00  0.00    +0.089 C 
ENDBRANCH  13  15
BRANCH   8   2
ATOM      2  O   UNL     1       0.604   2.194   0.918  0.00  0.00    -0.485 OA
BRANCH   2  14
ATOM     14  C   UNL     1      -0.642   1.886   0.447  0.00  0.00    +0.121 A 
ATOM     17  C   UNL     1      -1.599   1.344   1.305  0.00  0.00    +0.049 A 
ATOM     18  C   UNL     1      -0.957   2.114  -0.893  0.00  0.00    +0.049 A 
ATOM     20  C   UNL     1      -2.869   1.030   0.824  0.00  0.00    +0.049 A 
ATOM     21  C   UNL     1      -2.228   1.799  -1.374  0.00  0.00    +0.049 A 
ATOM     22  C   UNL     1      -3.184   1.257  -0.515  0.00  0.00    +0.120 A 
BRANCH  22   5
ATOM      5  O   UNL     1      -4.424   0.951  -0.985  0.00  0.00    -0.495 OA
ATOM     24  C   UNL     1      -5.353   0.400  -0.052  0.00  0.00    +0.277 C 
ENDBRANCH  22   5
ENDBRANCH   2  14
ENDBRANCH   8   2
TORSDOF 4
