REMARK  Name = 40779157
REMARK  9 active torsions:
REMARK  status: ('A' for Active; 'I' for Inactive)
REMARK    1  A    between atoms: O_1  and  C_15
REMARK    2  A    between atoms: O_1  and  C_24
REMARK    3  A    between atoms: N_4  and  C_23
REMARK    4  A    between atoms: N_6  and  C_25
REMARK    5  A    between atoms: C_8  and  C_14
REMARK    6  A    between atoms: C_10  and  C_15
REMARK    7  A    between atoms: C_17  and  C_18
REMARK    8  A    between atoms: C_25  and  C_26
REMARK    9  A    between atoms: C_25  and  C_27
REMARK                            x       y       z     vdW  Elec       q    Type
REMARK                         _______ _______ _______ _____ _____    ______ ____
ROOT
ATOM      3  N   UNL     1       0.201   3.390   0.518  0.00  0.00    -0.296 NA
ATOM      7  C   UNL     1      -1.008   2.277  -1.503  0.00  0.00    +0.002 C 
ATOM      8  C   UNL     1      -1.842   2.098  -0.204  0.00  0.00    +0.055 C 
ATOM      9  C   UNL     1       0.401   1.686  -1.290  0.00  0.00    +0.026 C 
ATOM     10  C   UNL     1       1.146   2.511  -0.218  0.00  0.00    +0.095 C 
ATOM     11  C   UNL     1      -0.970   2.604   0.981  0.00  0.00    +0.094 C 
ATOM     12  C   UNL     1      -0.835   3.797  -1.714  0.00  0.00    +0.019 C 
ATOM     13  C   UNL     1      -0.282   4.428  -0.424  0.00  0.00    +0.085 C 
ENDROOT
BRANCH   8  14
ATOM      4  N   UNL     1      -3.624   0.567   0.758  0.00  0.00    -0.271 N 
ATOM      5  N   UNL     1      -3.996  -0.717   0.895  0.00  0.00    -0.176 NA
ATOM     14  C   UNL     1      -2.456   0.733   0.073  0.00  0.00    +0.044 A 
ATOM     16  C   UNL     1      -2.034  -0.531  -0.260  0.00  0.00    +0.048 A 
ATOM     18  C   UNL     1      -3.021  -1.383   0.271  0.00  0.00    +0.066 A 
ATOM     23  C   UNL     1      -4.454   1.606   1.322  0.00  0.00    +0.172 C 
BRANCH  18  17
ATOM     17  C   UNL     1      -3.069  -2.893   0.200  0.00  0.00    +0.040 C 
ATOM     19  C   UNL     1      -3.125  -3.414  -1.247  0.00  0.00    +0.010 C 
ATOM     20  C   UNL     1      -1.865  -3.603   0.853  0.00  0.00    +0.010 C 
ATOM     21  C   UNL     1      -2.311  -4.699  -1.227  0.00  0.00    +0.001 C 
ATOM     22  C   UNL     1      -1.179  -4.372  -0.270  0.00  0.00    +0.001 C 
ENDBRANCH  18  17
ENDBRANCH   8  14
BRANCH  10  15
ATOM     15  C   UNL     1       1.965   1.621   0.719  0.00  0.00    +0.252 C 
BRANCH  15   1
ATOM      1  O   UNL     1       2.907   0.905  -0.055  0.00  0.00    -0.449 OA
BRANCH   1  24
ATOM      2  O   UNL     1       3.699  -0.120   1.842  0.00  0.00    -0.226 OA
ATOM      6  N   UNL     1       4.600  -0.581  -0.246  0.00  0.00    -0.279 N 
ATOM     24  C   UNL     1       3.737   0.047   0.627  0.00  0.00    +0.401 C 
ATOM     28  H   UNL     1       4.493  -0.386  -1.237  0.00  0.00    +0.152 HD
BRANCH   6  25
ATOM     25  C   UNL     1       5.596  -1.543   0.164  0.00  0.00    +0.070 C 
ATOM     26  C   UNL     1       6.813  -1.466  -0.749  0.00  0.00    +0.027 C 
ATOM     27  C   UNL     1       5.008  -2.948   0.183  0.00  0.00    +0.027 C 
ENDBRANCH   6  25
ENDBRANCH   1  24
ENDBRANCH  15   1
ENDBRANCH  10  15
TORSDOF 6
