REMARK  Name = 7144133
REMARK  5 active torsions:
REMARK  status: ('A' for Active; 'I' for Inactive)
REMARK    1  A    between atoms: O_4  and  C_21
REMARK    2  A    between atoms: O_4  and  C_27
REMARK    3  A    between atoms: C_14  and  C_19
REMARK    4  A    between atoms: C_16  and  C_20
REMARK    5  A    between atoms: C_20  and  C_21
REMARK                            x       y       z     vdW  Elec       q    Type
REMARK                         _______ _______ _______ _____ _____    ______ ____
ROOT
ATOM      2  O   UNL     1      -2.076   2.817   2.251  0.00  0.00    -0.268 OA
ATOM      3  O   UNL     1      -3.719  -1.069  -0.902  0.00  0.00    -0.276 OA
ATOM      5  N   UNL     1      -1.698  -0.228  -1.682  0.00  0.00    -0.300 N 
ATOM      6  N   UNL     1      -0.830   1.953   0.466  0.00  0.00    -0.311 N 
ATOM      7  C   UNL     1      -1.590   2.244  -1.965  0.00  0.00    +0.027 C 
ATOM      8  C   UNL     1       0.463   0.988  -1.463  0.00  0.00    +0.054 C 
ATOM      9  C   UNL     1      -0.108   2.140  -2.289  0.00  0.00    +0.018 C 
ATOM     10  C   UNL     1      -2.319   0.936  -2.314  0.00  0.00    +0.113 C 
ATOM     11  C   UNL     1      -1.740   2.604  -0.486  0.00  0.00    +0.130 C 
ATOM     12  C   UNL     1      -0.243  -0.326  -1.858  0.00  0.00    +0.117 C 
ATOM     13  C   UNL     1       0.309   1.241   0.040  0.00  0.00    +0.034 A 
ATOM     14  C   UNL     1       1.204   0.785   0.955  0.00  0.00    +0.002 A 
ATOM     15  C   UNL     1      -1.106   2.191   1.824  0.00  0.00    +0.252 A 
ATOM     16  C   UNL     1      -2.497  -1.173  -1.038  0.00  0.00    +0.218 C 
ATOM     17  C   UNL     1       0.950   1.009   2.365  0.00  0.00    +0.015 A 
ATOM     18  C   UNL     1      -0.133   1.652   2.801  0.00  0.00    +0.071 A 
ENDROOT
BRANCH  14  19
ATOM      1 CL   UNL     1       6.135  -2.191  -0.665  0.00  0.00    -0.084 Cl
ATOM     19  C   UNL     1       2.423   0.049   0.554  0.00  0.00    -0.016 A 
ATOM     22  C   UNL     1       2.382  -1.335   0.422  0.00  0.00    +0.010 A 
ATOM     23  C   UNL     1       3.603   0.747   0.312  0.00  0.00    +0.010 A 
ATOM     24  C   UNL     1       3.532  -2.029   0.044  0.00  0.00    +0.020 A 
ATOM     25  C   UNL     1       4.752   0.053  -0.066  0.00  0.00    +0.020 A 
ATOM     26  C   UNL     1       4.717  -1.335  -0.199  0.00  0.00    +0.041 A 
ENDBRANCH  14  19
BRANCH  16  20
ATOM     20  C   UNL     1      -1.793  -2.381  -0.474  0.00  0.00    +0.124 C 
BRANCH  20  21
ATOM     21  C   UNL     1      -2.805  -3.294   0.185  0.00  0.00    +0.168 C 
BRANCH  21   4
ATOM      4  O   UNL     1      -3.433  -2.610   1.261  0.00  0.00    -0.382 OA
ATOM     27  C   UNL     1      -4.380  -3.436   1.922  0.00  0.00    +0.194 C 
ENDBRANCH  21   4
ENDBRANCH  20  21
ENDBRANCH  16  20
TORSDOF 4
