REMARK  Name = 11941651
REMARK  5 active torsions:
REMARK  status: ('A' for Active; 'I' for Inactive)
REMARK    1  A    between atoms: N_8  and  C_15
REMARK    2  A    between atoms: N_9  and  C_16
REMARK    3  A    between atoms: N_10  and  C_21
REMARK    4  A    between atoms: C_22  and  C_26
REMARK    5  A    between atoms: C_28  and  C_32
REMARK                            x       y       z     vdW  Elec       q    Type
REMARK                         _______ _______ _______ _____ _____    ______ ____
ROOT
ATOM      4  O   UNL     1      -1.411  -3.733  -0.199  0.00  0.00    -0.370 OA
ATOM      5  O   UNL     1      -1.788  -1.508   1.957  0.00  0.00    -0.370 OA
ATOM     13  C   UNL     1      -1.853  -1.508   0.520  0.00  0.00    +0.171 C 
ATOM     14  C   UNL     1      -0.782  -2.459   0.022  0.00  0.00    +0.171 C 
ATOM     15  C   UNL     1      -3.147  -2.131   0.054  0.00  0.00    +0.130 C 
ATOM     16  C   UNL     1       0.196  -2.547   1.172  0.00  0.00    +0.131 C 
ATOM     17  C   UNL     1      -2.819  -3.613   0.048  0.00  0.00    +0.185 C 
ATOM     18  C   UNL     1      -0.703  -2.348   2.379  0.00  0.00    +0.185 C 
ENDROOT
BRANCH  15   8
ATOM      8  N   UNL     1      -3.458  -1.682  -1.285  0.00  0.00    -0.306 N 
ATOM     11  N   UNL     1      -4.507   0.267  -0.506  0.00  0.00    -0.211 NA
ATOM     12  N   UNL     1      -4.354  -0.198  -2.866  0.00  0.00    -0.223 NA
ATOM     19  C   UNL     1      -4.127  -0.502  -1.560  0.00  0.00    +0.216 A 
ATOM     22  C   UNL     1      -5.156   1.410  -0.811  0.00  0.00    +0.111 A 
ATOM     23  C   UNL     1      -5.008   0.960  -3.098  0.00  0.00    +0.116 A 
ATOM     24  C   UNL     1      -5.436   1.812  -2.101  0.00  0.00    +0.051 A 
ATOM     35  H   UNL     1      -3.134  -2.222  -2.079  0.00  0.00    +0.149 HD
BRANCH  22  26
ATOM      7  O   UNL     1      -5.208   1.688   1.534  0.00  0.00    -0.461 OA
ATOM     26  C   UNL     1      -5.546   2.203   0.324  0.00  0.00    +0.153 A 
ATOM     31  C   UNL     1      -6.205   3.399   0.470  0.00  0.00    +0.051 A 
ATOM     33  C   UNL     1      -6.277   3.637   1.864  0.00  0.00    +0.042 A 
ATOM     34  C   UNL     1      -5.657   2.568   2.467  0.00  0.00    +0.196 A 
ENDBRANCH  22  26
ENDBRANCH  15   8
BRANCH  16   9
ATOM      6  O   UNL     1       2.797  -2.770  -0.008  0.00  0.00    -0.252 OA
ATOM      9  N   UNL     1       1.196  -1.511   1.087  0.00  0.00    -0.292 N 
ATOM     10  N   UNL     1       3.203  -0.528   0.557  0.00  0.00    -0.269 N 
ATOM     20  C   UNL     1       2.449  -1.702   0.491  0.00  0.00    +0.304 C 
ATOM     36  H   UNL     1       0.957  -0.581   1.417  0.00  0.00    +0.151 HD
ATOM     37  H   UNL     1       2.764   0.271   1.009  0.00  0.00    +0.156 HD
BRANCH  10  21
ATOM     21  C   UNL     1       4.513  -0.309   0.071  0.00  0.00    +0.035 A 
ATOM     25  C   UNL     1       5.099   0.935   0.235  0.00  0.00    +0.035 A 
ATOM     27  C   UNL     1       5.185  -1.346  -0.556  0.00  0.00    +0.023 A 
ATOM     28  C   UNL     1       6.392   1.150  -0.243  0.00  0.00    +0.057 A 
ATOM     29  C   UNL     1       6.478  -1.131  -1.034  0.00  0.00    +0.002 A 
ATOM     30  C   UNL     1       7.082   0.117  -0.878  0.00  0.00    +0.012 A 
BRANCH  28  32
ATOM      1  F   UNL     1       8.302   2.549  -0.589  0.00  0.00    -0.166 F 
ATOM      2  F   UNL     1       6.356   3.501  -0.678  0.00  0.00    -0.166 F 
ATOM      3  F   UNL     1       7.157   2.848   1.235  0.00  0.00    -0.166 F 
ATOM     32  C   UNL     1       7.038   2.484  -0.075  0.00  0.00    +0.417 C 
ENDBRANCH  28  32
ENDBRANCH  10  21
ENDBRANCH  16   9
TORSDOF 5
