REMARK  Name = 56774124
REMARK  8 active torsions:
REMARK  status: ('A' for Active; 'I' for Inactive)
REMARK    1  A    between atoms: O_2  and  C_21
REMARK    2  A    between atoms: N_3  and  C_6
REMARK    3  A    between atoms: N_3  and  C_12
REMARK    4  A    between atoms: C_5  and  C_10
REMARK    5  A    between atoms: C_5  and  C_11
REMARK    6  A    between atoms: C_7  and  C_9
REMARK    7  A    between atoms: C_9  and  C_15
REMARK    8  A    between atoms: C_20  and  C_21
REMARK                            x       y       z     vdW  Elec       q    Type
REMARK                         _______ _______ _______ _____ _____    ______ ____
ROOT
ATOM      5  C   UNL     1       0.565  -2.318  -0.117  0.00  0.00    -0.016 C 
ATOM      6  C   UNL     1       1.404  -1.142   0.425  0.00  0.00    +0.060 C 
ATOM      7  C   UNL     1      -0.685  -1.538   0.340  0.00  0.00    +0.004 C 
ATOM      8  C   UNL     1       0.161  -0.255   0.204  0.00  0.00    +0.023 C 
ATOM     10  C   UNL     1       0.721  -2.485  -1.620  0.00  0.00    +0.013 C 
ATOM     11  C   UNL     1       0.725  -3.663   0.559  0.00  0.00    +0.013 C 
ENDROOT
BRANCH   6   3
ATOM      3  N   UNL     1       2.445  -0.749  -0.529  0.00  0.00    -0.310 NA
ATOM     22  H   UNL     1       3.143  -1.470  -0.706  0.00  0.00    +0.122 HD
BRANCH   3  12
ATOM     12  C   UNL     1       3.099   0.469  -0.053  0.00  0.00    +0.054 C 
ATOM     13  C   UNL     1       3.662   1.255  -1.242  0.00  0.00    +0.019 C 
ATOM     14  C   UNL     1       4.204   0.110   0.946  0.00  0.00    +0.019 C 
ATOM     16  C   UNL     1       4.420   2.498  -0.777  0.00  0.00    +0.002 C 
ATOM     17  C   UNL     1       4.962   1.353   1.408  0.00  0.00    +0.002 C 
ATOM     18  C   UNL     1       5.515   2.146   0.227  0.00  0.00    +0.000 C 
ENDBRANCH   3  12
ENDBRANCH   6   3
BRANCH   7   9
ATOM      9  C   UNL     1      -1.898  -1.590  -0.561  0.00  0.00    +0.063 C 
BRANCH   9  15
ATOM      1  O   UNL     1      -4.605   0.274   0.928  0.00  0.00    -0.357 OA
ATOM      4  N   UNL     1      -3.853  -0.882   0.762  0.00  0.00    -0.083 NA
ATOM     15  C   UNL     1      -2.914  -0.559  -0.132  0.00  0.00    +0.084 A 
ATOM     19  C   UNL     1      -3.024   0.775  -0.562  0.00  0.00    +0.073 A 
ATOM     20  C   UNL     1      -4.101   1.254   0.134  0.00  0.00    +0.163 A 
BRANCH  20  21
ATOM     21  C   UNL     1      -4.782   2.554   0.186  0.00  0.00    +0.232 C 
BRANCH  21   2
ATOM      2  O   UNL     1      -6.021   2.493  -0.526  0.00  0.00    -0.387 OA
ATOM     23  H   UNL     1      -6.428   3.374  -0.460  0.00  0.00    +0.210 HD
ENDBRANCH  21   2
ENDBRANCH  20  21
ENDBRANCH   9  15
ENDBRANCH   7   9
TORSDOF 6
