REMARK  Name = 75536663
REMARK  10 active torsions:
REMARK  status: ('A' for Active; 'I' for Inactive)
REMARK    1  A    between atoms: S_1  and  N_8
REMARK    2  A    between atoms: S_1  and  C_19
REMARK    3  A    between atoms: O_3  and  C_11
REMARK    4  A    between atoms: N_7  and  C_10
REMARK    5  A    between atoms: N_7  and  C_15
REMARK    6  A    between atoms: N_8  and  C_14
REMARK    7  A    between atoms: N_9  and  C_22
REMARK    8  A    between atoms: C_12  and  C_14
REMARK    9  A    between atoms: C_15  and  C_16
REMARK   10  A    between atoms: C_23  and  C_24
REMARK                            x       y       z     vdW  Elec       q    Type
REMARK                         _______ _______ _______ _____ _____    ______ ____
ROOT
ATOM      7  N   UNL     1      -0.164   0.762   0.011  0.00  0.00    -0.305 NA
ATOM     25  H   UNL     1      -0.372   1.197   0.910  0.00  0.00    +0.123 HD
ENDROOT
BRANCH   7  10
ATOM      2  O   UNL     1       3.194   0.172  -1.257  0.00  0.00    -0.371 OA
ATOM     10  C   UNL     1       1.194   1.105  -0.380  0.00  0.00    +0.111 C 
ATOM     11  C   UNL     1       2.205   0.960   0.742  0.00  0.00    +0.164 C 
ATOM     12  C   UNL     1       3.506   0.880  -0.045  0.00  0.00    +0.164 C 
ATOM     13  C   UNL     1       1.766   0.161  -1.425  0.00  0.00    +0.181 C 
BRANCH  11   3
ATOM      3  O   UNL     1       2.195   2.060   1.632  0.00  0.00    -0.388 OA
ATOM     26  H   UNL     1       2.348   2.871   1.118  0.00  0.00    +0.210 HD
ENDBRANCH  11   3
BRANCH  12  14
ATOM     14  C   UNL     1       4.615   0.158   0.699  0.00  0.00    +0.139 C 
BRANCH  14   8
ATOM      8  N   UNL     1       5.833   0.127  -0.134  0.00  0.00    -0.192 NA
ATOM     27  H   UNL     1       6.247   1.056  -0.286  0.00  0.00    +0.148 HD
BRANCH   8   1
ATOM      1  S   UNL     1       6.930  -1.167   0.047  0.00  0.00    +0.027 S 
ATOM      4  O   UNL     1       8.176  -0.854  -0.625  0.00  0.00    -0.158 OA
ATOM      5  O   UNL     1       6.229  -2.406  -0.232  0.00  0.00    -0.158 OA
ATOM     19  C   UNL     1       7.223  -1.105   1.799  0.00  0.00    +0.214 C 
ENDBRANCH   8   1
ENDBRANCH  14   8
ENDBRANCH  12  14
ENDBRANCH   7  10
BRANCH   7  15
ATOM     15  C   UNL     1      -1.129   1.231  -0.976  0.00  0.00    +0.116 C 
BRANCH  15  16
ATOM     16  C   UNL     1      -2.540   0.870  -0.596  0.00  0.00    -0.033 A 
ATOM     17  C   UNL     1      -2.995  -0.438  -0.766  0.00  0.00    +0.007 A 
ATOM     18  C   UNL     1      -3.394   1.842  -0.074  0.00  0.00    +0.007 A 
ATOM     20  C   UNL     1      -4.302  -0.774  -0.415  0.00  0.00    +0.023 A 
ATOM     21  C   UNL     1      -4.701   1.506   0.278  0.00  0.00    +0.023 A 
ATOM     22  C   UNL     1      -5.155   0.198   0.107  0.00  0.00    +0.033 A 
BRANCH  22   9
ATOM      6  O   UNL     1      -6.609  -2.433  -0.054  0.00  0.00    -0.276 OA
ATOM      9  N   UNL     1      -6.463  -0.137   0.458  0.00  0.00    -0.286 N 
ATOM     23  C   UNL     1      -7.093  -1.385   0.360  0.00  0.00    +0.214 C 
ATOM     24  C   UNL     1      -8.520  -1.331   0.846  0.00  0.00    +0.109 C 
ATOM     28  H   UNL     1      -7.022   0.628   0.831  0.00  0.00    +0.155 HD
ENDBRANCH  22   9
ENDBRANCH  15  16
ENDBRANCH   7  15
TORSDOF 8
