REMARK  Name = 26743960
REMARK  6 active torsions:
REMARK  status: ('A' for Active; 'I' for Inactive)
REMARK    1  A    between atoms: O_1  and  C_10
REMARK    2  A    between atoms: N_3  and  C_12
REMARK    3  A    between atoms: C_8  and  C_13
REMARK    4  A    between atoms: C_12  and  C_14
REMARK    5  A    between atoms: C_17  and  C_20
REMARK    6  A    between atoms: C_18  and  C_24
REMARK                            x       y       z     vdW  Elec       q    Type
REMARK                         _______ _______ _______ _____ _____    ______ ____
ROOT
ATOM      3  N   UNL     1       2.812   0.344   0.362  0.00  0.00    -0.285 NA
ATOM      8  C   UNL     1       2.602  -0.837  -0.499  0.00  0.00    +0.149 C 
ATOM      9  C   UNL     1       3.407  -1.963   0.174  0.00  0.00    +0.061 C 
ATOM     10  C   UNL     1       4.070  -1.308   1.380  0.00  0.00    +0.130 C 
ATOM     11  C   UNL     1       4.111   0.162   1.007  0.00  0.00    +0.116 C 
ENDROOT
BRANCH   8  13
ATOM      2  O   UNL     1       0.795  -1.821  -1.817  0.00  0.00    -0.336 OA
ATOM      4  N   UNL     1       0.133  -0.956   0.140  0.00  0.00    -0.190 NA
ATOM      5  N   UNL     1      -0.588  -2.032  -1.746  0.00  0.00    -0.056 NA
ATOM     13  C   UNL     1       1.138  -1.183  -0.668  0.00  0.00    +0.245 A 
ATOM     17  C   UNL     1      -0.904  -1.495  -0.564  0.00  0.00    +0.204 A 
BRANCH  17  20
ATOM      6  N   UNL     1      -4.575  -2.052  -0.365  0.00  0.00    -0.263 NA
ATOM     20  C   UNL     1      -2.246  -1.481  -0.058  0.00  0.00    +0.041 A 
ATOM     22  C   UNL     1      -2.540  -0.915   1.178  0.00  0.00    +0.014 A 
ATOM     23  C   UNL     1      -3.290  -2.032  -0.784  0.00  0.00    +0.122 A 
ATOM     25  C   UNL     1      -3.851  -0.916   1.643  0.00  0.00    +0.020 A 
ATOM     26  C   UNL     1      -4.823  -1.492   0.841  0.00  0.00    +0.111 A 
ENDBRANCH  17  20
ENDBRANCH   8  13
BRANCH  10   1
ATOM      1  O   UNL     1       5.367  -1.834   1.587  0.00  0.00    -0.390 OA
ATOM     27  H   UNL     1       5.273  -2.789   1.745  0.00  0.00    +0.210 HD
ENDBRANCH  10   1
BRANCH   3  12
ATOM     12  C   UNL     1       2.732   1.606  -0.362  0.00  0.00    +0.120 C 
BRANCH  12  14
ATOM     14  C   UNL     1       1.306   2.023  -0.608  0.00  0.00    -0.032 A 
ATOM     15  C   UNL     1       0.439   2.213   0.468  0.00  0.00    +0.023 A 
ATOM     16  C   UNL     1       0.853   2.218  -1.912  0.00  0.00    +0.005 A 
ATOM     18  C   UNL     1      -0.882   2.599   0.239  0.00  0.00    +0.052 A 
ATOM     19  C   UNL     1      -0.468   2.603  -2.142  0.00  0.00    +0.002 A 
ATOM     21  C   UNL     1      -1.335   2.794  -1.066  0.00  0.00    +0.019 A 
BRANCH  18  24
ATOM      7  N   UNL     1      -2.492   2.957   2.234  0.00  0.00    -0.191 NA
ATOM     24  C   UNL     1      -1.770   2.797   1.340  0.00  0.00    +0.099 C 
ENDBRANCH  18  24
ENDBRANCH  12  14
ENDBRANCH   3  12
TORSDOF 6
