REMARK  Name = 11913295
REMARK  6 active torsions:
REMARK  status: ('A' for Active; 'I' for Inactive)
REMARK    1  A    between atoms: S_1  and  N_7
REMARK    2  A    between atoms: S_1  and  C_19
REMARK    3  A    between atoms: N_7  and  C_14
REMARK    4  A    between atoms: N_8  and  C_15
REMARK    5  A    between atoms: C_20  and  C_29
REMARK    6  A    between atoms: C_22  and  C_28
REMARK                            x       y       z     vdW  Elec       q    Type
REMARK                         _______ _______ _______ _____ _____    ______ ____
ROOT
ATOM      2  O   UNL     1       0.400   1.915  -1.201  0.00  0.00    -0.370 OA
ATOM      3  O   UNL     1      -1.146  -0.536  -2.372  0.00  0.00    -0.370 OA
ATOM     12  C   UNL     1      -1.055   0.037  -1.057  0.00  0.00    +0.170 C 
ATOM     13  C   UNL     1       0.372   0.516  -0.871  0.00  0.00    +0.171 C 
ATOM     14  C   UNL     1      -1.881   1.298  -0.979  0.00  0.00    +0.133 C 
ATOM     15  C   UNL     1       1.164  -0.277  -1.884  0.00  0.00    +0.130 C 
ATOM     16  C   UNL     1      -0.931   2.354  -1.510  0.00  0.00    +0.183 C 
ATOM     17  C   UNL     1       0.150  -0.511  -2.989  0.00  0.00    +0.185 C 
ENDROOT
BRANCH  15   8
ATOM      8  N   UNL     1       1.579  -1.538  -1.310  0.00  0.00    -0.306 N 
ATOM      9  N   UNL     1       3.493  -0.592  -0.337  0.00  0.00    -0.211 NA
ATOM     10  N   UNL     1       2.997  -2.935  -0.068  0.00  0.00    -0.223 NA
ATOM     18  C   UNL     1       2.724  -1.693  -0.549  0.00  0.00    +0.216 A 
ATOM     22  C   UNL     1       4.601  -0.779   0.410  0.00  0.00    +0.111 A 
ATOM     23  C   UNL     1       4.120  -3.050   0.671  0.00  0.00    +0.116 A 
ATOM     26  C   UNL     1       4.968  -1.997   0.946  0.00  0.00    +0.051 A 
ATOM     34  H   UNL     1       0.986  -2.354  -1.418  0.00  0.00    +0.149 HD
BRANCH  22  28
ATOM      6  O   UNL     1       4.916   1.531   0.033  0.00  0.00    -0.461 OA
ATOM     28  C   UNL     1       5.394   0.403   0.617  0.00  0.00    +0.153 A 
ATOM     30  C   UNL     1       6.563   0.661   1.291  0.00  0.00    +0.051 A 
ATOM     31  C   UNL     1       6.822   2.040   1.110  0.00  0.00    +0.042 A 
ATOM     32  C   UNL     1       5.792   2.525   0.338  0.00  0.00    +0.196 A 
ENDBRANCH  22  28
ENDBRANCH  15   8
BRANCH  14   7
ATOM      7  N   UNL     1      -2.210   1.591   0.437  0.00  0.00    -0.182 NA
ATOM     33  H   UNL     1      -1.481   1.425   1.141  0.00  0.00    +0.148 HD
BRANCH   7   1
ATOM      1  S   UNL     1      -3.829   1.805   0.901  0.00  0.00    +0.060 S 
ATOM      4  O   UNL     1      -4.439   2.827   0.071  0.00  0.00    -0.153 OA
ATOM      5  O   UNL     1      -3.892   1.906   2.346  0.00  0.00    -0.153 OA
BRANCH   1  19
ATOM     19  C   UNL     1      -4.543   0.249   0.462  0.00  0.00    +0.123 A 
ATOM     20  C   UNL     1      -4.236  -0.908   1.163  0.00  0.00    +0.078 A 
ATOM     21  C   UNL     1      -5.424   0.224  -0.610  0.00  0.00    +0.030 A 
ATOM     24  C   UNL     1      -4.822  -2.116   0.783  0.00  0.00    +0.021 A 
ATOM     25  C   UNL     1      -6.010  -0.983  -0.989  0.00  0.00    +0.002 A 
ATOM     27  C   UNL     1      -5.710  -2.154  -0.292  0.00  0.00    +0.001 A 
BRANCH  20  29
ATOM     11  N   UNL     1      -2.597  -0.906   3.169  0.00  0.00    -0.191 NA
ATOM     29  C   UNL     1      -3.330  -0.907   2.271  0.00  0.00    +0.101 C 
ENDBRANCH  20  29
ENDBRANCH   1  19
ENDBRANCH   7   1
ENDBRANCH  14   7
TORSDOF 6
