REMARK  Name = 25390146
REMARK  10 active torsions:
REMARK  status: ('A' for Active; 'I' for Inactive)
REMARK    1  A    between atoms: O_5  and  C_14
REMARK    2  A    between atoms: O_6  and  C_15
REMARK    3  A    between atoms: O_10  and  C_32
REMARK    4  A    between atoms: O_10  and  C_33
REMARK    5  A    between atoms: N_11  and  C_19
REMARK    6  A    between atoms: C_16  and  C_18
REMARK    7  A    between atoms: C_17  and  C_19
REMARK    8  A    between atoms: C_18  and  C_20
REMARK    9  A    between atoms: C_21  and  C_23
REMARK   10  A    between atoms: C_22  and  C_24
REMARK                            x       y       z     vdW  Elec       q    Type
REMARK                         _______ _______ _______ _____ _____    ______ ____
ROOT
ATOM      4  O   UNL     1       3.036  -1.072   1.230  0.00  0.00    -0.366 OA
ATOM     14  C   UNL     1       4.826  -1.939  -0.074  0.00  0.00    +0.175 C 
ATOM     15  C   UNL     1       5.249  -0.626   0.551  0.00  0.00    +0.176 C 
ATOM     16  C   UNL     1       3.309  -1.882   0.063  0.00  0.00    +0.159 C 
ATOM     17  C   UNL     1       4.271  -0.510   1.708  0.00  0.00    +0.167 C 
ENDROOT
BRANCH  14   5
ATOM      5  O   UNL     1       5.300  -3.035   0.707  0.00  0.00    -0.387 OA
ATOM     34  H   UNL     1       4.979  -3.852   0.288  0.00  0.00    +0.210 HD
ENDBRANCH  14   5
BRANCH  15   6
ATOM      6  O   UNL     1       6.591  -0.622   0.989  0.00  0.00    -0.387 OA
ATOM     35  H   UNL     1       7.150  -0.827   0.220  0.00  0.00    +0.210 HD
ENDBRANCH  15   6
BRANCH  16  18
ATOM     18  C   UNL     1       2.626  -1.225  -1.129  0.00  0.00    +0.133 C 
BRANCH  18  20
ATOM      7  O   UNL     1       0.755  -2.724  -1.572  0.00  0.00    -0.338 OA
ATOM     12  N   UNL     1       0.153  -0.706  -0.809  0.00  0.00    -0.191 NA
ATOM     13  N   UNL     1      -0.644  -2.736  -1.502  0.00  0.00    -0.056 NA
ATOM     20  C   UNL     1       1.143  -1.494  -1.147  0.00  0.00    +0.230 A 
ATOM     22  C   UNL     1      -0.923  -1.512  -1.044  0.00  0.00    +0.202 A 
BRANCH  22  24
ATOM     24  C   UNL     1      -2.265  -1.064  -0.810  0.00  0.00    +0.023 A 
ATOM     26  C   UNL     1      -3.336  -1.711  -1.427  0.00  0.00    +0.015 A 
ATOM     27  C   UNL     1      -2.500   0.021   0.035  0.00  0.00    +0.015 A 
ATOM     30  C   UNL     1      -4.640  -1.274  -1.200  0.00  0.00    +0.046 A 
ATOM     31  C   UNL     1      -3.805   0.458   0.263  0.00  0.00    +0.046 A 
ATOM     32  C   UNL     1      -4.875  -0.189  -0.355  0.00  0.00    +0.130 A 
BRANCH  32  10
ATOM     10  O   UNL     1      -6.148   0.238  -0.133  0.00  0.00    -0.406 OA
BRANCH  10  33
ATOM      1  F   UNL     1      -7.973  -0.006   1.173  0.00  0.00    -0.133 F 
ATOM      2  F   UNL     1      -6.064  -0.764   1.922  0.00  0.00    -0.133 F 
ATOM      3  F   UNL     1      -6.436   1.412   1.809  0.00  0.00    -0.133 F 
ATOM     33  C   UNL     1      -6.640   0.223   1.203  0.00  0.00    +0.575 C 
ENDBRANCH  10  33
ENDBRANCH  32  10
ENDBRANCH  22  24
ENDBRANCH  18  20
ENDBRANCH  16  18
BRANCH  17  19
ATOM     19  C   UNL     1       4.040   0.921   2.160  0.00  0.00    +0.138 C 
BRANCH  19  11
ATOM      8  O   UNL     1       1.269   1.330   1.530  0.00  0.00    -0.267 OA
ATOM     11  N   UNL     1       3.514   1.722   1.095  0.00  0.00    -0.306 N 
ATOM     21  C   UNL     1       2.149   1.865   0.861  0.00  0.00    +0.279 C 
ATOM     36  H   UNL     1       4.170   2.204   0.487  0.00  0.00    +0.149 HD
BRANCH  21  23
ATOM      9  O   UNL     1       2.762   3.269  -1.035  0.00  0.00    -0.458 OA
ATOM     23  C   UNL     1       1.766   2.710  -0.300  0.00  0.00    +0.189 A 
ATOM     25  C   UNL     1       0.536   3.058  -0.808  0.00  0.00    +0.054 A 
ATOM     28  C   UNL     1       0.793   3.884  -1.929  0.00  0.00    +0.042 A 
ATOM     29  C   UNL     1       2.162   3.981  -2.025  0.00  0.00    +0.196 A 
ENDBRANCH  21  23
ENDBRANCH  19  11
ENDBRANCH  17  19
TORSDOF 10
