REMARK  Name = 11911647
REMARK  9 active torsions:
REMARK  status: ('A' for Active; 'I' for Inactive)
REMARK    1  A    between atoms: O_3  and  C_13
REMARK    2  A    between atoms: O_3  and  C_17
REMARK    3  A    between atoms: N_5  and  C_12
REMARK    4  A    between atoms: N_8  and  C_21
REMARK    5  A    between atoms: N_9  and  C_31
REMARK    6  A    between atoms: N_9  and  C_34
REMARK    7  A    between atoms: N_9  and  C_35
REMARK    8  A    between atoms: C_18  and  C_22
REMARK    9  A    between atoms: C_32  and  C_33
REMARK                            x       y       z     vdW  Elec       q    Type
REMARK                         _______ _______ _______ _____ _____    ______ ____
ROOT
ATOM      1  O   UNL     1      -1.861   0.269   1.634  0.00  0.00    -0.368 OA
ATOM      2  O   UNL     1       0.253  -1.769   0.746  0.00  0.00    -0.368 OA
ATOM     10  C   UNL     1       0.047  -0.386   0.387  0.00  0.00    +0.173 C 
ATOM     11  C   UNL     1      -1.452  -0.168   0.328  0.00  0.00    +0.192 C 
ATOM     12  C   UNL     1       0.503   0.513   1.512  0.00  0.00    +0.130 C 
ATOM     13  C   UNL     1      -1.972  -1.550   0.012  0.00  0.00    +0.235 C 
ATOM     14  C   UNL     1      -0.698   0.503   2.442  0.00  0.00    +0.185 C 
ATOM     15  C   UNL     1      -1.018  -2.433   0.784  0.00  0.00    +0.207 C 
ENDROOT
BRANCH  12   5
ATOM      5  N   UNL     1       0.743   1.852   1.018  0.00  0.00    -0.306 N 
ATOM      6  N   UNL     1       2.935   1.335   0.360  0.00  0.00    -0.214 NA
ATOM      7  N   UNL     1       2.031   3.544   0.025  0.00  0.00    -0.223 NA
ATOM     16  C   UNL     1       1.939   2.256   0.450  0.00  0.00    +0.216 A 
ATOM     18  C   UNL     1       4.087   1.762  -0.198  0.00  0.00    +0.076 A 
ATOM     19  C   UNL     1       3.211   3.903  -0.523  0.00  0.00    +0.116 A 
ATOM     20  C   UNL     1       4.284   3.047  -0.662  0.00  0.00    +0.048 A 
ATOM     36  H   UNL     1      -0.010   2.531   1.032  0.00  0.00    +0.149 HD
BRANCH  18  22
ATOM     22  C   UNL     1       5.131   0.769  -0.285  0.00  0.00    +0.001 A 
ATOM     25  C   UNL     1       4.803  -0.581  -0.425  0.00  0.00    +0.012 A 
ATOM     26  C   UNL     1       6.472   1.155  -0.233  0.00  0.00    +0.012 A 
ATOM     29  C   UNL     1       5.812  -1.541  -0.511  0.00  0.00    +0.024 A 
ATOM     30  C   UNL     1       7.481   0.196  -0.319  0.00  0.00    +0.024 A 
ATOM     31  C   UNL     1       7.151  -1.152  -0.458  0.00  0.00    +0.029 A 
BRANCH  31   9
ATOM      9  N   UNL     1       8.171  -2.123  -0.545  0.00  0.00    -0.336 N 
ATOM     34  C   UNL     1       7.956  -3.349  -1.286  0.00  0.00    +0.129 C 
ATOM     35  C   UNL     1       9.442  -1.912   0.119  0.00  0.00    +0.129 C 
ENDBRANCH  31   9
ENDBRANCH  18  22
ENDBRANCH  12   5
BRANCH  13   3
ATOM      3  O   UNL     1      -3.312  -1.749   0.401  0.00  0.00    -0.442 OA
BRANCH   3  17
ATOM      4  O   UNL     1      -3.982  -0.124  -1.062  0.00  0.00    -0.226 OA
ATOM      8  N   UNL     1      -5.516  -1.282   0.275  0.00  0.00    -0.251 N 
ATOM     17  C   UNL     1      -4.264  -0.962  -0.215  0.00  0.00    +0.405 C 
ATOM     37  H   UNL     1      -5.547  -2.013   0.982  0.00  0.00    +0.158 HD
BRANCH   8  21
ATOM     21  C   UNL     1      -6.761  -0.718  -0.084  0.00  0.00    +0.036 A 
ATOM     23  C   UNL     1      -7.916  -1.179   0.527  0.00  0.00    +0.023 A 
ATOM     24  C   UNL     1      -6.803   0.284  -1.040  0.00  0.00    +0.023 A 
ATOM     27  C   UNL     1      -9.146  -0.623   0.173  0.00  0.00    +0.005 A 
ATOM     28  C   UNL     1      -8.032   0.841  -1.394  0.00  0.00    +0.005 A 
ATOM     32  C   UNL     1      -9.203   0.387  -0.787  0.00  0.00    -0.050 A 
ATOM     33  C   UNL     1     -10.517   0.982  -1.166  0.00  0.00    +0.044 C 
ENDBRANCH   8  21
ENDBRANCH   3  17
ENDBRANCH  13   3
TORSDOF 6
