REMARK  Name = 75536741
REMARK  9 active torsions:
REMARK  status: ('A' for Active; 'I' for Inactive)
REMARK    1  A    between atoms: O_3  and  C_9
REMARK    2  A    between atoms: N_5  and  C_8
REMARK    3  A    between atoms: N_5  and  C_13
REMARK    4  A    between atoms: N_6  and  C_12
REMARK    5  A    between atoms: N_7  and  C_16
REMARK    6  A    between atoms: C_10  and  C_12
REMARK    7  A    between atoms: C_13  and  C_14
REMARK    8  A    between atoms: C_16  and  C_18
REMARK    9  A    between atoms: C_16  and  C_19
REMARK                            x       y       z     vdW  Elec       q    Type
REMARK                         _______ _______ _______ _____ _____    ______ ____
ROOT
ATOM      2  O   UNL     1       0.572   1.119  -0.409  0.00  0.00    -0.371 OA
ATOM      8  C   UNL     1      -1.395  -0.001   0.312  0.00  0.00    +0.111 C 
ATOM      9  C   UNL     1      -0.420  -1.022  -0.243  0.00  0.00    +0.164 C 
ATOM     10  C   UNL     1       0.893  -0.257  -0.145  0.00  0.00    +0.165 C 
ATOM     11  C   UNL     1      -0.851   1.288  -0.282  0.00  0.00    +0.181 C 
ENDROOT
BRANCH   9   3
ATOM      3  O   UNL     1      -0.391  -2.217   0.514  0.00  0.00    -0.388 OA
ATOM     23  H   UNL     1      -0.182  -1.990   1.435  0.00  0.00    +0.210 HD
ENDBRANCH   9   3
BRANCH   8   5
ATOM      5  N   UNL     1      -2.778  -0.254  -0.057  0.00  0.00    -0.304 NA
ATOM     22  H   UNL     1      -2.981  -1.245   0.079  0.00  0.00    +0.123 HD
BRANCH   5  13
ATOM     13  C   UNL     1      -3.693   0.535   0.759  0.00  0.00    +0.124 C 
BRANCH  13  14
ATOM      1  S   UNL     1      -6.095   1.617  -0.131  0.00  0.00    -0.100 S 
ATOM     14  C   UNL     1      -5.130   0.298   0.380  0.00  0.00    +0.004 A 
ATOM     17  C   UNL     1      -5.832  -0.887   0.379  0.00  0.00    +0.012 A 
ATOM     20  C   UNL     1      -7.181  -0.709  -0.045  0.00  0.00    +0.008 A 
ATOM     21  C   UNL     1      -7.458   0.604  -0.353  0.00  0.00    +0.045 A 
ENDBRANCH  13  14
ENDBRANCH   5  13
ENDBRANCH   8   5
BRANCH  10  12
ATOM     12  C   UNL     1       1.943  -0.738  -1.132  0.00  0.00    +0.140 C 
BRANCH  12   6
ATOM      4  O   UNL     1       4.189  -1.339   0.577  0.00  0.00    -0.253 OA
ATOM      6  N   UNL     1       3.159   0.013  -1.007  0.00  0.00    -0.297 N 
ATOM      7  N   UNL     1       5.263   0.554  -0.227  0.00  0.00    -0.297 N 
ATOM     15  C   UNL     1       4.204  -0.348  -0.151  0.00  0.00    +0.300 C 
ATOM     24  H   UNL     1       3.259   0.859  -1.559  0.00  0.00    +0.150 HD
ATOM     25  H   UNL     1       5.213   1.300  -0.914  0.00  0.00    +0.150 HD
BRANCH   7  16
ATOM     16  C   UNL     1       6.468   0.413   0.555  0.00  0.00    +0.068 C 
ATOM     18  C   UNL     1       7.047   1.782   0.888  0.00  0.00    +0.027 C 
ATOM     19  C   UNL     1       7.485  -0.452  -0.180  0.00  0.00    +0.027 C 
ENDBRANCH   7  16
ENDBRANCH  12   6
ENDBRANCH  10  12
TORSDOF 7
