REMARK  Name = 11939952
REMARK  8 active torsions:
REMARK  status: ('A' for Active; 'I' for Inactive)
REMARK    1  A    between atoms: N_7  and  C_15
REMARK    2  A    between atoms: N_8  and  C_16
REMARK    3  A    between atoms: N_9  and  C_22
REMARK    4  A    between atoms: N_12  and  C_35
REMARK    5  A    between atoms: N_12  and  C_37
REMARK    6  A    between atoms: N_12  and  C_38
REMARK    7  A    between atoms: C_21  and  C_25
REMARK    8  A    between atoms: C_28  and  C_36
REMARK                            x       y       z     vdW  Elec       q    Type
REMARK                         _______ _______ _______ _____ _____    ______ ____
ROOT
ATOM      4  O   UNL     1      -0.005   4.224   0.892  0.00  0.00    -0.370 OA
ATOM      5  O   UNL     1       0.928   1.516   2.130  0.00  0.00    -0.370 OA
ATOM     13  C   UNL     1       0.841   2.003   0.780  0.00  0.00    +0.171 C 
ATOM     14  C   UNL     1      -0.407   2.859   0.690  0.00  0.00    +0.171 C 
ATOM     15  C   UNL     1       1.970   2.966   0.497  0.00  0.00    +0.130 C 
ATOM     16  C   UNL     1      -1.262   2.386   1.844  0.00  0.00    +0.131 C 
ATOM     17  C   UNL     1       1.423   4.282   1.017  0.00  0.00    +0.185 C 
ATOM     18  C   UNL     1      -0.221   1.961   2.865  0.00  0.00    +0.185 C 
ENDROOT
BRANCH  15   7
ATOM      7  N   UNL     1       2.204   3.049  -0.928  0.00  0.00    -0.306 N 
ATOM     10  N   UNL     1       3.595   1.189  -0.903  0.00  0.00    -0.214 NA
ATOM     11  N   UNL     1       3.128   2.374  -2.949  0.00  0.00    -0.223 NA
ATOM     19  C   UNL     1       3.011   2.165  -1.624  0.00  0.00    +0.216 A 
ATOM     21  C   UNL     1       4.373   0.346  -1.613  0.00  0.00    +0.076 A 
ATOM     23  C   UNL     1       3.921   1.494  -3.596  0.00  0.00    +0.116 A 
ATOM     24  C   UNL     1       4.575   0.451  -2.974  0.00  0.00    +0.048 A 
ATOM     39  H   UNL     1       1.721   3.754  -1.472  0.00  0.00    +0.149 HD
BRANCH  21  25
ATOM     25  C   UNL     1       5.000  -0.703  -0.845  0.00  0.00    +0.001 A 
ATOM     29  C   UNL     1       6.391  -0.802  -0.805  0.00  0.00    +0.012 A 
ATOM     30  C   UNL     1       4.215  -1.618  -0.143  0.00  0.00    +0.012 A 
ATOM     33  C   UNL     1       6.997  -1.817  -0.063  0.00  0.00    +0.024 A 
ATOM     34  C   UNL     1       4.821  -2.632   0.598  0.00  0.00    +0.024 A 
ATOM     35  C   UNL     1       6.212  -2.732   0.638  0.00  0.00    +0.029 A 
BRANCH  35  12
ATOM     12  N   UNL     1       6.825  -3.757   1.388  0.00  0.00    -0.336 N 
ATOM     37  C   UNL     1       6.019  -4.704   2.132  0.00  0.00    +0.129 C 
ATOM     38  C   UNL     1       8.269  -3.867   1.436  0.00  0.00    +0.129 C 
ENDBRANCH  35  12
ENDBRANCH  21  25
ENDBRANCH  15   7
BRANCH  16   8
ATOM      6  O   UNL     1      -3.976   2.519   0.940  0.00  0.00    -0.252 OA
ATOM      8  N   UNL     1      -2.097   1.276   1.455  0.00  0.00    -0.292 N 
ATOM      9  N   UNL     1      -3.976   0.182   0.714  0.00  0.00    -0.269 N 
ATOM     20  C   UNL     1      -3.420   1.427   1.022  0.00  0.00    +0.304 C 
ATOM     40  H   UNL     1      -1.686   0.347   1.431  0.00  0.00    +0.151 HD
ATOM     41  H   UNL     1      -3.377  -0.629   0.840  0.00  0.00    +0.156 HD
BRANCH   9  22
ATOM     22  C   UNL     1      -5.282  -0.092   0.246  0.00  0.00    +0.035 A 
ATOM     26  C   UNL     1      -5.669  -1.407  -0.011  0.00  0.00    +0.035 A 
ATOM     27  C   UNL     1      -6.183   0.953   0.041  0.00  0.00    +0.023 A 
ATOM     28  C   UNL     1      -6.957  -1.677  -0.474  0.00  0.00    +0.057 A 
ATOM     31  C   UNL     1      -7.471   0.682  -0.421  0.00  0.00    +0.002 A 
ATOM     32  C   UNL     1      -7.858  -0.632  -0.679  0.00  0.00    +0.012 A 
BRANCH  28  36
ATOM      1  F   UNL     1      -6.606  -3.701  -1.700  0.00  0.00    -0.166 F 
ATOM      2  F   UNL     1      -8.656  -3.198  -1.200  0.00  0.00    -0.166 F 
ATOM      3  F   UNL     1      -7.297  -3.880   0.354  0.00  0.00    -0.166 F 
ATOM     36  C   UNL     1      -7.371  -3.083  -0.751  0.00  0.00    +0.417 C 
ENDBRANCH  28  36
ENDBRANCH   9  22
ENDBRANCH  16   8
TORSDOF 6
