REMARK  Name = 45783401
REMARK  11 active torsions:
REMARK  status: ('A' for Active; 'I' for Inactive)
REMARK    1  A    between atoms: O_2  and  C_17
REMARK    2  A    between atoms: O_3  and  C_23
REMARK    3  A    between atoms: O_3  and  C_30
REMARK    4  A    between atoms: O_4  and  C_29
REMARK    5  A    between atoms: O_4  and  C_31
REMARK    6  A    between atoms: N_5  and  C_14
REMARK    7  A    between atoms: N_8  and  C_27
REMARK    8  A    between atoms: C_10  and  C_15
REMARK    9  A    between atoms: C_14  and  C_16
REMARK   10  A    between atoms: C_19  and  C_22
REMARK   11  A    between atoms: C_27  and  C_29
REMARK                            x       y       z     vdW  Elec       q    Type
REMARK                         _______ _______ _______ _____ _____    ______ ____
ROOT
ATOM      1  O   UNL     1      -0.787   0.187   2.581  0.00  0.00    -0.336 OA
ATOM      6  N   UNL     1       0.095  -1.135   1.003  0.00  0.00    -0.190 NA
ATOM      7  N   UNL     1       0.590   0.442   2.585  0.00  0.00    -0.056 NA
ATOM     15  C   UNL     1      -0.993  -0.753   1.622  0.00  0.00    +0.245 A 
ATOM     19  C   UNL     1       1.040  -0.374   1.628  0.00  0.00    +0.205 A 
ENDROOT
BRANCH  19  22
ATOM      8  N   UNL     1       1.883  -1.029  -1.005  0.00  0.00    -0.326 N 
ATOM      9  N   UNL     1       4.155  -0.857  -0.370  0.00  0.00    -0.240 NA
ATOM     22  C   UNL     1       2.428  -0.456   1.273  0.00  0.00    +0.062 A 
ATOM     24  C   UNL     1       2.856  -0.773  -0.006  0.00  0.00    +0.130 A 
ATOM     25  C   UNL     1       3.395  -0.208   2.241  0.00  0.00    +0.016 A 
ATOM     26  C   UNL     1       4.742  -0.284   1.905  0.00  0.00    +0.020 A 
ATOM     28  C   UNL     1       5.067  -0.610   0.598  0.00  0.00    +0.113 A 
ATOM     33  H   UNL     1       0.965  -0.626  -0.848  0.00  0.00    +0.148 HD
BRANCH   8  27
ATOM     27  C   UNL     1       2.228  -1.363  -2.347  0.00  0.00    +0.131 C 
BRANCH  27  29
ATOM     29  C   UNL     1       0.968  -1.542  -3.178  0.00  0.00    +0.178 C 
BRANCH  29   4
ATOM      4  O   UNL     1       0.197  -2.610  -2.645  0.00  0.00    -0.381 OA
ATOM     31  C   UNL     1      -0.992  -2.820  -3.395  0.00  0.00    +0.194 C 
ENDBRANCH  29   4
ENDBRANCH  27  29
ENDBRANCH   8  27
ENDBRANCH  19  22
BRANCH  15  10
ATOM      5  N   UNL     1      -2.890  -1.005   0.030  0.00  0.00    -0.287 NA
ATOM     10  C   UNL     1      -2.424  -1.206   1.417  0.00  0.00    +0.146 C 
ATOM     11  C   UNL     1      -2.614  -2.712   1.679  0.00  0.00    +0.030 C 
ATOM     12  C   UNL     1      -3.247  -3.260   0.408  0.00  0.00    +0.017 C 
ATOM     13  C   UNL     1      -3.890  -2.042  -0.224  0.00  0.00    +0.085 C 
BRANCH   5  14
ATOM     14  C   UNL     1      -3.414   0.333  -0.211  0.00  0.00    +0.124 C 
BRANCH  14  16
ATOM     16  C   UNL     1      -2.312   1.336  -0.425  0.00  0.00    +0.008 A 
ATOM     17  C   UNL     1      -2.192   2.452   0.404  0.00  0.00    +0.125 A 
ATOM     18  C   UNL     1      -1.403   1.141  -1.466  0.00  0.00    +0.012 A 
ATOM     20  C   UNL     1      -1.165   3.372   0.192  0.00  0.00    +0.091 A 
ATOM     21  C   UNL     1      -0.376   2.060  -1.677  0.00  0.00    +0.046 A 
ATOM     23  C   UNL     1      -0.257   3.176  -0.849  0.00  0.00    +0.124 A 
BRANCH  17   2
ATOM      2  O   UNL     1      -3.071   2.658   1.425  0.00  0.00    -0.506 OA
ATOM     32  H   UNL     1      -2.831   3.477   1.890  0.00  0.00    +0.292 HD
ENDBRANCH  17   2
BRANCH  23   3
ATOM      3  O   UNL     1       0.745   4.073  -1.055  0.00  0.00    -0.495 OA
ATOM     30  C   UNL     1       1.638   3.811  -2.136  0.00  0.00    +0.277 C 
ENDBRANCH  23   3
ENDBRANCH  14  16
ENDBRANCH   5  14
ENDBRANCH  15  10
TORSDOF 9
