REMARK  Name = 44715958
REMARK  7 active torsions:
REMARK  status: ('A' for Active; 'I' for Inactive)
REMARK    1  A    between atoms: N_5  and  C_15
REMARK    2  A    between atoms: C_9  and  C_16
REMARK    3  A    between atoms: C_10  and  C_15
REMARK    4  A    between atoms: C_22  and  C_23
REMARK    5  A    between atoms: C_23  and  C_24
REMARK    6  A    between atoms: C_23  and  C_25
REMARK    7  A    between atoms: C_23  and  C_26
REMARK                            x       y       z     vdW  Elec       q    Type
REMARK                         _______ _______ _______ _____ _____    ______ ____
ROOT
ATOM      3  N   UNL     1       0.600   2.805  -0.781  0.00  0.00    -0.297 NA
ATOM      8  C   UNL     1       1.480   1.274   1.130  0.00  0.00    +0.005 C 
ATOM      9  C   UNL     1       2.287   1.068  -0.166  0.00  0.00    +0.092 C 
ATOM     10  C   UNL     1      -0.526   2.034  -0.190  0.00  0.00    +0.078 C 
ATOM     11  C   UNL     1      -0.011   1.006   0.842  0.00  0.00    +0.025 C 
ATOM     12  C   UNL     1       1.614   2.761   1.506  0.00  0.00    +0.020 C 
ATOM     13  C   UNL     1       1.639   1.882  -1.300  0.00  0.00    +0.097 C 
ATOM     14  C   UNL     1       1.206   3.625   0.298  0.00  0.00    +0.085 C 
ENDROOT
BRANCH   9  16
ATOM      1  O   UNL     1       1.548  -0.896  -1.269  0.00  0.00    -0.275 OA
ATOM      2  O   UNL     1       5.970  -2.337   0.412  0.00  0.00    -0.377 OA
ATOM      4  N   UNL     1       3.478  -1.086   0.008  0.00  0.00    -0.297 N 
ATOM     16  C   UNL     1       2.396  -0.392  -0.529  0.00  0.00    +0.220 C 
ATOM     17  C   UNL     1       3.661  -2.505  -0.297  0.00  0.00    +0.136 C 
ATOM     18  C   UNL     1       4.429  -0.553   0.989  0.00  0.00    +0.136 C 
ATOM     20  C   UNL     1       5.116  -2.790  -0.641  0.00  0.00    +0.179 C 
ATOM     21  C   UNL     1       5.854  -0.923   0.595  0.00  0.00    +0.179 C 
ENDBRANCH   9  16
BRANCH  10  15
ATOM     15  C   UNL     1      -1.407   1.379  -1.255  0.00  0.00    +0.164 C 
BRANCH  15   5
ATOM      5  N   UNL     1      -2.637   0.761  -0.650  0.00  0.00    -0.250 N 
ATOM      6  N   UNL     1      -3.502   1.505   0.057  0.00  0.00    -0.065 NA
ATOM      7  N   UNL     1      -4.475   0.698   0.465  0.00  0.00    -0.134 NA
ATOM     19  C   UNL     1      -3.030  -0.540  -0.715  0.00  0.00    +0.134 A 
ATOM     22  C   UNL     1      -4.201  -0.558   0.001  0.00  0.00    +0.088 A 
BRANCH  22  23
ATOM     23  C   UNL     1      -5.094  -1.688   0.287  0.00  0.00    +0.008 C 
ATOM     24  C   UNL     1      -5.658  -2.339  -1.025  0.00  0.00    +0.017 C 
ATOM     25  C   UNL     1      -4.365  -2.829   1.079  0.00  0.00    +0.017 C 
ATOM     26  C   UNL     1      -6.372  -1.363   1.147  0.00  0.00    +0.017 C 
ENDBRANCH  22  23
ENDBRANCH  15   5
ENDBRANCH  10  15
TORSDOF 4
