REMARK  Name = 45784377
REMARK  14 active torsions:
REMARK  status: ('A' for Active; 'I' for Inactive)
REMARK    1  A    between atoms: O_1  and  C_11
REMARK    2  A    between atoms: O_4  and  C_24
REMARK    3  A    between atoms: O_4  and  C_27
REMARK    4  A    between atoms: O_5  and  C_34
REMARK    5  A    between atoms: O_5  and  C_38
REMARK    6  A    between atoms: N_6  and  C_15
REMARK    7  A    between atoms: N_7  and  C_25
REMARK    8  A    between atoms: C_8  and  C_18
REMARK    9  A    between atoms: C_10  and  C_20
REMARK   10  A    between atoms: C_14  and  C_19
REMARK   11  A    between atoms: C_19  and  C_21
REMARK   12  A    between atoms: C_19  and  C_22
REMARK   13  A    between atoms: C_23  and  C_24
REMARK   14  A    between atoms: C_25  and  C_26
REMARK                            x       y       z     vdW  Elec       q    Type
REMARK                         _______ _______ _______ _____ _____    ______ ____
ROOT
ATOM      8  C   UNL     1      -0.354   0.024   1.135  0.00  0.00    -0.027 C 
ATOM      9  C   UNL     1      -0.041   0.969  -0.073  0.00  0.00    +0.028 C 
ATOM     10  C   UNL     1       1.482   1.353  -0.101  0.00  0.00    +0.012 C 
ATOM     11  C   UNL     1      -1.034   2.165  -0.125  0.00  0.00    +0.122 C 
ATOM     12  C   UNL     1      -1.833  -0.426   1.067  0.00  0.00    +0.007 C 
ATOM     13  C   UNL     1       0.528  -1.242   1.027  0.00  0.00    +0.009 C 
ATOM     14  C   UNL     1      -2.512   1.713  -0.086  0.00  0.00    +0.029 C 
ATOM     15  C   UNL     1       2.361   0.071  -0.133  0.00  0.00    +0.076 C 
ATOM     16  C   UNL     1      -2.810   0.743   1.056  0.00  0.00    +0.007 C 
ATOM     17  C   UNL     1       2.016  -0.930   0.969  0.00  0.00    +0.023 C 
ATOM     18  C   UNL     1      -0.103   0.706   2.503  0.00  0.00    +0.011 C 
ATOM     20  C   UNL     1       1.867   2.260  -1.282  0.00  0.00    +0.010 C 
ENDROOT
BRANCH  15   6
ATOM      3  O   UNL     1       4.555  -1.381  -1.334  0.00  0.00    -0.272 OA
ATOM      6  N   UNL     1       3.771   0.386  -0.042  0.00  0.00    -0.309 N 
ATOM     23  C   UNL     1       4.750  -0.376  -0.657  0.00  0.00    +0.251 C 
ATOM     39  H   UNL     1       4.050   1.164   0.550  0.00  0.00    +0.149 HD
BRANCH  23  24
ATOM     24  C   UNL     1       6.134   0.181  -0.397  0.00  0.00    +0.324 C 
BRANCH  24   4
ATOM      4  O   UNL     1       7.115  -0.602  -1.043  0.00  0.00    -0.483 OA
BRANCH   4  27
ATOM     27  C   UNL     1       8.357  -0.661  -0.456  0.00  0.00    +0.121 A 
ATOM     30  C   UNL     1       8.829   0.420   0.289  0.00  0.00    +0.045 A 
ATOM     31  C   UNL     1       9.146  -1.802  -0.605  0.00  0.00    +0.045 A 
ATOM     35  C   UNL     1      10.089   0.360   0.884  0.00  0.00    +0.004 A 
ATOM     36  C   UNL     1      10.406  -1.861  -0.010  0.00  0.00    +0.004 A 
ATOM     37  C   UNL     1      10.877  -0.780   0.735  0.00  0.00    +0.000 A 
ENDBRANCH   4  27
ENDBRANCH  24   4
ENDBRANCH  23  24
ENDBRANCH  15   6
BRANCH  11   1
ATOM      1  O   UNL     1      -0.857   2.879  -1.349  0.00  0.00    -0.391 OA
ATOM     40  H   UNL     1      -1.027   2.266  -2.084  0.00  0.00    +0.210 HD
ENDBRANCH  11   1
BRANCH  14  19
ATOM     19  C   UNL     1      -3.471   2.908  -0.006  0.00  0.00    +0.077 C 
ATOM     21  C   UNL     1      -3.184   3.728   1.247  0.00  0.00    +0.017 C 
BRANCH  19  22
ATOM      2  O   UNL     1      -5.714   2.659   0.870  0.00  0.00    -0.276 OA
ATOM      7  N   UNL     1      -5.207   1.684  -1.172  0.00  0.00    -0.311 N 
ATOM     22  C   UNL     1      -4.915   2.418  -0.032  0.00  0.00    +0.216 C 
ATOM     41  H   UNL     1      -4.506   1.574  -1.898  0.00  0.00    +0.149 HD
BRANCH   7  25
ATOM     25  C   UNL     1      -6.511   1.113  -1.422  0.00  0.00    +0.139 C 
BRANCH  25  26
ATOM     26  C   UNL     1      -6.631  -0.276  -0.866  0.00  0.00    -0.030 A 
ATOM     28  C   UNL     1      -6.016  -1.345  -1.518  0.00  0.00    +0.009 A 
ATOM     29  C   UNL     1      -7.359  -0.498   0.304  0.00  0.00    +0.009 A 
ATOM     32  C   UNL     1      -6.129  -2.635  -1.000  0.00  0.00    +0.046 A 
ATOM     33  C   UNL     1      -7.471  -1.788   0.821  0.00  0.00    +0.046 A 
ATOM     34  C   UNL     1      -6.856  -2.857   0.169  0.00  0.00    +0.120 A 
BRANCH  34   5
ATOM      5  O   UNL     1      -6.965  -4.116   0.674  0.00  0.00    -0.495 OA
ATOM     38  C   UNL     1      -6.311  -5.162  -0.043  0.00  0.00    +0.277 C 
ENDBRANCH  34   5
ENDBRANCH  25  26
ENDBRANCH   7  25
ENDBRANCH  19  22
ENDBRANCH  14  19
TORSDOF 10
