REMARK  Name = 51137087
REMARK  3 active torsions:
REMARK  status: ('A' for Active; 'I' for Inactive)
REMARK    1  A    between atoms: N_3  and  C_9
REMARK    2  A    between atoms: C_5  and  C_10
REMARK    3  A    between atoms: C_9  and  C_11
REMARK                            x       y       z     vdW  Elec       q    Type
REMARK                         _______ _______ _______ _____ _____    ______ ____
ROOT
ATOM      3  N   UNL     1      -2.209   1.415  -0.163  0.00  0.00    -0.297 NA
ATOM      5  C   UNL     1      -0.059   1.259   0.760  0.00  0.00    +0.060 C 
ATOM      6  C   UNL     1      -0.254   2.655   0.142  0.00  0.00    +0.027 C 
ATOM      7  C   UNL     1      -1.196   0.412   0.174  0.00  0.00    +0.095 C 
ATOM      8  C   UNL     1      -1.462   2.514  -0.774  0.00  0.00    +0.085 C 
ENDROOT
BRANCH   5  10
ATOM      1  S   UNL     1       2.271   0.248   1.889  0.00  0.00    -0.072 S 
ATOM      4  N   UNL     1       1.821   0.402  -0.645  0.00  0.00    -0.244 NA
ATOM     10  C   UNL     1       1.306   0.650   0.536  0.00  0.00    +0.084 A 
ATOM     12  C   UNL     1       3.507  -0.317   0.828  0.00  0.00    +0.039 A 
ATOM     13  C   UNL     1       3.083  -0.154  -0.495  0.00  0.00    +0.078 A 
ATOM     15  C   UNL     1       4.760  -0.866   1.143  0.00  0.00    +0.017 A 
ATOM     16  C   UNL     1       3.947  -0.555  -1.537  0.00  0.00    +0.029 A 
ATOM     19  C   UNL     1       5.596  -1.254   0.092  0.00  0.00    +0.001 A 
ATOM     20  C   UNL     1       5.196  -1.102  -1.231  0.00  0.00    +0.002 A 
ENDBRANCH   5  10
BRANCH   3   9
ATOM      9  C   UNL     1      -3.240   0.887  -1.044  0.00  0.00    +0.126 C 
BRANCH   9  11
ATOM      2  S   UNL     1      -4.027  -1.778  -1.163  0.00  0.00    -0.100 S 
ATOM     11  C   UNL     1      -4.001  -0.243  -0.404  0.00  0.00    +0.004 A 
ATOM     14  C   UNL     1      -4.724  -0.234   0.769  0.00  0.00    +0.012 A 
ATOM     17  C   UNL     1      -5.306  -1.504   1.048  0.00  0.00    +0.008 A 
ATOM     18  C   UNL     1      -5.007  -2.435   0.077  0.00  0.00    +0.045 A 
ENDBRANCH   9  11
ENDBRANCH   3   9
TORSDOF 3
