REMARK  Name = 38030450
REMARK  10 active torsions:
REMARK  status: ('A' for Active; 'I' for Inactive)
REMARK    1  A    between atoms: N_3  and  C_13
REMARK    2  A    between atoms: C_8  and  C_12
REMARK    3  A    between atoms: C_9  and  C_13
REMARK    4  A    between atoms: C_11  and  C_18
REMARK    5  A    between atoms: C_12  and  C_22
REMARK    6  A    between atoms: C_12  and  C_23
REMARK    7  A    between atoms: C_15  and  C_24
REMARK    8  A    between atoms: C_18  and  C_25
REMARK    9  A    between atoms: C_19  and  C_26
REMARK   10  A    between atoms: C_27  and  C_28
REMARK                            x       y       z     vdW  Elec       q    Type
REMARK                         _______ _______ _______ _____ _____    ______ ____
ROOT
ATOM      8  C   UNL     1       1.023  -1.571   0.756  0.00  0.00    +0.000 C 
ATOM      9  C   UNL     1       1.937  -2.231  -0.303  0.00  0.00    +0.029 C 
ATOM     10  C   UNL     1      -0.403  -1.409   0.212  0.00  0.00    +0.012 C 
ATOM     11  C   UNL     1      -1.034  -2.739  -0.253  0.00  0.00    +0.024 C 
ATOM     14  C   UNL     1       1.275  -3.396  -0.993  0.00  0.00    -0.023 C 
ATOM     15  C   UNL     1      -0.047  -3.647  -0.973  0.00  0.00    -0.073 C 
ATOM     24  C   UNL     1      -0.593  -4.888  -1.624  0.00  0.00    +0.039 C 
ENDROOT
BRANCH   8  12
ATOM     12  C   UNL     1       1.029  -2.362   2.071  0.00  0.00    -0.013 C 
ATOM     22  C   UNL     1       2.456  -2.542   2.578  0.00  0.00    +0.007 C 
ATOM     23  C   UNL     1       0.168  -1.662   3.117  0.00  0.00    +0.007 C 
ENDBRANCH   8  12
BRANCH   9  13
ATOM     13  C   UNL     1       2.404  -1.220  -1.356  0.00  0.00    +0.092 C 
BRANCH  13   3
ATOM      3  N   UNL     1       3.074  -0.086  -0.722  0.00  0.00    -0.302 NA
ATOM     16  C   UNL     1       4.455  -0.438  -0.365  0.00  0.00    +0.085 C 
ATOM     17  C   UNL     1       3.037   1.091  -1.602  0.00  0.00    +0.085 C 
ATOM     19  C   UNL     1       5.117   1.994  -0.495  0.00  0.00    +0.077 C 
ATOM     20  C   UNL     1       5.152   0.721   0.350  0.00  0.00    +0.028 C 
ATOM     21  C   UNL     1       3.686   2.302  -0.931  0.00  0.00    +0.028 C 
BRANCH  19  26
ATOM      2  O   UNL     1       4.996   4.152   0.521  0.00  0.00    -0.276 OA
ATOM      5  N   UNL     1       6.968   2.979   0.686  0.00  0.00    -0.329 N 
ATOM     26  C   UNL     1       5.664   3.148   0.286  0.00  0.00    +0.214 C 
ATOM     33  H   UNL     1       7.517   2.161   0.443  0.00  0.00    +0.145 HD
ATOM     34  H   UNL     1       7.444   3.698   1.222  0.00  0.00    +0.145 HD
ENDBRANCH  19  26
ENDBRANCH  13   3
ENDBRANCH   9  13
BRANCH  11  18
ATOM     18  C   UNL     1      -2.277  -2.424  -1.095  0.00  0.00    +0.105 C 
BRANCH  18  25
ATOM      1  O   UNL     1      -3.254  -0.219  -0.720  0.00  0.00    -0.420 OA
ATOM      4  N   UNL     1      -4.062  -1.819   0.619  0.00  0.00    -0.112 NA
ATOM      6  N   UNL     1      -4.698  -0.634   0.938  0.00  0.00    -0.107 NA
ATOM     25  C   UNL     1      -3.229  -1.530  -0.353  0.00  0.00    +0.218 A 
ATOM     27  C   UNL     1      -4.196   0.272   0.132  0.00  0.00    +0.250 A 
BRANCH  27  28
ATOM      7  N   UNL     1      -5.735   3.595   0.768  0.00  0.00    -0.263 NA
ATOM     28  C   UNL     1      -4.480   1.672   0.013  0.00  0.00    +0.057 A 
ATOM     29  C   UNL     1      -3.821   2.461  -0.923  0.00  0.00    +0.016 A 
ATOM     30  C   UNL     1      -5.420   2.282   0.828  0.00  0.00    +0.124 A 
ATOM     31  C   UNL     1      -4.117   3.817  -1.015  0.00  0.00    +0.020 A 
ATOM     32  C   UNL     1      -5.074   4.330  -0.154  0.00  0.00    +0.111 A 
ENDBRANCH  27  28
ENDBRANCH  18  25
ENDBRANCH  11  18
TORSDOF 7
