REMARK  Name = 75537129
REMARK  3 active torsions:
REMARK  status: ('A' for Active; 'I' for Inactive)
REMARK    1  A    between atoms: N_4  and  C_11
REMARK    2  A    between atoms: N_5  and  C_10
REMARK    3  A    between atoms: C_24  and  C_25
REMARK                            x       y       z     vdW  Elec       q    Type
REMARK                         _______ _______ _______ _____ _____    ______ ____
ROOT
ATOM      1  O   UNL     1       3.255   2.648   0.202  0.00  0.00    -0.252 OA
ATOM      3  N   UNL     1       1.290   1.465  -0.308  0.00  0.00    -0.278 N 
ATOM      4  N   UNL     1      -1.398   0.650  -0.155  0.00  0.00    -0.296 NA
ATOM      5  N   UNL     1       3.218   0.320  -0.177  0.00  0.00    -0.281 N 
ATOM      7  C   UNL     1       0.941   0.118  -0.709  0.00  0.00    +0.109 C 
ATOM      8  C   UNL     1      -0.320  -0.344   0.021  0.00  0.00    +0.108 C 
ATOM      9  C   UNL     1       2.198  -0.691  -0.396  0.00  0.00    +0.133 C 
ATOM     12  C   UNL     1       0.267   2.490  -0.300  0.00  0.00    +0.125 C 
ATOM     13  C   UNL     1      -0.996   1.964   0.387  0.00  0.00    +0.104 C 
ATOM     14  C   UNL     1       2.663   1.611  -0.065  0.00  0.00    +0.305 C 
ENDROOT
BRANCH   4  11
ATOM      2  O   UNL     1      -6.879  -2.079  -0.709  0.00  0.00    -0.276 OA
ATOM      6  N   UNL     1      -5.402  -0.613   0.323  0.00  0.00    -0.302 N 
ATOM     11  C   UNL     1      -2.625   0.189   0.489  0.00  0.00    +0.060 C 
ATOM     17  C   UNL     1      -3.036  -1.176  -0.079  0.00  0.00    +0.038 C 
ATOM     18  C   UNL     1      -3.747   1.215   0.282  0.00  0.00    +0.038 C 
ATOM     22  C   UNL     1      -4.369  -1.633   0.511  0.00  0.00    +0.109 C 
ATOM     23  C   UNL     1      -5.066   0.710   0.864  0.00  0.00    +0.109 C 
ATOM     24  C   UNL     1      -6.606  -0.950  -0.294  0.00  0.00    +0.212 C 
ATOM     25  C   UNL     1      -7.617   0.157  -0.453  0.00  0.00    +0.109 C 
ENDBRANCH   4  11
BRANCH   5  10
ATOM     10  C   UNL     1       4.601  -0.025   0.045  0.00  0.00    +0.078 C 
ATOM     15  C   UNL     1       4.734  -1.013   1.206  0.00  0.00    +0.022 C 
ATOM     16  C   UNL     1       5.227  -0.583  -1.236  0.00  0.00    +0.022 C 
ATOM     19  C   UNL     1       6.185  -1.434   1.423  0.00  0.00    +0.002 C 
ATOM     20  C   UNL     1       6.677  -1.006  -1.016  0.00  0.00    +0.002 C 
ATOM     21  C   UNL     1       6.807  -1.988   0.144  0.00  0.00    +0.000 C 
ENDBRANCH   5  10
TORSDOF 2
