REMARK  Name = 38028744
REMARK  12 active torsions:
REMARK  status: ('A' for Active; 'I' for Inactive)
REMARK    1  A    between atoms: S_1  and  N_7
REMARK    2  A    between atoms: S_1  and  C_25
REMARK    3  A    between atoms: O_5  and  C_30
REMARK    4  A    between atoms: O_5  and  C_31
REMARK    5  A    between atoms: N_7  and  C_16
REMARK    6  A    between atoms: C_8  and  C_12
REMARK    7  A    between atoms: C_9  and  C_16
REMARK    8  A    between atoms: C_11  and  C_15
REMARK    9  A    between atoms: C_12  and  C_17
REMARK   10  A    between atoms: C_12  and  C_18
REMARK   11  A    between atoms: C_13  and  C_19
REMARK   12  A    between atoms: C_15  and  C_20
REMARK                            x       y       z     vdW  Elec       q    Type
REMARK                         _______ _______ _______ _____ _____    ______ ____
ROOT
ATOM      8  C   UNL     1      -0.111  -1.667  -1.176  0.00  0.00    +0.000 C 
ATOM      9  C   UNL     1      -0.744  -2.971  -0.629  0.00  0.00    +0.030 C 
ATOM     10  C   UNL     1       1.397  -1.858  -1.402  0.00  0.00    +0.012 C 
ATOM     11  C   UNL     1       2.135  -2.253  -0.109  0.00  0.00    +0.023 C 
ATOM     13  C   UNL     1       1.416  -3.362   0.633  0.00  0.00    -0.073 C 
ATOM     14  C   UNL     1       0.134  -3.677   0.378  0.00  0.00    -0.023 C 
ATOM     19  C   UNL     1       2.220  -4.131   1.644  0.00  0.00    +0.039 C 
ENDROOT
BRANCH   8  12
ATOM     12  C   UNL     1      -0.777  -1.215  -2.479  0.00  0.00    -0.013 C 
ATOM     17  C   UNL     1      -0.204   0.124  -2.933  0.00  0.00    +0.007 C 
ATOM     18  C   UNL     1      -0.601  -2.274  -3.563  0.00  0.00    +0.007 C 
ENDBRANCH   8  12
BRANCH  11  15
ATOM     15  C   UNL     1       2.350  -1.036   0.798  0.00  0.00    +0.103 C 
BRANCH  15  20
ATOM      2  O   UNL     1       4.376  -0.669  -0.399  0.00  0.00    -0.276 OA
ATOM      6  N   UNL     1       3.334   1.184   0.505  0.00  0.00    -0.301 N 
ATOM     20  C   UNL     1       3.449  -0.168   0.240  0.00  0.00    +0.216 C 
ATOM     21  C   UNL     1       4.317   2.153   0.043  0.00  0.00    +0.108 C 
ATOM     22  C   UNL     1       2.263   1.839   1.250  0.00  0.00    +0.108 C 
ATOM     23  C   UNL     1       3.651   3.503   0.258  0.00  0.00    +0.020 C 
ATOM     24  C   UNL     1       2.771   3.256   1.477  0.00  0.00    +0.020 C 
ENDBRANCH  15  20
ENDBRANCH  11  15
BRANCH   9  16
ATOM     16  C   UNL     1      -2.118  -2.699  -0.006  0.00  0.00    +0.113 C 
BRANCH  16   7
ATOM      7  N   UNL     1      -1.947  -1.851   1.185  0.00  0.00    -0.189 NA
ATOM     32  H   UNL     1      -1.317  -2.201   1.917  0.00  0.00    +0.148 HD
BRANCH   7   1
ATOM      1  S   UNL     1      -3.178  -0.769   1.650  0.00  0.00    +0.058 S 
ATOM      3  O   UNL     1      -3.058  -0.490   3.068  0.00  0.00    -0.153 OA
ATOM      4  O   UNL     1      -4.441  -1.221   1.099  0.00  0.00    -0.153 OA
BRANCH   1  25
ATOM     25  C   UNL     1      -2.724   0.693   0.766  0.00  0.00    +0.105 A 
ATOM     26  C   UNL     1      -1.875   1.629   1.357  0.00  0.00    +0.032 A 
ATOM     27  C   UNL     1      -3.215   0.912  -0.521  0.00  0.00    +0.032 A 
ATOM     28  C   UNL     1      -1.516   2.783   0.660  0.00  0.00    +0.047 A 
ATOM     29  C   UNL     1      -2.857   2.066  -1.217  0.00  0.00    +0.047 A 
ATOM     30  C   UNL     1      -2.007   3.002  -0.627  0.00  0.00    +0.120 A 
BRANCH  30   5
ATOM      5  O   UNL     1      -1.657   4.127  -1.307  0.00  0.00    -0.495 OA
ATOM     31  C   UNL     1      -0.783   5.040  -0.644  0.00  0.00    +0.277 C 
ENDBRANCH  30   5
ENDBRANCH   1  25
ENDBRANCH   7   1
ENDBRANCH  16   7
ENDBRANCH   9  16
TORSDOF 8
