REMARK  Name = 7142810
REMARK  6 active torsions:
REMARK  status: ('A' for Active; 'I' for Inactive)
REMARK    1  A    between atoms: N_4  and  C_14
REMARK    2  A    between atoms: N_6  and  C_18
REMARK    3  A    between atoms: C_14  and  C_17
REMARK    4  A    between atoms: C_17  and  C_20
REMARK    5  A    between atoms: C_20  and  C_21
REMARK    6  A    between atoms: C_22  and  C_27
REMARK                            x       y       z     vdW  Elec       q    Type
REMARK                         _______ _______ _______ _____ _____    ______ ____
ROOT
ATOM      2  O   UNL     1      -1.379   2.126  -1.802  0.00  0.00    -0.266 OA
ATOM      4  N   UNL     1       3.401   1.428  -0.465  0.00  0.00    -0.301 NA
ATOM      5  N   UNL     1       0.344   2.315  -0.237  0.00  0.00    -0.310 N 
ATOM      7  C   UNL     1       2.439   3.737  -0.636  0.00  0.00    +0.024 C 
ATOM      8  C   UNL     1       2.201   2.485   1.455  0.00  0.00    +0.050 C 
ATOM      9  C   UNL     1       2.452   3.877   0.880  0.00  0.00    +0.017 C 
ATOM     10  C   UNL     1       3.538   2.751  -1.086  0.00  0.00    +0.089 C 
ATOM     11  C   UNL     1       3.326   1.528   1.001  0.00  0.00    +0.094 C 
ATOM     12  C   UNL     1       1.036   3.299  -1.081  0.00  0.00    +0.130 C 
ATOM     13  C   UNL     1       0.847   1.959   1.019  0.00  0.00    +0.026 A 
ATOM     15  C   UNL     1       0.144   1.141   1.821  0.00  0.00    +0.024 A 
ATOM     16  C   UNL     1      -0.890   1.828  -0.712  0.00  0.00    +0.273 A 
ATOM     18  C   UNL     1      -1.631   0.902   0.202  0.00  0.00    +0.099 A 
ATOM     19  C   UNL     1      -1.119   0.603   1.401  0.00  0.00    +0.030 A 
ENDROOT
BRANCH  18   6
ATOM      3  O   UNL     1      -3.829   0.264   1.845  0.00  0.00    -0.269 OA
ATOM      6  N   UNL     1      -2.824   0.400  -0.226  0.00  0.00    -0.277 N 
ATOM     22  C   UNL     1      -3.888   0.097   0.626  0.00  0.00    +0.255 C 
ATOM     32  H   UNL     1      -2.996   0.468  -1.225  0.00  0.00    +0.155 HD
BRANCH  22  27
ATOM      1  S   UNL     1      -6.429  -0.791   0.945  0.00  0.00    -0.092 S 
ATOM     27  C   UNL     1      -5.104  -0.407  -0.033  0.00  0.00    +0.074 A 
ATOM     29  C   UNL     1      -5.298  -0.605  -1.354  0.00  0.00    +0.021 A 
ATOM     30  C   UNL     1      -6.611  -1.103  -1.598  0.00  0.00    +0.008 A 
ATOM     31  C   UNL     1      -7.332  -1.252  -0.435  0.00  0.00    +0.046 A 
ENDBRANCH  22  27
ENDBRANCH  18   6
BRANCH   4  14
ATOM     14  C   UNL     1       4.488   0.542  -0.874  0.00  0.00    +0.085 C 
BRANCH  14  17
ATOM     17  C   UNL     1       4.252  -0.869  -0.338  0.00  0.00    +0.020 C 
BRANCH  17  20
ATOM     20  C   UNL     1       2.928  -1.440  -0.851  0.00  0.00    +0.036 C 
BRANCH  20  21
ATOM     21  C   UNL     1       2.699  -2.846  -0.361  0.00  0.00    -0.047 A 
ATOM     23  C   UNL     1       3.160  -3.915  -1.115  0.00  0.00    +0.003 A 
ATOM     24  C   UNL     1       2.031  -3.050   0.838  0.00  0.00    +0.003 A 
ATOM     25  C   UNL     1       2.949  -5.217  -0.661  0.00  0.00    +0.000 A 
ATOM     26  C   UNL     1       1.820  -4.352   1.292  0.00  0.00    +0.000 A 
ATOM     28  C   UNL     1       2.279  -5.436   0.542  0.00  0.00    +0.000 A 
ENDBRANCH  20  21
ENDBRANCH  17  20
ENDBRANCH  14  17
ENDBRANCH   4  14
TORSDOF 6
