REMARK  Name = 11867059
REMARK  12 active torsions:
REMARK  status: ('A' for Active; 'I' for Inactive)
REMARK    1  A    between atoms: O_2  and  C_15
REMARK    2  A    between atoms: O_3  and  C_20
REMARK    3  A    between atoms: O_6  and  C_29
REMARK    4  A    between atoms: O_6  and  C_35
REMARK    5  A    between atoms: N_8  and  C_26
REMARK    6  A    between atoms: C_10  and  C_18
REMARK    7  A    between atoms: C_12  and  C_20
REMARK    8  A    between atoms: C_12  and  C_21
REMARK    9  A    between atoms: C_13  and  C_23
REMARK   10  A    between atoms: C_23  and  C_24
REMARK   11  A    between atoms: C_26  and  C_28
REMARK   12  A    between atoms: C_27  and  C_29
REMARK                            x       y       z     vdW  Elec       q    Type
REMARK                         _______ _______ _______ _____ _____    ______ ____
ROOT
ATOM      1  S   UNL     1      -0.858   3.353   0.469  0.00  0.00    -0.057 S 
ATOM      5  O   UNL     1       3.381   1.621  -0.413  0.00  0.00    -0.273 OA
ATOM      7  N   UNL     1       0.453   1.209  -0.142  0.00  0.00    -0.229 NA
ATOM      9  N   UNL     1       1.739   3.229   0.128  0.00  0.00    -0.263 N 
ATOM     10  C   UNL     1      -2.838  -0.761   0.259  0.00  0.00    -0.019 C 
ATOM     11  C   UNL     1      -3.727   0.477  -0.203  0.00  0.00    +0.011 C 
ATOM     12  C   UNL     1      -5.293   0.302  -0.129  0.00  0.00    +0.021 C 
ATOM     13  C   UNL     1      -1.358  -0.541  -0.301  0.00  0.00    +0.054 C 
ATOM     14  C   UNL     1      -3.407  -2.064  -0.361  0.00  0.00    +0.010 C 
ATOM     15  C   UNL     1      -5.685  -1.069  -0.748  0.00  0.00    +0.123 C 
ATOM     16  C   UNL     1      -3.215   1.809   0.419  0.00  0.00    +0.049 C 
ATOM     17  C   UNL     1      -4.905  -2.240  -0.160  0.00  0.00    +0.032 C 
ATOM     18  C   UNL     1      -2.788  -0.924   1.798  0.00  0.00    +0.012 C 
ATOM     19  C   UNL     1      -0.883   0.866  -0.040  0.00  0.00    +0.058 A 
ATOM     21  C   UNL     1      -5.968   1.408  -0.988  0.00  0.00    +0.016 C 
ATOM     22  C   UNL     1      -1.735   1.908   0.263  0.00  0.00    +0.015 A 
ATOM     25  C   UNL     1       0.584   2.492   0.114  0.00  0.00    +0.165 A 
ATOM     27  C   UNL     1       3.041   2.765  -0.130  0.00  0.00    +0.244 C 
ATOM     39  H   UNL     1       1.617   4.214   0.351  0.00  0.00    +0.157 HD
ENDROOT
BRANCH  15   2
ATOM      2  O   UNL     1      -7.080  -1.317  -0.580  0.00  0.00    -0.391 OA
ATOM     36  H   UNL     1      -7.286  -2.158  -1.022  0.00  0.00    +0.210 HD
ENDBRANCH  15   2
BRANCH  12  20
ATOM     20  C   UNL     1      -5.888   0.456   1.289  0.00  0.00    +0.165 C 
BRANCH  20   3
ATOM      3  O   UNL     1      -7.284   0.285   1.192  0.00  0.00    -0.394 OA
ATOM     37  H   UNL     1      -7.652   0.393   2.085  0.00  0.00    +0.209 HD
ENDBRANCH  20   3
ENDBRANCH  12  20
BRANCH  13  23
ATOM     23  C   UNL     1      -0.334  -1.578   0.179  0.00  0.00    +0.106 C 
BRANCH  23  24
ATOM      4  O   UNL     1       0.893  -1.126  -1.857  0.00  0.00    -0.276 OA
ATOM      8  N   UNL     1       1.725  -2.675  -0.337  0.00  0.00    -0.311 N 
ATOM     24  C   UNL     1       0.807  -1.742  -0.798  0.00  0.00    +0.214 C 
ATOM     38  H   UNL     1       1.551  -3.146   0.547  0.00  0.00    +0.149 HD
BRANCH   8  26
ATOM     26  C   UNL     1       2.917  -3.038  -1.067  0.00  0.00    +0.139 C 
BRANCH  26  28
ATOM     28  C   UNL     1       4.166  -2.747  -0.286  0.00  0.00    -0.030 A 
ATOM     30  C   UNL     1       4.788  -1.504  -0.402  0.00  0.00    +0.005 A 
ATOM     31  C   UNL     1       4.703  -3.719   0.558  0.00  0.00    +0.005 A 
ATOM     32  C   UNL     1       5.948  -1.233   0.325  0.00  0.00    +0.000 A 
ATOM     33  C   UNL     1       5.863  -3.449   1.284  0.00  0.00    +0.000 A 
ATOM     34  C   UNL     1       6.485  -2.206   1.168  0.00  0.00    +0.000 A 
ENDBRANCH  26  28
ENDBRANCH   8  26
ENDBRANCH  23  24
ENDBRANCH  13  23
BRANCH  27  29
ATOM     29  C   UNL     1       4.058   3.886  -0.018  0.00  0.00    +0.255 C 
BRANCH  29   6
ATOM      6  O   UNL     1       5.361   3.414  -0.291  0.00  0.00    -0.374 OA
ATOM     35  C   UNL     1       6.333   4.451  -0.192  0.00  0.00    +0.194 C 
ENDBRANCH  29   6
ENDBRANCH  27  29
TORSDOF 9
