REMARK  Name = 45360758
REMARK  12 active torsions:
REMARK  status: ('A' for Active; 'I' for Inactive)
REMARK    1  A    between atoms: O_3  and  C_28
REMARK    2  A    between atoms: O_3  and  C_29
REMARK    3  A    between atoms: N_6  and  C_9
REMARK    4  A    between atoms: N_6  and  C_17
REMARK    5  A    between atoms: N_7  and  C_22
REMARK    6  A    between atoms: N_7  and  C_23
REMARK    7  A    between atoms: C_10  and  C_15
REMARK    8  A    between atoms: C_15  and  C_16
REMARK    9  A    between atoms: C_16  and  C_18
REMARK   10  A    between atoms: C_17  and  C_19
REMARK   11  A    between atoms: C_22  and  C_26
REMARK   12  A    between atoms: C_23  and  C_27
REMARK                            x       y       z     vdW  Elec       q    Type
REMARK                         _______ _______ _______ _____ _____    ______ ____
ROOT
ATOM      1  O   UNL     1       0.106  -4.851  -0.630  0.00  0.00    -0.274 OA
ATOM      4  N   UNL     1      -1.554  -1.615  -0.317  0.00  0.00    -0.286 NA
ATOM      5  N   UNL     1      -1.502  -4.175   0.831  0.00  0.00    -0.313 N 
ATOM      8  C   UNL     1      -0.801  -2.662  -1.018  0.00  0.00    +0.145 C 
ATOM      9  C   UNL     1       0.511  -0.660  -0.614  0.00  0.00    +0.070 C 
ATOM     10  C   UNL     1      -2.732  -2.098   0.397  0.00  0.00    +0.075 C 
ATOM     11  C   UNL     1       0.584  -2.042  -1.263  0.00  0.00    +0.048 C 
ATOM     12  C   UNL     1      -0.587  -0.814   0.429  0.00  0.00    +0.104 C 
ATOM     13  C   UNL     1      -2.349  -3.161   1.414  0.00  0.00    +0.123 C 
ATOM     14  C   UNL     1      -0.675  -3.974  -0.248  0.00  0.00    +0.230 C 
ATOM     30  H   UNL     1      -1.423  -5.060   1.322  0.00  0.00    +0.149 HD
ENDROOT
BRANCH   9   6
ATOM      6  N   UNL     1       1.782  -0.223  -0.058  0.00  0.00    -0.308 NA
ATOM     31  H   UNL     1       1.610   0.517   0.623  0.00  0.00    +0.123 HD
BRANCH   6  17
ATOM     17  C   UNL     1       2.661   0.289  -1.102  0.00  0.00    +0.116 C 
BRANCH  17  19
ATOM     19  C   UNL     1       3.989   0.734  -0.548  0.00  0.00    -0.033 A 
ATOM     20  C   UNL     1       4.089   1.945   0.137  0.00  0.00    +0.008 A 
ATOM     21  C   UNL     1       5.119  -0.065  -0.720  0.00  0.00    +0.008 A 
ATOM     24  C   UNL     1       5.319   2.357   0.650  0.00  0.00    +0.046 A 
ATOM     25  C   UNL     1       6.349   0.346  -0.207  0.00  0.00    +0.046 A 
ATOM     28  C   UNL     1       6.449   1.557   0.478  0.00  0.00    +0.120 A 
BRANCH  28   3
ATOM      3  O   UNL     1       7.649   1.958   0.979  0.00  0.00    -0.495 OA
ATOM     29  C   UNL     1       8.763   1.093   0.767  0.00  0.00    +0.277 C 
ENDBRANCH  28   3
ENDBRANCH  17  19
ENDBRANCH   6  17
ENDBRANCH   9   6
BRANCH  10  15
ATOM     15  C   UNL     1      -3.530  -0.971   1.054  0.00  0.00    +0.029 C 
BRANCH  15  16
ATOM     16  C   UNL     1      -3.879   0.119   0.046  0.00  0.00    +0.097 C 
BRANCH  16  18
ATOM      2  O   UNL     1      -4.938   1.240   1.881  0.00  0.00    -0.276 OA
ATOM      7  N   UNL     1      -5.021   2.311  -0.175  0.00  0.00    -0.302 N 
ATOM     18  C   UNL     1      -4.658   1.264   0.680  0.00  0.00    +0.216 C 
BRANCH   7  22
ATOM     22  C   UNL     1      -4.712   2.384  -1.601  0.00  0.00    +0.104 C 
ATOM     26  C   UNL     1      -3.385   3.072  -1.847  0.00  0.00    +0.024 C 
ENDBRANCH   7  22
BRANCH   7  23
ATOM     23  C   UNL     1      -5.777   3.439   0.354  0.00  0.00    +0.104 C 
ATOM     27  C   UNL     1      -7.270   3.203   0.251  0.00  0.00    +0.024 C 
ENDBRANCH   7  23
ENDBRANCH  16  18
ENDBRANCH  15  16
ENDBRANCH  10  15
TORSDOF 9
