REMARK  Name = 11885173
REMARK  2 active torsions:
REMARK  status: ('A' for Active; 'I' for Inactive)
REMARK    1  A    between atoms: N_7  and  C_21
REMARK    2  A    between atoms: C_18  and  C_20
REMARK                            x       y       z     vdW  Elec       q    Type
REMARK                         _______ _______ _______ _____ _____    ______ ____
ROOT
ATOM      3  O   UNL     1      -1.550  -0.553   1.957  0.00  0.00    -0.267 OA
ATOM      4  O   UNL     1       2.626  -0.332  -2.052  0.00  0.00    -0.252 OA
ATOM      5  N   UNL     1       2.659  -1.948  -0.396  0.00  0.00    -0.284 N 
ATOM      6  N   UNL     1      -0.343  -2.090   0.684  0.00  0.00    -0.311 N 
ATOM      7  N   UNL     1       3.365   0.254   0.067  0.00  0.00    -0.269 N 
ATOM      8  C   UNL     1       1.768  -3.244   1.555  0.00  0.00    +0.027 C 
ATOM      9  C   UNL     1       0.956  -3.737  -0.711  0.00  0.00    +0.054 C 
ATOM     10  C   UNL     1       1.379  -4.374   0.611  0.00  0.00    +0.018 C 
ATOM     11  C   UNL     1       2.928  -2.410   0.975  0.00  0.00    +0.114 C 
ATOM     12  C   UNL     1       0.528  -2.385   1.829  0.00  0.00    +0.130 C 
ATOM     13  C   UNL     1       2.153  -2.979  -1.311  0.00  0.00    +0.119 C 
ATOM     14  C   UNL     1      -0.211  -2.787  -0.520  0.00  0.00    +0.027 A 
ATOM     15  C   UNL     1      -1.093  -2.590  -1.512  0.00  0.00    +0.022 A 
ATOM     16  C   UNL     1      -1.379  -1.159   0.898  0.00  0.00    +0.259 A 
ATOM     17  C   UNL     1       2.862  -0.637  -0.880  0.00  0.00    +0.306 C 
ATOM     18  C   UNL     1      -2.327  -0.929  -0.248  0.00  0.00    +0.047 A 
ATOM     19  C   UNL     1      -2.162  -1.641  -1.372  0.00  0.00    +0.015 A 
ATOM     32  H   UNL     1       3.931  -0.117   0.823  0.00  0.00    +0.156 HD
ENDROOT
BRANCH  18  20
ATOM      1 CL   UNL     1      -6.735   3.101   0.136  0.00  0.00    -0.084 Cl
ATOM     20  C   UNL     1      -3.412   0.063  -0.153  0.00  0.00    -0.013 A 
ATOM     22  C   UNL     1      -4.667  -0.318   0.323  0.00  0.00    +0.010 A 
ATOM     23  C   UNL     1      -3.186   1.385  -0.539  0.00  0.00    +0.010 A 
ATOM     26  C   UNL     1      -5.694   0.621   0.413  0.00  0.00    +0.020 A 
ATOM     27  C   UNL     1      -4.214   2.324  -0.450  0.00  0.00    +0.020 A 
ATOM     28  C   UNL     1      -5.468   1.942   0.026  0.00  0.00    +0.041 A 
ENDBRANCH  18  20
BRANCH   7  21
ATOM      2 CL   UNL     1       2.756   6.144   0.119  0.00  0.00    -0.084 Cl
ATOM     21  C   UNL     1       3.220   1.663   0.080  0.00  0.00    +0.035 A 
ATOM     24  C   UNL     1       3.869   2.417   1.054  0.00  0.00    +0.025 A 
ATOM     25  C   UNL     1       2.429   2.286  -0.882  0.00  0.00    +0.025 A 
ATOM     29  C   UNL     1       3.725   3.805   1.066  0.00  0.00    +0.022 A 
ATOM     30  C   UNL     1       2.285   3.673  -0.870  0.00  0.00    +0.022 A 
ATOM     31  C   UNL     1       2.933   4.433   0.104  0.00  0.00    +0.041 A 
ENDBRANCH   7  21
TORSDOF 2
