REMARK  Name = 56774867
REMARK  5 active torsions:
REMARK  status: ('A' for Active; 'I' for Inactive)
REMARK    1  A    between atoms: O_3  and  C_14
REMARK    2  A    between atoms: N_5  and  C_17
REMARK    3  A    between atoms: C_7  and  C_12
REMARK    4  A    between atoms: C_13  and  C_14
REMARK    5  A    between atoms: C_14  and  C_16
REMARK                            x       y       z     vdW  Elec       q    Type
REMARK                         _______ _______ _______ _____ _____    ______ ____
ROOT
ATOM     16  C   UNL     1       1.401  -0.807   0.242  0.00  0.00    -0.017 A 
ATOM     17  C   UNL     1      -1.351  -0.796  -0.213  0.00  0.00    +0.033 A 
ATOM     18  C   UNL     1       0.558  -0.084   1.085  0.00  0.00    +0.008 A 
ATOM     19  C   UNL     1       0.868  -1.525  -0.829  0.00  0.00    +0.008 A 
ATOM     20  C   UNL     1      -0.818  -0.078   0.858  0.00  0.00    +0.023 A 
ATOM     21  C   UNL     1      -0.508  -1.519  -1.056  0.00  0.00    +0.023 A 
ENDROOT
BRANCH  17   5
ATOM      2  O   UNL     1      -3.574   0.582   1.279  0.00  0.00    -0.275 OA
ATOM      5  N   UNL     1      -2.728  -0.791  -0.440  0.00  0.00    -0.285 N 
ATOM     12  C   UNL     1      -3.723  -0.129   0.291  0.00  0.00    +0.220 C 
ATOM     24  H   UNL     1      -3.032  -1.335  -1.245  0.00  0.00    +0.155 HD
BRANCH  12   7
ATOM      7  C   UNL     1      -5.087  -0.376  -0.278  0.00  0.00    +0.075 C 
ATOM      8  C   UNL     1      -5.440   0.709  -1.302  0.00  0.00    +0.013 C 
ATOM      9  C   UNL     1      -6.151  -0.293   0.818  0.00  0.00    +0.013 C 
ATOM     10  C   UNL     1      -6.753   1.320  -0.824  0.00  0.00    +0.001 C 
ATOM     11  C   UNL     1      -6.739   1.104   0.678  0.00  0.00    +0.001 C 
ENDBRANCH  12   7
ENDBRANCH  17   5
BRANCH  16  14
ATOM     14  C   UNL     1       2.890  -0.814   0.488  0.00  0.00    +0.167 C 
BRANCH  14  13
ATOM      1  O   UNL     1       3.745   1.988   0.030  0.00  0.00    -0.369 OA
ATOM      4  O   UNL     1       7.022   0.518   0.414  0.00  0.00    -0.273 OA
ATOM      6  N   UNL     1       5.098  -0.385  -0.455  0.00  0.00    -0.306 N 
ATOM     13  C   UNL     1       3.670  -0.286  -0.715  0.00  0.00    +0.131 C 
ATOM     15  C   UNL     1       3.299   1.156  -1.038  0.00  0.00    +0.185 C 
ATOM     22  C   UNL     1       5.156   2.000   0.116  0.00  0.00    +0.255 C 
ATOM     23  C   UNL     1       5.849   0.647   0.067  0.00  0.00    +0.239 C 
ATOM     25  H   UNL     1       5.537  -1.296  -0.545  0.00  0.00    +0.149 HD
ENDBRANCH  14  13
BRANCH  14   3
ATOM      3  O   UNL     1       3.314  -2.142   0.783  0.00  0.00    -0.385 OA
ATOM     26  H   UNL     1       2.687  -2.529   1.417  0.00  0.00    +0.210 HD
ENDBRANCH  14   3
ENDBRANCH  16  14
TORSDOF 5
