REMARK  Name = 56773986
REMARK  13 active torsions:
REMARK  status: ('A' for Active; 'I' for Inactive)
REMARK    1  A    between atoms: N_4  and  C_9
REMARK    2  A    between atoms: N_4  and  C_14
REMARK    3  A    between atoms: N_4  and  C_15
REMARK    4  A    between atoms: N_6  and  C_23
REMARK    5  A    between atoms: N_6  and  C_28
REMARK    6  A    between atoms: N_6  and  C_29
REMARK    7  A    between atoms: C_7  and  C_12
REMARK    8  A    between atoms: C_7  and  C_13
REMARK    9  A    between atoms: C_8  and  C_11
REMARK   10  A    between atoms: C_11  and  C_16
REMARK   11  A    between atoms: C_14  and  C_17
REMARK   12  A    between atoms: C_15  and  C_18
REMARK   13  A    between atoms: C_20  and  C_23
REMARK                            x       y       z     vdW  Elec       q    Type
REMARK                         _______ _______ _______ _____ _____    ______ ____
ROOT
ATOM      7  C   UNL     1      -1.520   2.647   0.638  0.00  0.00    -0.016 C 
ATOM      8  C   UNL     1       0.019   2.546   0.579  0.00  0.00    +0.004 C 
ATOM      9  C   UNL     1      -1.506   1.278   1.349  0.00  0.00    +0.064 C 
ATOM     10  C   UNL     1      -0.157   1.014   0.649  0.00  0.00    +0.024 C 
ATOM     12  C   UNL     1      -2.022   3.839   1.425  0.00  0.00    +0.013 C 
ATOM     13  C   UNL     1      -2.233   2.587  -0.702  0.00  0.00    +0.013 C 
ENDROOT
BRANCH   9   4
ATOM      4  N   UNL     1      -2.522   0.374   0.784  0.00  0.00    -0.285 NA
BRANCH   4  14
ATOM     14  C   UNL     1      -2.097  -1.011   0.985  0.00  0.00    +0.159 C 
BRANCH  14  17
ATOM      2  O   UNL     1      -2.637  -1.714  -1.282  0.00  0.00    -0.467 OA
ATOM     17  C   UNL     1      -2.799  -1.955   0.046  0.00  0.00    +0.119 A 
ATOM     21  C   UNL     1      -3.602  -3.055   0.243  0.00  0.00    +0.046 A 
ATOM     24  C   UNL     1      -3.956  -3.519  -1.046  0.00  0.00    +0.041 A 
ATOM     26  C   UNL     1      -3.344  -2.671  -1.940  0.00  0.00    +0.195 A 
ENDBRANCH  14  17
ENDBRANCH   4  14
BRANCH   4  15
ATOM     15  C   UNL     1      -3.804   0.620   1.444  0.00  0.00    +0.159 C 
BRANCH  15  18
ATOM      3  O   UNL     1      -4.805   0.140  -0.723  0.00  0.00    -0.467 OA
ATOM     18  C   UNL     1      -4.962   0.112   0.627  0.00  0.00    +0.119 A 
ATOM     22  C   UNL     1      -6.196  -0.397   0.960  0.00  0.00    +0.046 A 
ATOM     25  C   UNL     1      -6.839  -0.701  -0.264  0.00  0.00    +0.041 A 
ATOM     27  C   UNL     1      -5.952  -0.356  -1.258  0.00  0.00    +0.195 A 
ENDBRANCH  15  18
ENDBRANCH   4  15
ENDBRANCH   9   4
BRANCH   8  11
ATOM     11  C   UNL     1       0.694   3.044  -0.678  0.00  0.00    +0.063 C 
BRANCH  11  16
ATOM      1  O   UNL     1       4.273   2.715  -0.354  0.00  0.00    -0.358 OA
ATOM      5  N   UNL     1       3.078   3.400  -0.165  0.00  0.00    -0.083 NA
ATOM     16  C   UNL     1       2.141   2.614  -0.703  0.00  0.00    +0.084 A 
ATOM     19  C   UNL     1       2.680   1.432  -1.240  0.00  0.00    +0.072 A 
ATOM     20  C   UNL     1       4.023   1.545  -0.995  0.00  0.00    +0.155 A 
BRANCH  20  23
ATOM     23  C   UNL     1       5.183   0.691  -1.276  0.00  0.00    +0.181 C 
BRANCH  23   6
ATOM      6  N   UNL     1       4.862  -0.747  -1.266  0.00  0.00    -0.326 N 
ATOM     28  C   UNL     1       4.515  -1.365  -2.531  0.00  0.00    +0.129 C 
BRANCH   6  29
ATOM     29  C   UNL     1       4.888  -1.464  -0.079  0.00  0.00    +0.030 A 
ATOM     30  C   UNL     1       4.992  -2.854  -0.106  0.00  0.00    +0.023 A 
ATOM     31  C   UNL     1       4.809  -0.794   1.142  0.00  0.00    +0.023 A 
ATOM     32  C   UNL     1       5.018  -3.575   1.088  0.00  0.00    +0.002 A 
ATOM     33  C   UNL     1       4.835  -1.514   2.336  0.00  0.00    +0.002 A 
ATOM     34  C   UNL     1       4.940  -2.905   2.309  0.00  0.00    +0.000 A 
ENDBRANCH   6  29
ENDBRANCH  23   6
ENDBRANCH  20  23
ENDBRANCH  11  16
ENDBRANCH   8  11
TORSDOF 10
