REMARK  Name = 75536565
REMARK  7 active torsions:
REMARK  status: ('A' for Active; 'I' for Inactive)
REMARK    1  A    between atoms: O_2  and  C_8
REMARK    2  A    between atoms: N_4  and  C_16
REMARK    3  A    between atoms: N_5  and  C_10
REMARK    4  A    between atoms: N_5  and  C_18
REMARK    5  A    between atoms: C_7  and  C_16
REMARK    6  A    between atoms: C_9  and  C_17
REMARK    7  A    between atoms: C_18  and  C_19
REMARK                            x       y       z     vdW  Elec       q    Type
REMARK                         _______ _______ _______ _____ _____    ______ ____
ROOT
ATOM      1  O   UNL     1       0.587  -1.186  -0.403  0.00  0.00    -0.371 OA
ATOM      7  C   UNL     1       0.916   0.094   0.164  0.00  0.00    +0.165 C 
ATOM      8  C   UNL     1      -0.389   0.661   0.707  0.00  0.00    +0.164 C 
ATOM     10  C   UNL     1      -1.382   0.140  -0.314  0.00  0.00    +0.111 C 
ATOM     15  C   UNL     1      -0.839  -1.255  -0.577  0.00  0.00    +0.181 C 
ENDROOT
BRANCH   8   2
ATOM      2  O   UNL     1      -0.363   2.074   0.772  0.00  0.00    -0.388 OA
ATOM     26  H   UNL     1      -0.171   2.417  -0.117  0.00  0.00    +0.210 HD
ENDBRANCH   8   2
BRANCH  10   5
ATOM      5  N   UNL     1      -2.757   0.132   0.160  0.00  0.00    -0.305 NA
ATOM     25  H   UNL     1      -2.956   1.021   0.619  0.00  0.00    +0.123 HD
BRANCH   5  18
ATOM     18  C   UNL     1      -3.692  -0.049  -0.944  0.00  0.00    +0.118 C 
BRANCH  18  19
ATOM      6  N   UNL     1      -7.241   1.060  -0.236  0.00  0.00    -0.263 NA
ATOM     19  C   UNL     1      -5.120  -0.077  -0.469  0.00  0.00    -0.015 A 
ATOM     20  C   UNL     1      -5.647  -1.202   0.154  0.00  0.00    +0.008 A 
ATOM     21  C   UNL     1      -5.952   1.019  -0.639  0.00  0.00    +0.115 A 
ATOM     22  C   UNL     1      -6.970  -1.198   0.583  0.00  0.00    +0.020 A 
ATOM     23  C   UNL     1      -7.718  -0.052   0.366  0.00  0.00    +0.111 A 
ENDBRANCH  18  19
ENDBRANCH   5  18
ENDBRANCH  10   5
BRANCH   7  16
ATOM     16  C   UNL     1       1.986  -0.075   1.227  0.00  0.00    +0.138 C 
BRANCH  16   4
ATOM      3  O   UNL     1       4.230   1.397   0.118  0.00  0.00    -0.276 OA
ATOM      4  N   UNL     1       3.193  -0.615   0.670  0.00  0.00    -0.313 N 
ATOM     17  C   UNL     1       4.221   0.169   0.160  0.00  0.00    +0.216 C 
ATOM     24  H   UNL     1       3.291  -1.626   0.658  0.00  0.00    +0.149 HD
BRANCH  17   9
ATOM      9  C   UNL     1       5.376  -0.646  -0.336  0.00  0.00    +0.075 C 
ATOM     11  C   UNL     1       6.395  -0.864   0.789  0.00  0.00    +0.013 C 
ATOM     12  C   UNL     1       6.120   0.092  -1.450  0.00  0.00    +0.013 C 
ATOM     13  C   UNL     1       7.723  -0.336   0.256  0.00  0.00    +0.001 C 
ATOM     14  C   UNL     1       7.323   0.719  -0.759  0.00  0.00    +0.001 C 
ENDBRANCH  17   9
ENDBRANCH  16   4
ENDBRANCH   7  16
TORSDOF 7
