REMARK  Name = 75536728
REMARK  9 active torsions:
REMARK  status: ('A' for Active; 'I' for Inactive)
REMARK    1  A    between atoms: O_2  and  C_9
REMARK    2  A    between atoms: N_4  and  C_8
REMARK    3  A    between atoms: N_4  and  C_13
REMARK    4  A    between atoms: N_5  and  C_12
REMARK    5  A    between atoms: N_6  and  C_16
REMARK    6  A    between atoms: C_10  and  C_12
REMARK    7  A    between atoms: C_13  and  C_14
REMARK    8  A    between atoms: C_16  and  C_18
REMARK    9  A    between atoms: C_16  and  C_19
REMARK                            x       y       z     vdW  Elec       q    Type
REMARK                         _______ _______ _______ _____ _____    ______ ____
ROOT
ATOM      1  O   UNL     1       0.889  -1.192   0.174  0.00  0.00    -0.371 OA
ATOM      8  C   UNL     1      -1.087   0.035  -0.305  0.00  0.00    +0.111 C 
ATOM      9  C   UNL     1      -0.119   0.930   0.445  0.00  0.00    +0.164 C 
ATOM     10  C   UNL     1       1.200   0.211   0.194  0.00  0.00    +0.165 C 
ATOM     11  C   UNL     1      -0.533  -1.343   0.014  0.00  0.00    +0.181 C 
ENDROOT
BRANCH   9   2
ATOM      2  O   UNL     1      -0.101   2.254  -0.053  0.00  0.00    -0.388 OA
ATOM     24  H   UNL     1       0.110   2.221  -1.002  0.00  0.00    +0.210 HD
ENDBRANCH   9   2
BRANCH   8   4
ATOM      4  N   UNL     1      -2.472   0.198   0.107  0.00  0.00    -0.303 NA
ATOM     23  H   UNL     1      -2.685   1.194   0.174  0.00  0.00    +0.123 HD
BRANCH   4  13
ATOM     13  C   UNL     1      -3.382  -0.416  -0.852  0.00  0.00    +0.137 C 
BRANCH  13  14
ATOM      7  N   UNL     1      -5.551   0.661  -1.083  0.00  0.00    -0.259 NA
ATOM     14  C   UNL     1      -4.820  -0.272  -0.432  0.00  0.00    +0.055 A 
ATOM     17  C   UNL     1      -5.317  -1.082   0.576  0.00  0.00    +0.024 A 
ATOM     20  C   UNL     1      -6.650  -0.925   0.939  0.00  0.00    +0.003 A 
ATOM     21  C   UNL     1      -6.842   0.785  -0.703  0.00  0.00    +0.111 A 
ATOM     22  C   UNL     1      -7.434   0.025   0.292  0.00  0.00    +0.020 A 
ENDBRANCH  13  14
ENDBRANCH   4  13
ENDBRANCH   8   4
BRANCH  10  12
ATOM     12  C   UNL     1       2.247   0.489   1.258  0.00  0.00    +0.140 C 
BRANCH  12   5
ATOM      3  O   UNL     1       4.486   1.442  -0.293  0.00  0.00    -0.253 OA
ATOM      5  N   UNL     1       3.469  -0.211   0.983  0.00  0.00    -0.297 N 
ATOM      6  N   UNL     1       5.575  -0.567   0.110  0.00  0.00    -0.297 N 
ATOM     15  C   UNL     1       4.510   0.323   0.219  0.00  0.00    +0.300 C 
ATOM     25  H   UNL     1       3.576  -1.151   1.352  0.00  0.00    +0.150 HD
ATOM     26  H   UNL     1       5.532  -1.437   0.631  0.00  0.00    +0.150 HD
BRANCH   6  16
ATOM     16  C   UNL     1       6.778  -0.261  -0.627  0.00  0.00    +0.068 C 
ATOM     18  C   UNL     1       7.789   0.444   0.268  0.00  0.00    +0.027 C 
ATOM     19  C   UNL     1       7.366  -1.530  -1.231  0.00  0.00    +0.027 C 
ENDBRANCH   6  16
ENDBRANCH  12   5
ENDBRANCH  10  12
TORSDOF 7
