REMARK  Name = 25338995
REMARK  9 active torsions:
REMARK  status: ('A' for Active; 'I' for Inactive)
REMARK    1  A    between atoms: S_1  and  N_9
REMARK    2  A    between atoms: S_1  and  C_20
REMARK    3  A    between atoms: O_7  and  C_19
REMARK    4  A    between atoms: O_7  and  C_28
REMARK    5  A    between atoms: N_10  and  C_17
REMARK    6  A    between atoms: C_12  and  C_19
REMARK    7  A    between atoms: C_17  and  C_21
REMARK    8  A    between atoms: C_17  and  C_22
REMARK    9  A    between atoms: C_25  and  C_29
REMARK                            x       y       z     vdW  Elec       q    Type
REMARK                         _______ _______ _______ _____ _____    ______ ____
ROOT
ATOM      9  N   UNL     1       1.019   1.178   0.296  0.00  0.00    -0.157 NA
ATOM     10  N   UNL     1       1.921  -2.430  -0.160  0.00  0.00    -0.330 N 
ATOM     11  N   UNL     1       3.585  -1.963   1.256  0.00  0.00    -0.240 NA
ATOM     12  C   UNL     1       2.420   1.603   0.665  0.00  0.00    +0.194 C 
ATOM     13  C   UNL     1       0.911  -0.112  -0.489  0.00  0.00    +0.165 C 
ATOM     14  C   UNL     1       1.861  -1.089   0.076  0.00  0.00    +0.057 A 
ATOM     15  C   UNL     1       3.178   0.528   1.470  0.00  0.00    +0.089 C 
ATOM     16  C   UNL     1       2.893  -0.827   0.943  0.00  0.00    +0.066 A 
ATOM     18  C   UNL     1       2.976  -2.912   0.574  0.00  0.00    +0.200 A 
ENDROOT
BRANCH   9   1
ATOM      1  S   UNL     1      -0.172   1.412   1.510  0.00  0.00    +0.062 S 
ATOM      5  O   UNL     1      -0.038   2.747   2.051  0.00  0.00    -0.153 OA
ATOM      6  O   UNL     1      -0.192   0.254   2.377  0.00  0.00    -0.153 OA
BRANCH   1  20
ATOM     20  C   UNL     1      -1.632   1.374   0.519  0.00  0.00    +0.106 A 
ATOM     23  C   UNL     1      -2.511   0.294   0.613  0.00  0.00    +0.041 A 
ATOM     24  C   UNL     1      -1.908   2.423  -0.357  0.00  0.00    +0.028 A 
ATOM     25  C   UNL     1      -3.665   0.265  -0.170  0.00  0.00    +0.057 A 
ATOM     26  C   UNL     1      -3.062   2.394  -1.140  0.00  0.00    +0.002 A 
ATOM     27  C   UNL     1      -3.940   1.314  -1.047  0.00  0.00    +0.012 A 
BRANCH  25  29
ATOM      2  F   UNL     1      -5.681  -0.763  -0.901  0.00  0.00    -0.166 F 
ATOM      3  F   UNL     1      -4.035  -2.088  -0.390  0.00  0.00    -0.166 F 
ATOM      4  F   UNL     1      -5.126  -1.064   1.180  0.00  0.00    -0.166 F 
ATOM     29  C   UNL     1      -4.605  -0.889  -0.071  0.00  0.00    +0.417 C 
ENDBRANCH  25  29
ENDBRANCH   1  20
ENDBRANCH   9   1
BRANCH  10  17
ATOM     17  C   UNL     1       1.058  -3.206  -1.016  0.00  0.00    +0.082 C 
ATOM     21  C   UNL     1       0.288  -4.268  -0.227  0.00  0.00    +0.030 C 
ATOM     22  C   UNL     1       1.835  -3.843  -2.171  0.00  0.00    +0.030 C 
ENDBRANCH  10  17
BRANCH  12  19
ATOM      8  O   UNL     1       4.160   1.448  -0.990  0.00  0.00    -0.249 OA
ATOM     19  C   UNL     1       3.112   1.957  -0.614  0.00  0.00    +0.326 C 
BRANCH  19   7
ATOM      7  O   UNL     1       2.397   2.915  -1.270  0.00  0.00    -0.467 OA
ATOM     28  C   UNL     1       2.950   3.349  -2.517  0.00  0.00    +0.280 C 
ENDBRANCH  19   7
ENDBRANCH  12  19
TORSDOF 6
