REMARK  Name = 51137362
REMARK  4 active torsions:
REMARK  status: ('A' for Active; 'I' for Inactive)
REMARK    1  A    between atoms: N_2  and  C_6
REMARK    2  A    between atoms: C_8  and  C_16
REMARK    3  A    between atoms: C_17  and  C_18
REMARK    4  A    between atoms: C_18  and  C_19
REMARK                            x       y       z     vdW  Elec       q    Type
REMARK                         _______ _______ _______ _____ _____    ______ ____
ROOT
ATOM      1  O   UNL     1       0.614  -1.388  -0.301  0.00  0.00    -0.424 OA
ATOM      3  N   UNL     1       0.522  -3.493   0.451  0.00  0.00    -0.112 NA
ATOM      4  N   UNL     1       1.677  -3.357  -0.296  0.00  0.00    -0.112 NA
ATOM     16  C   UNL     1      -0.066  -2.320   0.421  0.00  0.00    +0.222 A 
ATOM     17  C   UNL     1       1.689  -2.113  -0.716  0.00  0.00    +0.222 A 
ENDROOT
BRANCH  16   8
ATOM      2  N   UNL     1      -3.161  -0.396   0.802  0.00  0.00    -0.299 NA
ATOM      7  C   UNL     1      -2.397  -1.388   0.042  0.00  0.00    +0.097 C 
ATOM      8  C   UNL     1      -1.360  -1.875   1.063  0.00  0.00    +0.092 C 
ATOM      9  C   UNL     1      -2.156   0.370   1.539  0.00  0.00    +0.085 C 
ATOM     12  C   UNL     1      -1.220  -0.712   2.061  0.00  0.00    +0.029 C 
BRANCH   2   6
ATOM      6  C   UNL     1      -3.986   0.450  -0.058  0.00  0.00    +0.057 C 
ATOM     10  C   UNL     1      -4.672   1.534   0.781  0.00  0.00    +0.019 C 
ATOM     11  C   UNL     1      -5.016  -0.409  -0.800  0.00  0.00    +0.019 C 
ATOM     13  C   UNL     1      -5.604   2.392  -0.073  0.00  0.00    +0.002 C 
ATOM     14  C   UNL     1      -5.948   0.452  -1.652  0.00  0.00    +0.002 C 
ATOM     15  C   UNL     1      -6.624   1.540  -0.823  0.00  0.00    +0.000 C 
ENDBRANCH   2   6
ENDBRANCH  16   8
BRANCH  17  18
ATOM     18  C   UNL     1       2.679  -1.415  -1.546  0.00  0.00    +0.135 C 
BRANCH  18  19
ATOM      5  N   UNL     1       5.379   0.232   0.371  0.00  0.00    -0.360 N 
ATOM     19  C   UNL     1       3.626  -0.500  -0.776  0.00  0.00    -0.013 A 
ATOM     20  C   UNL     1       3.423   0.878  -0.486  0.00  0.00    +0.003 A 
ATOM     21  C   UNL     1       4.836  -0.868  -0.237  0.00  0.00    +0.087 A 
ATOM     22  C   UNL     1       4.537   1.313   0.234  0.00  0.00    +0.047 A 
ATOM     23  C   UNL     1       2.395   1.800  -0.768  0.00  0.00    +0.010 A 
ATOM     24  C   UNL     1       4.675   2.629   0.689  0.00  0.00    +0.026 A 
ATOM     25  C   UNL     1       2.520   3.120  -0.320  0.00  0.00    +0.001 A 
ATOM     26  C   UNL     1       3.643   3.526   0.398  0.00  0.00    +0.002 A 
ATOM     27  H   UNL     1       6.268   0.250   0.851  0.00  0.00    +0.165 HD
ENDBRANCH  18  19
ENDBRANCH  17  18
TORSDOF 4
