REMARK  Name = 75367098
REMARK  8 active torsions:
REMARK  status: ('A' for Active; 'I' for Inactive)
REMARK    1  A    between atoms: S_1  and  N_7
REMARK    2  A    between atoms: S_1  and  C_17
REMARK    3  A    between atoms: O_3  and  C_11
REMARK    4  A    between atoms: N_6  and  C_10
REMARK    5  A    between atoms: N_6  and  C_15
REMARK    6  A    between atoms: N_7  and  C_14
REMARK    7  A    between atoms: C_12  and  C_14
REMARK    8  A    between atoms: C_15  and  C_16
REMARK                            x       y       z     vdW  Elec       q    Type
REMARK                         _______ _______ _______ _____ _____    ______ ____
ROOT
ATOM      2  O   UNL     1      -0.232  -1.217   1.352  0.00  0.00    -0.371 OA
ATOM     10  C   UNL     1      -2.178  -0.970   0.012  0.00  0.00    +0.111 C 
ATOM     11  C   UNL     1      -0.962  -0.573  -0.804  0.00  0.00    +0.164 C 
ATOM     12  C   UNL     1       0.150  -1.271  -0.033  0.00  0.00    +0.164 C 
ATOM     13  C   UNL     1      -1.630  -0.888   1.428  0.00  0.00    +0.181 C 
ENDROOT
BRANCH  11   3
ATOM      3  O   UNL     1      -1.034  -1.018  -2.144  0.00  0.00    -0.388 OA
ATOM     27  H   UNL     1      -1.158  -1.982  -2.140  0.00  0.00    +0.210 HD
ENDBRANCH  11   3
BRANCH  10   6
ATOM      6  N   UNL     1      -3.330  -0.109  -0.200  0.00  0.00    -0.302 NA
ATOM     25  H   UNL     1      -3.449   0.048  -1.201  0.00  0.00    +0.123 HD
BRANCH   6  15
ATOM     15  C   UNL     1      -4.544  -0.717   0.330  0.00  0.00    +0.156 C 
BRANCH  15  16
ATOM      8  N   UNL     1      -5.960   1.262   0.925  0.00  0.00    -0.347 N 
ATOM      9  N   UNL     1      -6.694   0.023  -0.765  0.00  0.00    -0.240 NA
ATOM     16  C   UNL     1      -5.746   0.168   0.134  0.00  0.00    +0.121 A 
ATOM     20  C   UNL     1      -7.119   1.852   0.504  0.00  0.00    +0.104 A 
ATOM     21  C   UNL     1      -7.553   1.069  -0.540  0.00  0.00    +0.130 A 
ATOM     28  H   UNL     1      -5.371   1.579   1.683  0.00  0.00    +0.167 HD
ENDBRANCH  15  16
ENDBRANCH   6  15
ENDBRANCH  10   6
BRANCH  12  14
ATOM     14  C   UNL     1       1.509  -0.620  -0.216  0.00  0.00    +0.140 C 
BRANCH  14   7
ATOM      7  N   UNL     1       2.522  -1.359   0.563  0.00  0.00    -0.187 NA
ATOM     26  H   UNL     1       2.344  -1.429   1.573  0.00  0.00    +0.148 HD
BRANCH   7   1
ATOM      1  S   UNL     1       4.132  -1.430   0.017  0.00  0.00    +0.058 S 
ATOM      4  O   UNL     1       4.156  -1.925  -1.346  0.00  0.00    -0.153 OA
ATOM      5  O   UNL     1       4.948  -2.060   1.037  0.00  0.00    -0.153 OA
BRANCH   1  17
ATOM     17  C   UNL     1       4.579   0.280  -0.017  0.00  0.00    +0.105 A 
ATOM     18  C   UNL     1       5.138   0.877   1.113  0.00  0.00    +0.028 A 
ATOM     19  C   UNL     1       4.367   1.033  -1.172  0.00  0.00    +0.028 A 
ATOM     22  C   UNL     1       5.487   2.228   1.087  0.00  0.00    +0.002 A 
ATOM     23  C   UNL     1       4.716   2.384  -1.197  0.00  0.00    +0.002 A 
ATOM     24  C   UNL     1       5.276   2.981  -0.068  0.00  0.00    +0.000 A 
ENDBRANCH   1  17
ENDBRANCH   7   1
ENDBRANCH  14   7
ENDBRANCH  12  14
TORSDOF 8
