REMARK  Name = 45783364
REMARK  11 active torsions:
REMARK  status: ('A' for Active; 'I' for Inactive)
REMARK    1  A    between atoms: O_2  and  C_26
REMARK    2  A    between atoms: O_2  and  C_30
REMARK    3  A    between atoms: O_4  and  C_31
REMARK    4  A    between atoms: O_4  and  C_32
REMARK    5  A    between atoms: N_5  and  C_14
REMARK    6  A    between atoms: N_8  and  C_22
REMARK    7  A    between atoms: C_10  and  C_15
REMARK    8  A    between atoms: C_14  and  C_16
REMARK    9  A    between atoms: C_19  and  C_23
REMARK   10  A    between atoms: C_28  and  C_29
REMARK   11  A    between atoms: C_30  and  C_31
REMARK                            x       y       z     vdW  Elec       q    Type
REMARK                         _______ _______ _______ _____ _____    ______ ____
ROOT
ATOM      5  N   UNL     1      -3.906  -0.653   1.292  0.00  0.00    -0.287 NA
ATOM     10  C   UNL     1      -4.234   0.421   0.334  0.00  0.00    +0.146 C 
ATOM     11  C   UNL     1      -5.056   1.436   1.151  0.00  0.00    +0.030 C 
ATOM     12  C   UNL     1      -5.190   0.818   2.535  0.00  0.00    +0.017 C 
ATOM     13  C   UNL     1      -4.980  -0.662   2.286  0.00  0.00    +0.085 C 
ENDROOT
BRANCH  10  15
ATOM      1  O   UNL     1      -3.157   1.577  -1.530  0.00  0.00    -0.336 OA
ATOM      6  N   UNL     1      -1.785   1.131   0.183  0.00  0.00    -0.190 NA
ATOM      7  N   UNL     1      -1.900   2.076  -1.897  0.00  0.00    -0.056 NA
ATOM     15  C   UNL     1      -3.001   1.038  -0.293  0.00  0.00    +0.245 A 
ATOM     19  C   UNL     1      -1.146   1.775  -0.836  0.00  0.00    +0.202 A 
BRANCH  19  23
ATOM      9  N   UNL     1       2.965   2.748  -0.617  0.00  0.00    -0.221 NA
ATOM     23  C   UNL     1       0.248   2.105  -0.761  0.00  0.00    +0.029 A 
ATOM     24  C   UNL     1       1.077   1.436   0.133  0.00  0.00    +0.079 A 
ATOM     25  C   UNL     1       0.776   3.094  -1.583  0.00  0.00    +0.031 A 
ATOM     26  C   UNL     1       2.416   1.792   0.166  0.00  0.00    +0.215 A 
ATOM     27  C   UNL     1       2.128   3.376  -1.473  0.00  0.00    +0.115 A 
BRANCH  26   2
ATOM      2  O   UNL     1       3.253   1.147   1.039  0.00  0.00    -0.474 OA
BRANCH   2  30
ATOM     30  C   UNL     1       4.617   1.551   1.032  0.00  0.00    +0.258 C 
BRANCH  30  31
ATOM     31  C   UNL     1       5.376   0.749   2.072  0.00  0.00    +0.200 C 
BRANCH  31   4
ATOM      4  O   UNL     1       5.261  -0.635   1.764  0.00  0.00    -0.380 OA
ATOM     32  C   UNL     1       5.974  -1.437   2.697  0.00  0.00    +0.194 C 
ENDBRANCH  31   4
ENDBRANCH  30  31
ENDBRANCH   2  30
ENDBRANCH  26   2
ENDBRANCH  19  23
ENDBRANCH  10  15
BRANCH   5  14
ATOM     14  C   UNL     1      -3.734  -1.954   0.659  0.00  0.00    +0.120 C 
BRANCH  14  16
ATOM     16  C   UNL     1      -2.377  -2.093   0.023  0.00  0.00    -0.033 A 
ATOM     17  C   UNL     1      -2.270  -2.359  -1.342  0.00  0.00    +0.007 A 
ATOM     18  C   UNL     1      -1.225  -1.956   0.798  0.00  0.00    +0.007 A 
ATOM     20  C   UNL     1      -1.013  -2.488  -1.932  0.00  0.00    +0.023 A 
ATOM     21  C   UNL     1       0.032  -2.086   0.209  0.00  0.00    +0.023 A 
ATOM     22  C   UNL     1       0.138  -2.351  -1.156  0.00  0.00    +0.033 A 
BRANCH  22   8
ATOM      3  O   UNL     1       2.891  -2.154   0.048  0.00  0.00    -0.276 OA
ATOM      8  N   UNL     1       1.397  -2.481  -1.746  0.00  0.00    -0.286 N 
ATOM     28  C   UNL     1       2.653  -2.377  -1.134  0.00  0.00    +0.214 C 
ATOM     29  C   UNL     1       3.774  -2.582  -2.122  0.00  0.00    +0.109 C 
ATOM     33  H   UNL     1       1.390  -2.674  -2.745  0.00  0.00    +0.155 HD
ENDBRANCH  22   8
ENDBRANCH  14  16
ENDBRANCH   5  14
TORSDOF 9
