REMARK  Name = 40777423
REMARK  12 active torsions:
REMARK  status: ('A' for Active; 'I' for Inactive)
REMARK    1  A    between atoms: O_3  and  C_28
REMARK    2  A    between atoms: O_3  and  C_29
REMARK    3  A    between atoms: N_5  and  C_18
REMARK    4  A    between atoms: N_7  and  C_20
REMARK    5  A    between atoms: N_7  and  C_24
REMARK    6  A    between atoms: N_7  and  C_25
REMARK    7  A    between atoms: C_8  and  C_14
REMARK    8  A    between atoms: C_9  and  C_13
REMARK    9  A    between atoms: C_13  and  C_15
REMARK   10  A    between atoms: C_14  and  C_16
REMARK   11  A    between atoms: C_18  and  C_20
REMARK   12  A    between atoms: C_19  and  C_21
REMARK                            x       y       z     vdW  Elec       q    Type
REMARK                         _______ _______ _______ _____ _____    ______ ____
ROOT
ATOM      4  N   UNL     1       0.823   3.144  -0.214  0.00  0.00    -0.316 NA
ATOM      8  C   UNL     1       2.226   0.648  -0.928  0.00  0.00    +0.004 C 
ATOM      9  C   UNL     1       0.702   0.706  -0.667  0.00  0.00    +0.012 C 
ATOM     10  C   UNL     1       2.714   2.041  -1.358  0.00  0.00    +0.019 C 
ATOM     11  C   UNL     1       0.331   1.858   0.281  0.00  0.00    +0.085 C 
ATOM     12  C   UNL     1       2.274   3.139  -0.391  0.00  0.00    +0.081 C 
ATOM     30  H   UNL     1       0.566   3.880   0.444  0.00  0.00    +0.122 HD
ENDROOT
BRANCH   9  13
ATOM     13  C   UNL     1       0.131  -0.617  -0.154  0.00  0.00    +0.064 C 
BRANCH  13  15
ATOM      2  O   UNL     1      -3.172  -1.182  -1.472  0.00  0.00    -0.354 OA
ATOM      6  N   UNL     1      -1.786  -1.247  -1.557  0.00  0.00    -0.083 NA
ATOM     15  C   UNL     1      -1.344  -0.714  -0.414  0.00  0.00    +0.085 A 
ATOM     17  C   UNL     1      -2.395  -0.299   0.422  0.00  0.00    +0.076 A 
ATOM     19  C   UNL     1      -3.522  -0.616  -0.289  0.00  0.00    +0.167 A 
BRANCH  19  21
ATOM     21  C   UNL     1      -4.931  -0.481  -0.058  0.00  0.00    +0.020 A 
ATOM     22  C   UNL     1      -5.392   0.089   1.129  0.00  0.00    +0.015 A 
ATOM     23  C   UNL     1      -5.840  -0.920  -1.020  0.00  0.00    +0.015 A 
ATOM     26  C   UNL     1      -6.762   0.220   1.353  0.00  0.00    +0.046 A 
ATOM     27  C   UNL     1      -7.211  -0.789  -0.796  0.00  0.00    +0.046 A 
ATOM     28  C   UNL     1      -7.672  -0.219   0.391  0.00  0.00    +0.120 A 
BRANCH  28   3
ATOM      3  O   UNL     1      -9.009  -0.089   0.609  0.00  0.00    -0.495 OA
ATOM     29  C   UNL     1      -9.411   0.505   1.842  0.00  0.00    +0.277 C 
ENDBRANCH  28   3
ENDBRANCH  19  21
ENDBRANCH  13  15
ENDBRANCH   9  13
BRANCH   8  14
ATOM     14  C   UNL     1       3.043   0.127   0.261  0.00  0.00    +0.099 C 
BRANCH  14  16
ATOM      1  O   UNL     1       4.791  -0.403  -1.325  0.00  0.00    -0.276 OA
ATOM      5  N   UNL     1       5.129  -0.836   0.933  0.00  0.00    -0.314 N 
ATOM     16  C   UNL     1       4.402  -0.389  -0.161  0.00  0.00    +0.213 C 
ATOM     31  H   UNL     1       4.720  -0.774   1.861  0.00  0.00    +0.149 HD
BRANCH   5  18
ATOM     18  C   UNL     1       6.462  -1.384   0.824  0.00  0.00    +0.119 C 
BRANCH  18  20
ATOM     20  C   UNL     1       7.517  -0.295   0.949  0.00  0.00    +0.102 C 
BRANCH  20   7
ATOM      7  N   UNL     1       8.852  -0.871   0.865  0.00  0.00    -0.307 NA
ATOM     24  C   UNL     1       9.210  -1.145  -0.528  0.00  0.00    +0.104 C 
ATOM     25  C   UNL     1       9.840   0.022   1.475  0.00  0.00    +0.104 C 
ENDBRANCH  20   7
ENDBRANCH  18  20
ENDBRANCH   5  18
ENDBRANCH  14  16
ENDBRANCH   8  14
TORSDOF 9
