REMARK  Name = 51137082
REMARK  5 active torsions:
REMARK  status: ('A' for Active; 'I' for Inactive)
REMARK    1  A    between atoms: O_2  and  C_18
REMARK    2  A    between atoms: O_2  and  C_23
REMARK    3  A    between atoms: N_3  and  C_9
REMARK    4  A    between atoms: C_5  and  C_10
REMARK    5  A    between atoms: C_9  and  C_11
REMARK                            x       y       z     vdW  Elec       q    Type
REMARK                         _______ _______ _______ _____ _____    ______ ____
ROOT
ATOM      3  N   UNL     1      -1.037  -0.639  -0.139  0.00  0.00    -0.297 NA
ATOM      5  C   UNL     1       1.152  -0.999   0.621  0.00  0.00    +0.060 C 
ATOM      6  C   UNL     1       0.389  -0.134   1.640  0.00  0.00    +0.027 C 
ATOM      7  C   UNL     1       0.301  -0.939  -0.654  0.00  0.00    +0.095 C 
ATOM      8  C   UNL     1      -0.826   0.386   0.883  0.00  0.00    +0.085 C 
ENDROOT
BRANCH   5  10
ATOM      1  S   UNL     1       3.838  -1.710   0.721  0.00  0.00    -0.072 S 
ATOM      4  N   UNL     1       2.961   0.589  -0.053  0.00  0.00    -0.244 NA
ATOM     10  C   UNL     1       2.589  -0.589   0.390  0.00  0.00    +0.084 A 
ATOM     12  C   UNL     1       5.005  -0.538   0.233  0.00  0.00    +0.039 A 
ATOM     13  C   UNL     1       4.344   0.633  -0.149  0.00  0.00    +0.078 A 
ATOM     16  C   UNL     1       6.404  -0.648   0.192  0.00  0.00    +0.017 A 
ATOM     17  C   UNL     1       5.114   1.732  -0.588  0.00  0.00    +0.029 A 
ATOM     21  C   UNL     1       7.142   0.455  -0.246  0.00  0.00    +0.001 A 
ATOM     22  C   UNL     1       6.507   1.630  -0.631  0.00  0.00    +0.002 A 
ENDBRANCH   5  10
BRANCH   3   9
ATOM      9  C   UNL     1      -1.949  -0.200  -1.185  0.00  0.00    +0.119 C 
BRANCH   9  11
ATOM     11  C   UNL     1      -3.388  -0.315  -0.758  0.00  0.00    -0.030 A 
ATOM     14  C   UNL     1      -4.098   0.828  -0.388  0.00  0.00    +0.050 A 
ATOM     15  C   UNL     1      -4.011  -1.562  -0.732  0.00  0.00    +0.005 A 
ATOM     18  C   UNL     1      -5.432   0.722   0.008  0.00  0.00    +0.120 A 
ATOM     19  C   UNL     1      -5.344  -1.668  -0.335  0.00  0.00    +0.004 A 
ATOM     20  C   UNL     1      -6.055  -0.526   0.035  0.00  0.00    +0.045 A 
BRANCH  18   2
ATOM      2  O   UNL     1      -6.124   1.837   0.370  0.00  0.00    -0.495 OA
ATOM     23  C   UNL     1      -7.483   1.656   0.766  0.00  0.00    +0.277 C 
ENDBRANCH  18   2
ENDBRANCH   9  11
ENDBRANCH   3   9
TORSDOF 4
