REMARK  Name = 7051138
REMARK  6 active torsions:
REMARK  status: ('A' for Active; 'I' for Inactive)
REMARK    1  A    between atoms: S_1  and  C_23
REMARK    2  A    between atoms: S_1  and  C_28
REMARK    3  A    between atoms: N_9  and  C_12
REMARK    4  A    between atoms: CA_16  and  CB_19
REMARK    5  A    between atoms: CB_19  and  CG_20
REMARK    6  A    between atoms: C_21  and  C_23
REMARK                            x       y       z     vdW  Elec       q    Type
REMARK                         _______ _______ _______ _____ _____    ______ ____
ROOT
ATOM      2  O   TRP A   2      -1.572   3.033  -1.635  0.00  0.00    -0.274 OA
ATOM      3  O   UNK A   1       0.246   1.145   3.024  0.00  0.00    -0.274 OA
ATOM      7  N   UNK A   1       0.252   2.557  -0.256  0.00  0.00    -0.288 N 
ATOM      8  N   TRP A   2      -1.470   1.604   1.588  0.00  0.00    -0.302 N 
ATOM     11  C   UNK A   1       0.806   1.586   0.703  0.00  0.00    +0.164 C 
ATOM     12  C   UNK A   1       3.158   2.451   0.150  0.00  0.00    +0.077 C 
ATOM     13  C   UNK A   1       2.199   1.973   1.233  0.00  0.00    +0.054 C 
ATOM     14  C   UNK A   1       2.510   3.589  -0.630  0.00  0.00    +0.041 C 
ATOM     15  C   UNK A   1       1.163   3.188  -1.212  0.00  0.00    +0.110 C 
ATOM     16  CA  TRP A   2      -1.972   1.607   0.234  0.00  0.00    +0.163 C 
ATOM     17  C   TRP A   2      -1.102   2.503  -0.625  0.00  0.00    +0.237 C 
ATOM     18  C   UNK A   1      -0.137   1.458   1.898  0.00  0.00    +0.234 C 
ATOM     36  H   TRP A   2      -2.142   1.510   2.344  0.00  0.00    +0.150 HD
ENDROOT
BRANCH  12   9
ATOM      4  O   UNK A   1       5.400   0.681   0.549  0.00  0.00    -0.274 OA
ATOM      9  N   UNK A   1       3.571   1.366  -0.707  0.00  0.00    -0.311 N 
ATOM     21  C   UNK A   1       4.671   0.564  -0.431  0.00  0.00    +0.235 C 
ATOM     37  H   UNK A   1       2.989   1.145  -1.509  0.00  0.00    +0.149 HD
BRANCH  21  23
ATOM     23  C   UNK A   1       4.864  -0.490  -1.494  0.00  0.00    +0.267 C 
BRANCH  23   1
ATOM      1  S   UNK A   1       4.762  -2.124  -0.848  0.00  0.00    +0.005 S 
ATOM      5  O   UNK A   1       5.678  -2.245   0.276  0.00  0.00    -0.169 OA
ATOM      6  O   UNK A   1       4.851  -3.054  -1.962  0.00  0.00    -0.169 OA
BRANCH   1  28
ATOM     28  C   UNK A   1       3.124  -2.227  -0.187  0.00  0.00    +0.089 A 
ATOM     31  C   UNK A   1       2.095  -2.663  -1.002  0.00  0.00    +0.027 A 
ATOM     32  C   UNK A   1       2.905  -1.869   1.131  0.00  0.00    +0.027 A 
ATOM     33  C   UNK A   1       0.803  -2.744  -0.481  0.00  0.00    +0.002 A 
ATOM     34  C   UNK A   1       1.613  -1.949   1.652  0.00  0.00    +0.002 A 
ATOM     35  C   UNK A   1       0.562  -2.386   0.845  0.00  0.00    +0.000 A 
ENDBRANCH   1  28
ENDBRANCH  23   1
ENDBRANCH  21  23
ENDBRANCH  12   9
BRANCH  16  19
ATOM     19  CB  TRP A   2      -2.089   0.207  -0.351  0.00  0.00    +0.069 C 
BRANCH  19  20
ATOM     10  NE1 TRP A   2      -4.603  -1.768   1.413  0.00  0.00    -0.360 N 
ATOM     20  CG  TRP A   2      -3.304  -0.516   0.167  0.00  0.00    -0.020 A 
ATOM     22  CD2 TRP A   2      -4.582  -0.496  -0.419  0.00  0.00    +0.003 A 
ATOM     24  CD1 TRP A   2      -3.326  -1.293   1.282  0.00  0.00    +0.087 A 
ATOM     25  CE2 TRP A   2      -5.392  -1.297   0.388  0.00  0.00    +0.047 A 
ATOM     26  CE3 TRP A   2      -5.149   0.117  -1.554  0.00  0.00    +0.010 A 
ATOM     27  CZ2 TRP A   2      -6.747  -1.517   0.115  0.00  0.00    +0.026 A 
ATOM     29  CZ3 TRP A   2      -6.503  -0.094  -1.839  0.00  0.00    +0.001 A 
ATOM     30  CH2 TRP A   2      -7.288  -0.899  -1.016  0.00  0.00    +0.002 A 
ATOM     38  HE1 TRP A   2      -4.923  -2.374   2.156  0.00  0.00    +0.165 HD
ENDBRANCH  19  20
ENDBRANCH  16  19
TORSDOF 6
