REMARK  Name = 75368556
REMARK  4 active torsions:
REMARK  status: ('A' for Active; 'I' for Inactive)
REMARK    1  A    between atoms: O_5  and  C_19
REMARK    2  A    between atoms: O_5  and  C_22
REMARK    3  A    between atoms: N_7  and  C_15
REMARK    4  A    between atoms: C_15  and  C_16
REMARK                            x       y       z     vdW  Elec       q    Type
REMARK                         _______ _______ _______ _____ _____    ______ ____
ROOT
ATOM     15  C   UNL     1       0.136  -1.788  -1.143  0.00  0.00    +0.119 C 
ENDROOT
BRANCH  15   7
ATOM      4  O   UNL     1       5.933   0.659  -0.045  0.00  0.00    -0.253 OA
ATOM      6  N   UNL     1       3.688  -0.004   0.198  0.00  0.00    -0.279 N 
ATOM      7  N   UNL     1       1.263  -1.324  -0.335  0.00  0.00    -0.295 NA
ATOM      8  N   UNL     1       4.197   2.174   0.402  0.00  0.00    -0.297 N 
ATOM      9  C   UNL     1       2.445   0.626   0.591  0.00  0.00    +0.109 C 
ATOM     10  C   UNL     1       1.303   0.152  -0.307  0.00  0.00    +0.109 C 
ATOM     11  C   UNL     1       3.725  -1.438  -0.003  0.00  0.00    +0.125 C 
ATOM     12  C   UNL     1       2.756   2.118   0.503  0.00  0.00    +0.129 C 
ATOM     13  C   UNL     1       2.531  -1.876  -0.855  0.00  0.00    +0.104 C 
ATOM     14  C   UNL     1       4.752   0.903   0.162  0.00  0.00    +0.303 C 
ATOM     23  H   UNL     1       4.738   3.033   0.416  0.00  0.00    +0.150 HD
ENDBRANCH  15   7
BRANCH  15  16
ATOM     16  C   UNL     1      -1.171  -1.669  -0.405  0.00  0.00    -0.030 A 
ATOM     17  C   UNL     1      -2.054  -0.634  -0.714  0.00  0.00    +0.051 A 
ATOM     18  C   UNL     1      -1.497  -2.591   0.589  0.00  0.00    +0.005 A 
ATOM     19  C   UNL     1      -3.264  -0.523  -0.029  0.00  0.00    +0.130 A 
ATOM     20  C   UNL     1      -2.708  -2.480   1.274  0.00  0.00    +0.004 A 
ATOM     21  C   UNL     1      -3.591  -1.446   0.964  0.00  0.00    +0.046 A 
BRANCH  19   5
ATOM      5  O   UNL     1      -4.126   0.487  -0.331  0.00  0.00    -0.406 OA
BRANCH   5  22
ATOM      1  F   UNL     1      -4.728   2.605   0.164  0.00  0.00    -0.133 F 
ATOM      2  F   UNL     1      -3.156   2.305  -1.324  0.00  0.00    -0.133 F 
ATOM      3  F   UNL     1      -2.758   1.918   0.815  0.00  0.00    -0.133 F 
ATOM     22  C   UNL     1      -3.674   1.827  -0.173  0.00  0.00    +0.575 C 
ENDBRANCH   5  22
ENDBRANCH  19   5
ENDBRANCH  15  16
TORSDOF 4
