REMARK  Name = 11867047
REMARK  14 active torsions:
REMARK  status: ('A' for Active; 'I' for Inactive)
REMARK    1  A    between atoms: O_2  and  C_14
REMARK    2  A    between atoms: O_3  and  C_19
REMARK    3  A    between atoms: N_7  and  C_25
REMARK    4  A    between atoms: C_9  and  C_17
REMARK    5  A    between atoms: C_11  and  C_19
REMARK    6  A    between atoms: C_11  and  C_20
REMARK    7  A    between atoms: C_12  and  C_22
REMARK    8  A    between atoms: C_22  and  C_23
REMARK    9  A    between atoms: C_25  and  C_28
REMARK   10  A    between atoms: C_26  and  C_27
REMARK   11  A    between atoms: C_27  and  C_29
REMARK   12  A    between atoms: C_29  and  C_32
REMARK   13  A    between atoms: C_29  and  C_33
REMARK   14  A    between atoms: C_29  and  C_34
REMARK                            x       y       z     vdW  Elec       q    Type
REMARK                         _______ _______ _______ _____ _____    ______ ____
ROOT
ATOM      1  S   UNL     1      -0.825   3.218  -0.116  0.00  0.00    -0.057 S 
ATOM      5  O   UNL     1       3.210   1.040  -0.949  0.00  0.00    -0.275 OA
ATOM      6  N   UNL     1       0.285   0.910  -0.485  0.00  0.00    -0.229 NA
ATOM      8  N   UNL     1       1.732   2.837  -0.560  0.00  0.00    -0.265 N 
ATOM      9  C   UNL     1      -3.115  -0.711   0.341  0.00  0.00    -0.019 C 
ATOM     10  C   UNL     1      -3.934   0.522  -0.246  0.00  0.00    +0.011 C 
ATOM     11  C   UNL     1      -5.502   0.487  -0.074  0.00  0.00    +0.021 C 
ATOM     12  C   UNL     1      -1.657  -0.690  -0.314  0.00  0.00    +0.054 C 
ATOM     13  C   UNL     1      -3.814  -2.034  -0.065  0.00  0.00    +0.010 C 
ATOM     14  C   UNL     1      -6.030  -0.918  -0.478  0.00  0.00    +0.123 C 
ATOM     15  C   UNL     1      -3.289   1.879   0.160  0.00  0.00    +0.049 C 
ATOM     16  C   UNL     1      -5.307  -2.058   0.230  0.00  0.00    +0.032 C 
ATOM     17  C   UNL     1      -2.987  -0.668   1.883  0.00  0.00    +0.012 C 
ATOM     18  C   UNL     1      -1.065   0.695  -0.274  0.00  0.00    +0.058 A 
ATOM     20  C   UNL     1      -6.142   1.519  -1.046  0.00  0.00    +0.016 C 
ATOM     21  C   UNL     1      -1.817   1.835  -0.078  0.00  0.00    +0.015 A 
ATOM     24  C   UNL     1       0.527   2.201  -0.417  0.00  0.00    +0.165 A 
ATOM     26  C   UNL     1       2.977   2.238  -0.811  0.00  0.00    +0.219 C 
ATOM     41  H   UNL     1       1.694   3.848  -0.467  0.00  0.00    +0.157 HD
ENDROOT
BRANCH  14   2
ATOM      2  O   UNL     1      -7.428  -1.025  -0.211  0.00  0.00    -0.391 OA
ATOM     38  H   UNL     1      -7.722  -1.899  -0.521  0.00  0.00    +0.210 HD
ENDBRANCH  14   2
BRANCH  11  19
ATOM     19  C   UNL     1      -6.000   0.879   1.335  0.00  0.00    +0.165 C 
BRANCH  19   3
ATOM      3  O   UNL     1      -7.408   0.812   1.329  0.00  0.00    -0.394 OA
ATOM     39  H   UNL     1      -7.715   1.069   2.215  0.00  0.00    +0.209 HD
ENDBRANCH  19   3
ENDBRANCH  11  19
BRANCH  12  22
ATOM     22  C   UNL     1      -0.687  -1.734   0.257  0.00  0.00    +0.106 C 
BRANCH  22  23
ATOM      4  O   UNL     1       0.450  -1.662  -1.878  0.00  0.00    -0.276 OA
ATOM      7  N   UNL     1       1.250  -3.055  -0.198  0.00  0.00    -0.311 N 
ATOM     23  C   UNL     1       0.379  -2.121  -0.741  0.00  0.00    +0.214 C 
ATOM     40  H   UNL     1       1.093  -3.387   0.749  0.00  0.00    +0.149 HD
BRANCH   7  25
ATOM     25  C   UNL     1       2.368  -3.609  -0.927  0.00  0.00    +0.139 C 
BRANCH  25  28
ATOM     28  C   UNL     1       3.678  -3.319  -0.253  0.00  0.00    -0.030 A 
ATOM     30  C   UNL     1       4.383  -2.158  -0.571  0.00  0.00    +0.005 A 
ATOM     31  C   UNL     1       4.189  -4.210   0.691  0.00  0.00    +0.005 A 
ATOM     35  C   UNL     1       5.600  -1.888   0.056  0.00  0.00    +0.000 A 
ATOM     36  C   UNL     1       5.406  -3.940   1.317  0.00  0.00    +0.000 A 
ATOM     37  C   UNL     1       6.111  -2.779   0.999  0.00  0.00    +0.000 A 
ENDBRANCH  25  28
ENDBRANCH   7  25
ENDBRANCH  22  23
ENDBRANCH  12  22
BRANCH  26  27
ATOM     27  C   UNL     1       4.110   3.253  -0.904  0.00  0.00    +0.102 C 
BRANCH  27  29
ATOM     29  C   UNL     1       4.877   3.491   0.419  0.00  0.00    -0.029 C 
ATOM     32  C   UNL     1       3.965   4.093   1.500  0.00  0.00    +0.011 C 
ATOM     33  C   UNL     1       6.019   4.487   0.135  0.00  0.00    +0.011 C 
ATOM     34  C   UNL     1       5.492   2.183   0.945  0.00  0.00    +0.011 C 
ENDBRANCH  27  29
ENDBRANCH  26  27
TORSDOF 9
