REMARK  Name = 11883035
REMARK  9 active torsions:
REMARK  status: ('A' for Active; 'I' for Inactive)
REMARK    1  A    between atoms: O_3  and  C_16
REMARK    2  A    between atoms: O_4  and  C_21
REMARK    3  A    between atoms: O_5  and  C_25
REMARK    4  A    between atoms: C_11  and  C_19
REMARK    5  A    between atoms: C_13  and  C_21
REMARK    6  A    between atoms: C_13  and  C_22
REMARK    7  A    between atoms: C_14  and  C_24
REMARK    8  A    between atoms: C_24  and  C_25
REMARK    9  A    between atoms: C_27  and  C_28
REMARK                            x       y       z     vdW  Elec       q    Type
REMARK                         _______ _______ _______ _____ _____    ______ ____
ROOT
ATOM      2  S   UNL     1       0.404   2.167   0.182  0.00  0.00    -0.057 S 
ATOM      7  O   UNL     1       3.555  -1.253  -0.027  0.00  0.00    -0.270 OA
ATOM      8  N   UNL     1       0.725  -0.394   0.003  0.00  0.00    -0.229 NA
ATOM      9  N   UNL     1       2.724   0.947   0.123  0.00  0.00    -0.261 N 
ATOM     11  C   UNL     1      -3.099  -0.766   0.336  0.00  0.00    -0.019 C 
ATOM     12  C   UNL     1      -3.376   0.631  -0.377  0.00  0.00    +0.011 C 
ATOM     13  C   UNL     1      -4.874   1.119  -0.436  0.00  0.00    +0.021 C 
ATOM     14  C   UNL     1      -1.642  -1.260  -0.097  0.00  0.00    +0.055 C 
ATOM     15  C   UNL     1      -4.135  -1.810  -0.154  0.00  0.00    +0.010 C 
ATOM     16  C   UNL     1      -5.779  -0.058  -0.900  0.00  0.00    +0.123 C 
ATOM     17  C   UNL     1      -2.378   1.724   0.106  0.00  0.00    +0.049 C 
ATOM     18  C   UNL     1      -5.577  -1.329  -0.082  0.00  0.00    +0.032 C 
ATOM     19  C   UNL     1      -3.174  -0.678   1.880  0.00  0.00    +0.012 C 
ATOM     20  C   UNL     1      -0.635  -0.145   0.016  0.00  0.00    +0.058 A 
ATOM     22  C   UNL     1      -4.998   2.245  -1.502  0.00  0.00    +0.016 C 
ATOM     23  C   UNL     1      -0.986   1.188   0.087  0.00  0.00    +0.015 A 
ATOM     26  C   UNL     1       1.369   0.749   0.093  0.00  0.00    +0.165 A 
ATOM     27  C   UNL     1       3.719  -0.042   0.062  0.00  0.00    +0.250 C 
ATOM     35  H   UNL     1       2.988   1.927   0.151  0.00  0.00    +0.157 HD
ENDROOT
BRANCH  27  28
ATOM      1 CL   UNL     1       8.708  -0.621  -1.169  0.00  0.00    -0.062 Cl
ATOM     10  N   UNL     1       7.717   1.397   0.122  0.00  0.00    -0.244 NA
ATOM     28  C   UNL     1       5.119   0.461   0.083  0.00  0.00    +0.041 A 
ATOM     29  C   UNL     1       6.104  -0.289  -0.511  0.00  0.00    +0.053 A 
ATOM     30  C   UNL     1       5.384   1.663   0.695  0.00  0.00    +0.033 A 
ATOM     31  C   UNL     1       7.391   0.223  -0.465  0.00  0.00    +0.130 A 
ATOM     32  C   UNL     1       6.702   2.088   0.688  0.00  0.00    +0.113 A 
ENDBRANCH  27  28
BRANCH  16   3
ATOM      3  O   UNL     1      -7.156   0.313  -0.840  0.00  0.00    -0.391 OA
ATOM     33  H   UNL     1      -7.343   0.897  -1.594  0.00  0.00    +0.210 HD
ENDBRANCH  16   3
BRANCH  13  21
ATOM     21  C   UNL     1      -5.400   1.733   0.880  0.00  0.00    +0.165 C 
BRANCH  21   4
ATOM      4  O   UNL     1      -6.737   2.129   0.667  0.00  0.00    -0.394 OA
ATOM     34  H   UNL     1      -6.731   3.033   0.311  0.00  0.00    +0.209 HD
ENDBRANCH  21   4
ENDBRANCH  13  21
BRANCH  14  24
ATOM     24  C   UNL     1      -1.159  -2.528   0.620  0.00  0.00    +0.130 C 
BRANCH  24  25
ATOM      6  O   UNL     1       0.503  -2.913  -1.121  0.00  0.00    -0.251 OA
ATOM     25  C   UNL     1       0.129  -3.032   0.036  0.00  0.00    +0.305 C 
BRANCH  25   5
ATOM      5  O   UNL     1       0.849  -3.659   1.002  0.00  0.00    -0.481 OA
ATOM     36  H   UNL     1       1.702  -4.002   0.658  0.00  0.00    +0.295 HD
ENDBRANCH  25   5
ENDBRANCH  24  25
ENDBRANCH  14  24
TORSDOF 7
