REMARK  Name = 26763244
REMARK  4 active torsions:
REMARK  status: ('A' for Active; 'I' for Inactive)
REMARK    1  A    between atoms: C_10  and  C_18
REMARK    2  A    between atoms: C_15  and  C_22
REMARK    3  A    between atoms: C_17  and  C_23
REMARK    4  A    between atoms: C_25  and  C_26
REMARK                            x       y       z     vdW  Elec       q    Type
REMARK                         _______ _______ _______ _____ _____    ______ ____
ROOT
ATOM      1  S   UNL     1      -1.085  -2.248   0.240  0.00  0.00    -0.057 S 
ATOM      4  O   UNL     1       4.523   1.782   0.277  0.00  0.00    -0.461 OA
ATOM      5  O   UNL     1       6.431   3.025   0.602  0.00  0.00    -0.251 OA
ATOM      6  O   UNL     1      -3.472   1.758  -0.160  0.00  0.00    -0.270 OA
ATOM      7  N   UNL     1      -0.834   0.307  -0.070  0.00  0.00    -0.229 NA
ATOM      8  N   UNL     1      -3.079  -0.551   0.105  0.00  0.00    -0.261 N 
ATOM      9  C   UNL     1       2.960  -0.189   0.127  0.00  0.00    +0.045 C 
ATOM     10  C   UNL     1       2.921  -1.656  -0.487  0.00  0.00    -0.021 C 
ATOM     11  C   UNL     1       4.265   0.503  -0.303  0.00  0.00    +0.184 C 
ATOM     12  C   UNL     1       5.464  -0.299   0.168  0.00  0.00    +0.044 C 
ATOM     13  C   UNL     1       4.234  -2.429  -0.151  0.00  0.00    +0.008 C 
ATOM     14  C   UNL     1       5.518  -1.660  -0.496  0.00  0.00    +0.008 C 
ATOM     15  C   UNL     1       1.663   0.636  -0.195  0.00  0.00    +0.043 C 
ATOM     16  C   UNL     1       1.724  -2.438   0.137  0.00  0.00    +0.051 C 
ATOM     17  C   UNL     1       6.584   0.688  -0.105  0.00  0.00    +0.101 C 
ATOM     18  C   UNL     1       2.756  -1.642  -2.030  0.00  0.00    +0.012 C 
ATOM     19  C   UNL     1       0.439  -0.233  -0.033  0.00  0.00    +0.057 A 
ATOM     20  C   UNL     1       0.487  -1.606   0.104  0.00  0.00    +0.015 A 
ATOM     21  C   UNL     1       5.888   1.973   0.302  0.00  0.00    +0.311 C 
ATOM     22  C   UNL     1       1.539   1.897   0.671  0.00  0.00    +0.014 C 
ATOM     23  C   UNL     1       7.834   0.416   0.709  0.00  0.00    +0.019 C 
ATOM     24  C   UNL     1      -1.714  -0.659   0.074  0.00  0.00    +0.165 A 
ATOM     25  C   UNL     1      -3.881   0.611  -0.009  0.00  0.00    +0.255 C 
ATOM     32  H   UNL     1      -3.553  -1.445   0.209  0.00  0.00    +0.157 HD
ENDROOT
BRANCH  25  26
ATOM      2  F   UNL     1      -5.076  -1.500   1.431  0.00  0.00    -0.205 F 
ATOM      3  F   UNL     1      -5.701   2.292  -1.360  0.00  0.00    -0.205 F 
ATOM     26  C   UNL     1      -5.351   0.401   0.035  0.00  0.00    +0.107 A 
ATOM     27  C   UNL     1      -5.883  -0.662   0.765  0.00  0.00    +0.138 A 
ATOM     28  C   UNL     1      -6.201   1.267  -0.655  0.00  0.00    +0.138 A 
ATOM     29  C   UNL     1      -7.263  -0.859   0.806  0.00  0.00    +0.039 A 
ATOM     30  C   UNL     1      -7.581   1.070  -0.613  0.00  0.00    +0.039 A 
ATOM     31  C   UNL     1      -8.112   0.007   0.117  0.00  0.00    +0.006 A 
ENDBRANCH  25  26
TORSDOF 1
