REMARK  Name = 75536681
REMARK  8 active torsions:
REMARK  status: ('A' for Active; 'I' for Inactive)
REMARK    1  A    between atoms: S_1  and  N_7
REMARK    2  A    between atoms: S_1  and  C_16
REMARK    3  A    between atoms: O_3  and  C_10
REMARK    4  A    between atoms: N_6  and  C_9
REMARK    5  A    between atoms: N_6  and  C_14
REMARK    6  A    between atoms: N_7  and  C_13
REMARK    7  A    between atoms: C_11  and  C_13
REMARK    8  A    between atoms: C_14  and  C_15
REMARK                            x       y       z     vdW  Elec       q    Type
REMARK                         _______ _______ _______ _____ _____    ______ ____
ROOT
ATOM      2  O   UNL     1       0.120  -1.246   1.393  0.00  0.00    -0.371 OA
ATOM      9  C   UNL     1      -1.842  -1.061   0.067  0.00  0.00    +0.111 C 
ATOM     10  C   UNL     1      -0.641  -0.651  -0.766  0.00  0.00    +0.164 C 
ATOM     11  C   UNL     1       0.492  -1.314   0.006  0.00  0.00    +0.164 C 
ATOM     12  C   UNL     1      -1.284  -0.945   1.476  0.00  0.00    +0.181 C 
ENDROOT
BRANCH  10   3
ATOM      3  O   UNL     1      -0.715  -1.118  -2.099  0.00  0.00    -0.388 OA
ATOM     28  H   UNL     1      -0.819  -2.085  -2.079  0.00  0.00    +0.210 HD
ENDBRANCH  10   3
BRANCH   9   6
ATOM      6  N   UNL     1      -3.013  -0.227  -0.149  0.00  0.00    -0.303 NA
ATOM     26  H   UNL     1      -3.144  -0.088  -1.151  0.00  0.00    +0.123 HD
BRANCH   6  14
ATOM     14  C   UNL     1      -4.210  -0.852   0.401  0.00  0.00    +0.137 C 
BRANCH  14  15
ATOM      8  N   UNL     1      -6.284  -0.371  -0.778  0.00  0.00    -0.259 NA
ATOM     15  C   UNL     1      -5.432   0.006   0.202  0.00  0.00    +0.055 A 
ATOM     17  C   UNL     1      -5.623   1.113   1.012  0.00  0.00    +0.024 A 
ATOM     20  C   UNL     1      -6.761   1.884   0.804  0.00  0.00    +0.003 A 
ATOM     23  C   UNL     1      -7.379   0.402  -0.951  0.00  0.00    +0.111 A 
ATOM     24  C   UNL     1      -7.661   1.528  -0.195  0.00  0.00    +0.020 A 
ENDBRANCH  14  15
ENDBRANCH   6  14
ENDBRANCH   9   6
BRANCH  11  13
ATOM     13  C   UNL     1       1.835  -0.637  -0.200  0.00  0.00    +0.140 C 
BRANCH  13   7
ATOM      7  N   UNL     1       2.870  -1.343   0.582  0.00  0.00    -0.187 NA
ATOM     27  H   UNL     1       2.702  -1.401   1.594  0.00  0.00    +0.148 HD
BRANCH   7   1
ATOM      1  S   UNL     1       4.476  -1.389   0.024  0.00  0.00    +0.058 S 
ATOM      4  O   UNL     1       4.499  -1.905  -1.332  0.00  0.00    -0.153 OA
ATOM      5  O   UNL     1       5.314  -1.987   1.046  0.00  0.00    -0.153 OA
BRANCH   1  16
ATOM     16  C   UNL     1       4.886   0.329  -0.041  0.00  0.00    +0.105 A 
ATOM     18  C   UNL     1       5.443   0.955   1.074  0.00  0.00    +0.028 A 
ATOM     19  C   UNL     1       4.650   1.059  -1.205  0.00  0.00    +0.028 A 
ATOM     21  C   UNL     1       5.764   2.312   1.025  0.00  0.00    +0.002 A 
ATOM     22  C   UNL     1       4.970   2.416  -1.255  0.00  0.00    +0.002 A 
ATOM     25  C   UNL     1       5.527   3.042  -0.140  0.00  0.00    +0.000 A 
ENDBRANCH   1  16
ENDBRANCH   7   1
ENDBRANCH  13   7
ENDBRANCH  11  13
TORSDOF 8
