REMARK  Name = 40779421
REMARK  8 active torsions:
REMARK  status: ('A' for Active; 'I' for Inactive)
REMARK    1  A    between atoms: O_2  and  C_25
REMARK    2  A    between atoms: O_2  and  C_26
REMARK    3  A    between atoms: N_4  and  C_23
REMARK    4  A    between atoms: N_5  and  C_15
REMARK    5  A    between atoms: C_8  and  C_14
REMARK    6  A    between atoms: C_9  and  C_15
REMARK    7  A    between atoms: C_17  and  C_18
REMARK    8  A    between atoms: C_24  and  C_25
REMARK                            x       y       z     vdW  Elec       q    Type
REMARK                         _______ _______ _______ _____ _____    ______ ____
ROOT
ATOM      3  N   UNL     1       1.011   3.263  -0.454  0.00  0.00    -0.297 NA
ATOM      7  C   UNL     1       1.697   1.843   1.618  0.00  0.00    +0.002 C 
ATOM      8  C   UNL     1       2.884   1.959   0.622  0.00  0.00    +0.055 C 
ATOM      9  C   UNL     1      -0.009   2.212  -0.198  0.00  0.00    +0.074 C 
ATOM     10  C   UNL     1       0.479   1.234   0.892  0.00  0.00    +0.024 C 
ATOM     11  C   UNL     1       2.341   2.639  -0.667  0.00  0.00    +0.094 C 
ATOM     12  C   UNL     1       1.312   3.282   2.022  0.00  0.00    +0.019 C 
ATOM     13  C   UNL     1       1.091   4.122   0.751  0.00  0.00    +0.085 C 
ENDROOT
BRANCH   8  14
ATOM      4  N   UNL     1       5.017   0.733  -0.001  0.00  0.00    -0.271 N 
ATOM      6  N   UNL     1       5.546  -0.480  -0.235  0.00  0.00    -0.176 NA
ATOM     14  C   UNL     1       3.691   0.705   0.317  0.00  0.00    +0.044 A 
ATOM     16  C   UNL     1       3.326  -0.619   0.288  0.00  0.00    +0.048 A 
ATOM     18  C   UNL     1       4.508  -1.302  -0.057  0.00  0.00    +0.066 A 
ATOM     23  C   UNL     1       5.861   1.901  -0.103  0.00  0.00    +0.172 C 
BRANCH  18  17
ATOM     17  C   UNL     1       4.692  -2.793  -0.231  0.00  0.00    +0.040 C 
ATOM     19  C   UNL     1       4.383  -3.580   1.055  0.00  0.00    +0.010 C 
ATOM     20  C   UNL     1       3.808  -3.422  -1.328  0.00  0.00    +0.010 C 
ATOM     21  C   UNL     1       3.749  -4.876   0.573  0.00  0.00    +0.001 C 
ATOM     22  C   UNL     1       2.913  -4.428  -0.612  0.00  0.00    +0.001 C 
ENDBRANCH  18  17
ENDBRANCH   8  14
BRANCH   9  15
ATOM     15  C   UNL     1      -0.425   1.480  -1.476  0.00  0.00    +0.123 C 
BRANCH  15   5
ATOM      1  O   UNL     1      -3.265   2.010  -1.601  0.00  0.00    -0.272 OA
ATOM      5  N   UNL     1      -1.487   0.559  -1.214  0.00  0.00    -0.311 N 
ATOM     24  C   UNL     1      -2.836   0.900  -1.298  0.00  0.00    +0.251 C 
ATOM     32  H   UNL     1      -1.238  -0.391  -0.951  0.00  0.00    +0.149 HD
BRANCH  24  25
ATOM     25  C   UNL     1      -3.743  -0.268  -0.970  0.00  0.00    +0.324 C 
BRANCH  25   2
ATOM      2  O   UNL     1      -5.099   0.109  -1.077  0.00  0.00    -0.483 OA
BRANCH   2  26
ATOM     26  C   UNL     1      -5.997  -0.539  -0.263  0.00  0.00    +0.121 A 
ATOM     27  C   UNL     1      -5.756  -1.855   0.133  0.00  0.00    +0.045 A 
ATOM     28  C   UNL     1      -7.148   0.119   0.169  0.00  0.00    +0.045 A 
ATOM     29  C   UNL     1      -6.667  -2.513   0.959  0.00  0.00    +0.004 A 
ATOM     30  C   UNL     1      -8.059  -0.539   0.996  0.00  0.00    +0.004 A 
ATOM     31  C   UNL     1      -7.818  -1.855   1.391  0.00  0.00    +0.000 A 
ENDBRANCH   2  26
ENDBRANCH  25   2
ENDBRANCH  24  25
ENDBRANCH  15   5
ENDBRANCH   9  15
TORSDOF 7
