REMARK  Name = 23757048
REMARK  13 active torsions:
REMARK  status: ('A' for Active; 'I' for Inactive)
REMARK    1  A    between atoms: O_1  and  C_16
REMARK    2  A    between atoms: O_1  and  C_25
REMARK    3  A    between atoms: O_2  and  C_17
REMARK    4  A    between atoms: O_3  and  C_21
REMARK    5  A    between atoms: O_6  and  C_28
REMARK    6  A    between atoms: O_7  and  C_35
REMARK    7  A    between atoms: O_7  and  C_36
REMARK    8  A    between atoms: N_9  and  C_30
REMARK    9  A    between atoms: C_10  and  C_20
REMARK   10  A    between atoms: C_12  and  C_21
REMARK   11  A    between atoms: C_12  and  C_23
REMARK   12  A    between atoms: C_13  and  C_22
REMARK   13  A    between atoms: C_22  and  C_24
REMARK                            x       y       z     vdW  Elec       q    Type
REMARK                         _______ _______ _______ _____ _____    ______ ____
ROOT
ATOM     10  C   UNL     1      -2.543  -1.015  -0.272  0.00  0.00    -0.023 C 
ATOM     11  C   UNL     1      -3.290  -2.396  -0.227  0.00  0.00    +0.007 C 
ATOM     12  C   UNL     1      -2.382  -3.662   0.053  0.00  0.00    +0.031 C 
ATOM     13  C   UNL     1      -3.576   0.092  -0.741  0.00  0.00    +0.032 C 
ATOM     14  C   UNL     1      -1.382  -1.093  -1.318  0.00  0.00    +0.011 C 
ATOM     15  C   UNL     1      -4.559  -2.337   0.650  0.00  0.00    +0.007 C 
ATOM     16  C   UNL     1      -0.964  -3.500  -0.584  0.00  0.00    +0.186 C 
ATOM     17  C   UNL     1      -4.893   0.113   0.071  0.00  0.00    +0.119 C 
ATOM     18  C   UNL     1      -0.969  -2.507  -1.739  0.00  0.00    +0.046 C 
ATOM     19  C   UNL     1      -5.532  -1.269   0.154  0.00  0.00    +0.032 C 
ATOM     20  C   UNL     1      -1.936  -0.633   1.100  0.00  0.00    +0.012 C 
ATOM     23  C   UNL     1      -3.053  -4.878  -0.652  0.00  0.00    +0.017 C 
ENDROOT
BRANCH  17   2
ATOM      2  O   UNL     1      -4.705   0.600   1.395  0.00  0.00    -0.391 OA
ATOM     42  H   UNL     1      -5.577   0.637   1.825  0.00  0.00    +0.210 HD
ENDBRANCH  17   2
BRANCH  16   1
ATOM      1  O   UNL     1       0.027  -3.074   0.348  0.00  0.00    -0.446 OA
BRANCH   1  25
ATOM      5  O   UNL     1       1.743  -3.576  -1.077  0.00  0.00    -0.226 OA
ATOM      9  N   UNL     1       1.939  -1.929   0.575  0.00  0.00    -0.251 N 
ATOM     25  C   UNL     1       1.297  -2.918  -0.145  0.00  0.00    +0.405 C 
ATOM     44  H   UNL     1       1.399  -1.493   1.318  0.00  0.00    +0.158 HD
BRANCH   9  30
ATOM     30  C   UNL     1       3.257  -1.446   0.406  0.00  0.00    +0.037 A 
ATOM     31  C   UNL     1       3.723  -0.439   1.236  0.00  0.00    +0.027 A 
ATOM     32  C   UNL     1       4.057  -1.988  -0.588  0.00  0.00    +0.027 A 
ATOM     33  C   UNL     1       5.023   0.039   1.068  0.00  0.00    +0.048 A 
ATOM     34  C   UNL     1       5.356  -1.511  -0.755  0.00  0.00    +0.048 A 
ATOM     35  C   UNL     1       5.840  -0.497   0.073  0.00  0.00    +0.129 A 
BRANCH  35   7
ATOM      7  O   UNL     1       7.108  -0.033  -0.090  0.00  0.00    -0.456 OA
BRANCH   7  36
ATOM     36  C   UNL     1       7.299   1.339  -0.070  0.00  0.00    +0.128 A 
ATOM     37  C   UNL     1       6.436   2.149  -0.785  0.00  0.00    +0.046 A 
ATOM     38  C   UNL     1       8.349   1.862   0.663  0.00  0.00    +0.046 A 
ATOM     39  C   UNL     1       6.629   3.531  -0.766  0.00  0.00    +0.004 A 
ATOM     40  C   UNL     1       8.542   3.244   0.682  0.00  0.00    +0.004 A 
ATOM     41  C   UNL     1       7.682   4.078  -0.032  0.00  0.00    +0.000 A 
ENDBRANCH   7  36
ENDBRANCH  35   7
ENDBRANCH   9  30
ENDBRANCH   1  25
ENDBRANCH  16   1
BRANCH  12  21
ATOM     21  C   UNL     1      -2.293  -4.033   1.549  0.00  0.00    +0.166 C 
BRANCH  21   3
ATOM      3  O   UNL     1      -1.471  -5.173   1.664  0.00  0.00    -0.394 OA
ATOM     43  H   UNL     1      -1.424  -5.402   2.608  0.00  0.00    +0.209 HD
ENDBRANCH  21   3
ENDBRANCH  12  21
BRANCH  13  22
ATOM     22  C   UNL     1      -2.984   1.509  -0.835  0.00  0.00    +0.102 C 
BRANCH  22  24
ATOM      4  O   UNL     1      -4.520   2.279  -2.485  0.00  0.00    -0.276 OA
ATOM      8  N   UNL     1      -4.362   3.509  -0.535  0.00  0.00    -0.299 N 
ATOM     24  C   UNL     1      -4.024   2.460  -1.372  0.00  0.00    +0.216 C 
ATOM     26  C   UNL     1      -3.816   3.776   0.795  0.00  0.00    +0.139 C 
ATOM     27  C   UNL     1      -5.354   4.507  -0.907  0.00  0.00    +0.110 C 
ATOM     28  C   UNL     1      -4.700   4.883   1.357  0.00  0.00    +0.133 C 
ATOM     29  C   UNL     1      -5.174   5.624   0.112  0.00  0.00    +0.052 C 
BRANCH  28   6
ATOM      6  O   UNL     1      -5.825   4.318   2.022  0.00  0.00    -0.390 OA
ATOM     45  H   UNL     1      -6.388   5.053   2.318  0.00  0.00    +0.210 HD
ENDBRANCH  28   6
ENDBRANCH  22  24
ENDBRANCH  13  22
TORSDOF 11
