REMARK  Name = 40533465
REMARK  2 active torsions:
REMARK  status: ('A' for Active; 'I' for Inactive)
REMARK    1  A    between atoms: N_5  and  C_20
REMARK    2  A    between atoms: C_17  and  C_19
REMARK                            x       y       z     vdW  Elec       q    Type
REMARK                         _______ _______ _______ _____ _____    ______ ____
ROOT
ATOM      1  O   UNL     1      -1.628  -0.126   1.982  0.00  0.00    -0.267 OA
ATOM      2  O   UNL     1       2.490  -0.141  -2.110  0.00  0.00    -0.252 OA
ATOM      3  N   UNL     1       2.485  -1.718  -0.417  0.00  0.00    -0.284 N 
ATOM      4  N   UNL     1      -0.500  -1.730   0.720  0.00  0.00    -0.311 N 
ATOM      5  N   UNL     1       3.285   0.465  -0.017  0.00  0.00    -0.269 N 
ATOM      7  C   UNL     1       1.585  -2.940   1.578  0.00  0.00    +0.027 C 
ATOM      8  C   UNL     1       0.714  -3.451  -0.662  0.00  0.00    +0.054 C 
ATOM      9  C   UNL     1       1.140  -4.075   0.665  0.00  0.00    +0.018 C 
ATOM     10  C   UNL     1       2.763  -2.160   0.959  0.00  0.00    +0.114 C 
ATOM     11  C   UNL     1       0.381  -2.032   1.856  0.00  0.00    +0.130 C 
ATOM     12  C   UNL     1       1.925  -2.749  -1.300  0.00  0.00    +0.119 C 
ATOM     13  C   UNL     1      -0.415  -2.456  -0.470  0.00  0.00    +0.027 A 
ATOM     14  C   UNL     1      -1.308  -2.248  -1.450  0.00  0.00    +0.022 A 
ATOM     15  C   UNL     1      -1.497  -0.759   0.933  0.00  0.00    +0.259 A 
ATOM     16  C   UNL     1       2.732  -0.427  -0.935  0.00  0.00    +0.306 C 
ATOM     17  C   UNL     1      -2.459  -0.519  -0.200  0.00  0.00    +0.048 A 
ATOM     18  C   UNL     1      -2.340  -1.260  -1.312  0.00  0.00    +0.015 A 
ATOM     30  H   UNL     1       3.887   0.091   0.709  0.00  0.00    +0.156 HD
ENDROOT
BRANCH  17  19
ATOM      6  N   UNL     1      -5.858   1.075  -0.137  0.00  0.00    -0.263 NA
ATOM     19  C   UNL     1      -3.507   0.512  -0.106  0.00  0.00    +0.005 A 
ATOM     21  C   UNL     1      -3.181   1.850   0.094  0.00  0.00    +0.011 A 
ATOM     22  C   UNL     1      -4.847   0.180  -0.213  0.00  0.00    +0.119 A 
ATOM     25  C   UNL     1      -4.193   2.800   0.178  0.00  0.00    +0.020 A 
ATOM     26  C   UNL     1      -5.503   2.366   0.058  0.00  0.00    +0.111 A 
ENDBRANCH  17  19
BRANCH   5  20
ATOM     20  C   UNL     1       3.119   1.872   0.017  0.00  0.00    +0.035 A 
ATOM     23  C   UNL     1       3.815   2.633   0.956  0.00  0.00    +0.023 A 
ATOM     24  C   UNL     1       2.260   2.495  -0.888  0.00  0.00    +0.023 A 
ATOM     27  C   UNL     1       3.651   4.018   0.990  0.00  0.00    +0.002 A 
ATOM     28  C   UNL     1       2.096   3.880  -0.854  0.00  0.00    +0.002 A 
ATOM     29  C   UNL     1       2.792   4.641   0.085  0.00  0.00    +0.000 A 
ENDBRANCH   5  20
TORSDOF 2
