REMARK  Name = 11913297
REMARK  7 active torsions:
REMARK  status: ('A' for Active; 'I' for Inactive)
REMARK    1  A    between atoms: O_5  and  C_24
REMARK    2  A    between atoms: N_7  and  C_13
REMARK    3  A    between atoms: N_8  and  C_14
REMARK    4  A    between atoms: C_17  and  C_19
REMARK    5  A    between atoms: C_19  and  C_20
REMARK    6  A    between atoms: C_20  and  C_24
REMARK    7  A    between atoms: C_21  and  C_25
REMARK                            x       y       z     vdW  Elec       q    Type
REMARK                         _______ _______ _______ _____ _____    ______ ____
ROOT
ATOM      1  O   UNL     1      -0.264   0.788   1.741  0.00  0.00    -0.370 OA
ATOM      2  O   UNL     1      -0.602   3.472   0.184  0.00  0.00    -0.370 OA
ATOM     11  C   UNL     1      -0.995   2.117  -0.092  0.00  0.00    +0.171 C 
ATOM     12  C   UNL     1       0.109   1.213   0.419  0.00  0.00    +0.171 C 
ATOM     13  C   UNL     1      -2.197   1.739   0.743  0.00  0.00    +0.130 C 
ATOM     14  C   UNL     1       1.323   2.111   0.480  0.00  0.00    +0.130 C 
ATOM     15  C   UNL     1      -1.560   1.319   2.056  0.00  0.00    +0.185 C 
ATOM     16  C   UNL     1       0.715   3.474   0.756  0.00  0.00    +0.185 C 
ENDROOT
BRANCH  14   8
ATOM      8  N   UNL     1       2.001   2.114  -0.797  0.00  0.00    -0.306 N 
ATOM      9  N   UNL     1       3.223   0.179  -0.278  0.00  0.00    -0.211 NA
ATOM     10  N   UNL     1       3.497   1.283  -2.402  0.00  0.00    -0.223 NA
ATOM     18  C   UNL     1       2.935   1.164  -1.170  0.00  0.00    +0.216 A 
ATOM     21  C   UNL     1       4.138  -0.730  -0.675  0.00  0.00    +0.111 A 
ATOM     22  C   UNL     1       4.403   0.340  -2.734  0.00  0.00    +0.116 A 
ATOM     23  C   UNL     1       4.766  -0.700  -1.903  0.00  0.00    +0.051 A 
ATOM     30  H   UNL     1       1.755   2.812  -1.490  0.00  0.00    +0.149 HD
BRANCH  21  25
ATOM      4  O   UNL     1       3.734  -1.666   1.456  0.00  0.00    -0.461 OA
ATOM     25  C   UNL     1       4.422  -1.758   0.290  0.00  0.00    +0.153 A 
ATOM     26  C   UNL     1       5.259  -2.847   0.304  0.00  0.00    +0.051 A 
ATOM     27  C   UNL     1       5.073  -3.467   1.562  0.00  0.00    +0.042 A 
ATOM     28  C   UNL     1       4.136  -2.711   2.226  0.00  0.00    +0.196 A 
ENDBRANCH  21  25
ENDBRANCH  14   8
BRANCH  13   7
ATOM      3  O   UNL     1      -5.000   1.109   1.089  0.00  0.00    -0.276 OA
ATOM      7  N   UNL     1      -2.927   0.648   0.144  0.00  0.00    -0.308 N 
ATOM     17  C   UNL     1      -4.279   0.424   0.369  0.00  0.00    +0.214 C 
ATOM     29  H   UNL     1      -2.412  -0.014  -0.429  0.00  0.00    +0.149 HD
BRANCH  17  19
ATOM     19  C   UNL     1      -4.779  -0.793  -0.389  0.00  0.00    +0.107 C 
BRANCH  19  20
ATOM     20  C   UNL     1      -6.263  -1.058  -0.155  0.00  0.00    +0.129 C 
BRANCH  20  24
ATOM      6  O   UNL     1      -6.060  -2.973  -1.643  0.00  0.00    -0.251 OA
ATOM     24  C   UNL     1      -6.745  -2.275  -0.908  0.00  0.00    +0.305 C 
BRANCH  24   5
ATOM      5  O   UNL     1      -8.062  -2.515  -0.671  0.00  0.00    -0.481 OA
ATOM     31  H   UNL     1      -8.382  -3.305  -1.157  0.00  0.00    +0.295 HD
ENDBRANCH  24   5
ENDBRANCH  20  24
ENDBRANCH  19  20
ENDBRANCH  17  19
ENDBRANCH  13   7
TORSDOF 7
