REMARK  Name = 26761815
REMARK  7 active torsions:
REMARK  status: ('A' for Active; 'I' for Inactive)
REMARK    1  A    between atoms: O_1  and  C_14
REMARK    2  A    between atoms: O_1  and  C_22
REMARK    3  A    between atoms: O_3  and  C_23
REMARK    4  A    between atoms: N_5  and  C_13
REMARK    5  A    between atoms: C_8  and  C_14
REMARK    6  A    between atoms: C_13  and  C_15
REMARK    7  A    between atoms: C_21  and  C_23
REMARK                            x       y       z     vdW  Elec       q    Type
REMARK                         _______ _______ _______ _____ _____    ______ ____
ROOT
ATOM      5  N   UNL     1       0.975   0.079  -0.791  0.00  0.00    -0.280 NA
ATOM      6  N   UNL     1       4.479  -1.257  -1.074  0.00  0.00    -0.347 N 
ATOM      7  N   UNL     1       4.389  -1.433   1.154  0.00  0.00    -0.240 NA
ATOM      8  C   UNL     1       1.149   0.508   0.623  0.00  0.00    +0.173 C 
ATOM      9  C   UNL     1       2.120  -0.345   1.488  0.00  0.00    +0.087 C 
ATOM     10  C   UNL     1       2.256  -0.074  -1.533  0.00  0.00    +0.140 C 
ATOM     11  C   UNL     1       3.296  -0.703  -0.690  0.00  0.00    +0.053 A 
ATOM     12  C   UNL     1       3.266  -0.818   0.677  0.00  0.00    +0.065 A 
ATOM     16  C   UNL     1       5.102  -1.684   0.073  0.00  0.00    +0.197 A 
ATOM     24  H   UNL     1       4.836  -1.339  -2.017  0.00  0.00    +0.167 HD
ENDROOT
BRANCH   8  14
ATOM      2  O   UNL     1       2.607   2.363   1.126  0.00  0.00    -0.249 OA
ATOM     14  C   UNL     1       1.587   1.946   0.593  0.00  0.00    +0.325 C 
BRANCH  14   1
ATOM      1  O   UNL     1       0.681   2.684  -0.108  0.00  0.00    -0.467 OA
ATOM     22  C   UNL     1       0.977   4.081  -0.216  0.00  0.00    +0.280 C 
ENDBRANCH  14   1
ENDBRANCH   8  14
BRANCH   5  13
ATOM     13  C   UNL     1       0.171  -1.143  -0.870  0.00  0.00    +0.120 C 
BRANCH  13  15
ATOM     15  C   UNL     1      -1.280  -0.881  -0.568  0.00  0.00    -0.033 A 
ATOM     17  C   UNL     1      -2.000   0.030  -1.342  0.00  0.00    +0.006 A 
ATOM     18  C   UNL     1      -1.906  -1.549   0.484  0.00  0.00    +0.006 A 
ATOM     19  C   UNL     1      -3.345   0.273  -1.063  0.00  0.00    +0.015 A 
ATOM     20  C   UNL     1      -3.251  -1.306   0.764  0.00  0.00    +0.015 A 
ATOM     21  C   UNL     1      -3.970  -0.395  -0.010  0.00  0.00    +0.059 A 
BRANCH  21  23
ATOM      4  O   UNL     1      -6.103   0.640  -0.336  0.00  0.00    -0.245 OA
ATOM     23  C   UNL     1      -5.373  -0.142   0.282  0.00  0.00    +0.337 C 
BRANCH  23   3
ATOM      3  O   UNL     1      -5.825  -0.874   1.337  0.00  0.00    -0.477 OA
ATOM     25  H   UNL     1      -6.772  -0.696   1.525  0.00  0.00    +0.295 HD
ENDBRANCH  23   3
ENDBRANCH  21  23
ENDBRANCH  13  15
ENDBRANCH   5  13
TORSDOF 6
