REMARK  Name = 51136913
REMARK  5 active torsions:
REMARK  status: ('A' for Active; 'I' for Inactive)
REMARK    1  A    between atoms: N_2  and  C_13
REMARK    2  A    between atoms: C_9  and  C_14
REMARK    3  A    between atoms: C_13  and  C_15
REMARK    4  A    between atoms: C_16  and  C_19
REMARK    5  A    between atoms: C_25  and  C_26
REMARK                            x       y       z     vdW  Elec       q    Type
REMARK                         _______ _______ _______ _____ _____    ______ ____
ROOT
ATOM      1  O   UNL     1      -2.306  -0.419   2.019  0.00  0.00    -0.336 OA
ATOM      3  N   UNL     1      -1.364  -1.136   0.117  0.00  0.00    -0.190 NA
ATOM      4  N   UNL     1      -0.940  -0.128   2.127  0.00  0.00    -0.056 NA
ATOM     14  C   UNL     1      -2.470  -1.012   0.807  0.00  0.00    +0.245 A 
ATOM     16  C   UNL     1      -0.453  -0.580   0.967  0.00  0.00    +0.204 A 
ENDROOT
BRANCH  16  19
ATOM      6  N   UNL     1       3.175   0.189   1.242  0.00  0.00    -0.254 NA
ATOM     19  C   UNL     1       0.938  -0.492   0.628  0.00  0.00    +0.041 A 
ATOM     22  C   UNL     1       1.410  -0.974  -0.587  0.00  0.00    +0.015 A 
ATOM     23  C   UNL     1       1.852   0.076   1.500  0.00  0.00    +0.123 A 
ATOM     24  C   UNL     1       2.764  -0.876  -0.889  0.00  0.00    +0.029 A 
ATOM     25  C   UNL     1       3.597  -0.291   0.051  0.00  0.00    +0.074 A 
BRANCH  25  26
ATOM      7  N   UNL     1       6.845   0.122  -1.731  0.00  0.00    -0.243 NA
ATOM      8  N   UNL     1       7.271  -0.050   0.635  0.00  0.00    -0.243 NA
ATOM     26  C   UNL     1       5.013  -0.155  -0.194  0.00  0.00    +0.037 A 
ATOM     27  C   UNL     1       5.528  -0.005  -1.465  0.00  0.00    +0.124 A 
ATOM     28  C   UNL     1       5.941  -0.171   0.828  0.00  0.00    +0.124 A 
ATOM     29  C   UNL     1       7.648   0.091  -0.650  0.00  0.00    +0.221 A 
ENDBRANCH  25  26
ENDBRANCH  16  19
BRANCH  14   9
ATOM      2  N   UNL     1      -4.348  -0.814  -0.813  0.00  0.00    -0.287 NA
ATOM      9  C   UNL     1      -3.880  -1.429   0.445  0.00  0.00    +0.146 C 
ATOM     10  C   UNL     1      -4.010  -2.945   0.212  0.00  0.00    +0.030 C 
ATOM     11  C   UNL     1      -4.615  -3.084  -1.178  0.00  0.00    +0.017 C 
ATOM     12  C   UNL     1      -5.305  -1.753  -1.401  0.00  0.00    +0.085 C 
BRANCH   2  13
ATOM     13  C   UNL     1      -4.925   0.511  -0.626  0.00  0.00    +0.121 C 
BRANCH  13  15
ATOM      5  N   UNL     1      -2.860   3.333   0.825  0.00  0.00    -0.263 NA
ATOM     15  C   UNL     1      -3.863   1.570  -0.491  0.00  0.00    -0.015 A 
ATOM     17  C   UNL     1      -2.928   1.780  -1.498  0.00  0.00    +0.008 A 
ATOM     18  C   UNL     1      -3.787   2.366   0.641  0.00  0.00    +0.115 A 
ATOM     20  C   UNL     1      -1.960   2.766  -1.346  0.00  0.00    +0.020 A 
ATOM     21  C   UNL     1      -1.968   3.508  -0.176  0.00  0.00    +0.111 A 
ENDBRANCH  13  15
ENDBRANCH   2  13
ENDBRANCH  14   9
TORSDOF 5
