REMARK  Name = 11884086
REMARK  8 active torsions:
REMARK  status: ('A' for Active; 'I' for Inactive)
REMARK    1  A    between atoms: O_3  and  C_12
REMARK    2  A    between atoms: O_3  and  C_16
REMARK    3  A    between atoms: N_7  and  C_11
REMARK    4  A    between atoms: N_8  and  C_18
REMARK    5  A    between atoms: C_15  and  C_17
REMARK    6  A    between atoms: C_20  and  C_21
REMARK    7  A    between atoms: C_20  and  C_28
REMARK    8  A    between atoms: C_20  and  C_29
REMARK                            x       y       z     vdW  Elec       q    Type
REMARK                         _______ _______ _______ _____ _____    ______ ____
ROOT
ATOM      1  O   UNL     1      -1.160   1.150   1.185  0.00  0.00    -0.368 OA
ATOM      2  O   UNL     1      -2.656   3.205  -0.531  0.00  0.00    -0.368 OA
ATOM      9  C   UNL     1      -2.719   1.764  -0.493  0.00  0.00    +0.173 C 
ATOM     10  C   UNL     1      -1.309   1.269  -0.240  0.00  0.00    +0.192 C 
ATOM     11  C   UNL     1      -3.487   1.310   0.726  0.00  0.00    +0.130 C 
ATOM     12  C   UNL     1      -0.465   2.389  -0.799  0.00  0.00    +0.235 C 
ATOM     13  C   UNL     1      -2.431   1.375   1.815  0.00  0.00    +0.185 C 
ATOM     14  C   UNL     1      -1.282   3.611  -0.448  0.00  0.00    +0.207 C 
ENDROOT
BRANCH  11   7
ATOM      4  O   UNL     1      -6.061   0.610  -0.193  0.00  0.00    -0.267 OA
ATOM      7  N   UNL     1      -3.987  -0.033   0.559  0.00  0.00    -0.301 N 
ATOM     15  C   UNL     1      -5.277  -0.295   0.098  0.00  0.00    +0.280 C 
ATOM     30  H   UNL     1      -3.359  -0.812   0.738  0.00  0.00    +0.150 HD
BRANCH  15  17
ATOM      6  O   UNL     1      -4.674  -2.595   0.273  0.00  0.00    -0.458 OA
ATOM     17  C   UNL     1      -5.628  -1.715  -0.051  0.00  0.00    +0.189 A 
ATOM     19  C   UNL     1      -6.774  -2.284  -0.466  0.00  0.00    +0.054 A 
ATOM     24  C   UNL     1      -6.526  -3.676  -0.401  0.00  0.00    +0.042 A 
ATOM     25  C   UNL     1      -5.235  -3.813   0.054  0.00  0.00    +0.196 A 
ENDBRANCH  15  17
ENDBRANCH  11   7
BRANCH  12   3
ATOM      3  O   UNL     1       0.833   2.442  -0.251  0.00  0.00    -0.442 OA
BRANCH   3  16
ATOM      5  O   UNL     1       1.291   0.378  -1.123  0.00  0.00    -0.226 OA
ATOM      8  N   UNL     1       2.878   1.567   0.120  0.00  0.00    -0.251 N 
ATOM     16  C   UNL     1       1.652   1.355  -0.479  0.00  0.00    +0.405 C 
ATOM     31  H   UNL     1       2.990   2.449   0.615  0.00  0.00    +0.158 HD
BRANCH   8  18
ATOM     18  C   UNL     1       4.001   0.709   0.132  0.00  0.00    +0.036 A 
ATOM     21  C   UNL     1       6.204  -0.974   0.154  0.00  0.00    -0.045 A 
ATOM     22  C   UNL     1       5.152   1.105   0.794  0.00  0.00    +0.024 A 
ATOM     23  C   UNL     1       3.930  -0.512  -0.520  0.00  0.00    +0.024 A 
ATOM     26  C   UNL     1       6.261   0.258   0.806  0.00  0.00    +0.006 A 
ATOM     27  C   UNL     1       5.038  -1.359  -0.509  0.00  0.00    +0.006 A 
BRANCH  21  20
ATOM     20  C   UNL     1       7.388  -1.880   0.166  0.00  0.00    +0.013 C 
ATOM     28  C   UNL     1       7.098  -3.220   0.868  0.00  0.00    +0.012 C 
ATOM     29  C   UNL     1       7.945  -2.140  -1.247  0.00  0.00    +0.012 C 
ENDBRANCH  21  20
ENDBRANCH   8  18
ENDBRANCH   3  16
ENDBRANCH  12   3
TORSDOF 6
