REMARK  Name = 11886046
REMARK  6 active torsions:
REMARK  status: ('A' for Active; 'I' for Inactive)
REMARK    1  A    between atoms: O_6  and  C_16
REMARK    2  A    between atoms: O_6  and  C_20
REMARK    3  A    between atoms: N_8  and  C_15
REMARK    4  A    between atoms: N_12  and  C_24
REMARK    5  A    between atoms: C_19  and  C_21
REMARK    6  A    between atoms: C_30  and  C_33
REMARK                            x       y       z     vdW  Elec       q    Type
REMARK                         _______ _______ _______ _____ _____    ______ ____
ROOT
ATOM      4  O   UNL     1      -0.646   0.065  -1.054  0.00  0.00    -0.368 OA
ATOM      5  O   UNL     1      -2.416  -2.180   0.123  0.00  0.00    -0.368 OA
ATOM     13  C   UNL     1      -2.385  -0.752   0.345  0.00  0.00    +0.177 C 
ATOM     14  C   UNL     1      -0.929  -0.334   0.297  0.00  0.00    +0.192 C 
ATOM     15  C   UNL     1      -3.023  -0.042  -0.833  0.00  0.00    +0.168 C 
ATOM     16  C   UNL     1      -0.205  -1.607   0.666  0.00  0.00    +0.235 C 
ATOM     17  C   UNL     1      -1.863   0.093  -1.813  0.00  0.00    +0.190 C 
ATOM     18  C   UNL     1      -1.070  -2.663   0.019  0.00  0.00    +0.207 C 
ENDROOT
BRANCH  15   8
ATOM      8  N   UNL     1      -3.669   1.215  -0.447  0.00  0.00    -0.217 N 
ATOM      9  N   UNL     1      -2.972   2.356  -0.421  0.00  0.00    -0.043 NA
ATOM     10  N   UNL     1      -5.088   2.722   0.180  0.00  0.00    -0.108 NA
ATOM     11  N   UNL     1      -3.847   3.277  -0.036  0.00  0.00    -0.023 NA
ATOM     19  C   UNL     1      -4.953   1.442  -0.082  0.00  0.00    +0.182 A 
BRANCH  19  21
ATOM     21  C   UNL     1      -5.974   0.429  -0.003  0.00  0.00    +0.021 A 
ATOM     22  C   UNL     1      -6.763   0.143  -1.119  0.00  0.00    +0.011 A 
ATOM     23  C   UNL     1      -6.179  -0.268   1.190  0.00  0.00    +0.011 A 
ATOM     25  C   UNL     1      -7.753  -0.837  -1.042  0.00  0.00    +0.001 A 
ATOM     26  C   UNL     1      -7.169  -1.248   1.266  0.00  0.00    +0.001 A 
ATOM     27  C   UNL     1      -7.956  -1.532   0.150  0.00  0.00    +0.000 A 
ENDBRANCH  19  21
ENDBRANCH  15   8
BRANCH  16   6
ATOM      6  O   UNL     1       1.126  -1.653   0.203  0.00  0.00    -0.442 OA
BRANCH   6  20
ATOM      7  O   UNL     1       1.647   0.152   1.508  0.00  0.00    -0.226 OA
ATOM     12  N   UNL     1       3.247  -0.887   0.151  0.00  0.00    -0.251 N 
ATOM     20  C   UNL     1       1.993  -0.702   0.701  0.00  0.00    +0.405 C 
ATOM     34  H   UNL     1       3.339  -1.657  -0.506  0.00  0.00    +0.158 HD
BRANCH  12  24
ATOM     24  C   UNL     1       4.421  -0.136   0.389  0.00  0.00    +0.037 A 
ATOM     28  C   UNL     1       5.593  -0.481  -0.266  0.00  0.00    +0.035 A 
ATOM     29  C   UNL     1       4.376   0.931   1.272  0.00  0.00    +0.023 A 
ATOM     30  C   UNL     1       6.750   0.261  -0.031  0.00  0.00    +0.057 A 
ATOM     31  C   UNL     1       5.534   1.673   1.507  0.00  0.00    +0.002 A 
ATOM     32  C   UNL     1       6.721   1.338   0.856  0.00  0.00    +0.012 A 
BRANCH  30  33
ATOM      1  F   UNL     1       8.452  -1.365  -0.459  0.00  0.00    -0.166 F 
ATOM      2  F   UNL     1       9.070   0.714  -0.403  0.00  0.00    -0.166 F 
ATOM      3  F   UNL     1       7.910  -0.028  -2.086  0.00  0.00    -0.166 F 
ATOM     33  C   UNL     1       8.020  -0.097  -0.728  0.00  0.00    +0.417 C 
ENDBRANCH  30  33
ENDBRANCH  12  24
ENDBRANCH   6  20
ENDBRANCH  16   6
TORSDOF 6
