REMARK  Name = 11884147
REMARK  9 active torsions:
REMARK  status: ('A' for Active; 'I' for Inactive)
REMARK    1  A    between atoms: O_3  and  C_13
REMARK    2  A    between atoms: O_3  and  C_17
REMARK    3  A    between atoms: O_6  and  C_24
REMARK    4  A    between atoms: O_6  and  C_31
REMARK    5  A    between atoms: N_8  and  C_12
REMARK    6  A    between atoms: N_9  and  C_21
REMARK    7  A    between atoms: C_16  and  C_18
REMARK    8  A    between atoms: C_29  and  C_30
REMARK    9  A    between atoms: C_30  and  C_32
REMARK                            x       y       z     vdW  Elec       q    Type
REMARK                         _______ _______ _______ _____ _____    ______ ____
ROOT
ATOM      1  O   UNL     1      -0.609   1.651   1.030  0.00  0.00    -0.368 OA
ATOM      2  O   UNL     1      -1.199   3.699  -1.175  0.00  0.00    -0.368 OA
ATOM     10  C   UNL     1      -1.662   2.347  -0.978  0.00  0.00    +0.173 C 
ATOM     11  C   UNL     1      -0.500   1.564  -0.401  0.00  0.00    +0.192 C 
ATOM     12  C   UNL     1      -2.703   2.309   0.117  0.00  0.00    +0.130 C 
ATOM     13  C   UNL     1       0.696   2.328  -0.917  0.00  0.00    +0.235 C 
ATOM     14  C   UNL     1      -1.849   2.288   1.373  0.00  0.00    +0.185 C 
ATOM     15  C   UNL     1       0.204   3.757  -0.878  0.00  0.00    +0.207 C 
ENDROOT
BRANCH  12   8
ATOM      4  O   UNL     1      -5.382   1.991   1.100  0.00  0.00    -0.270 OA
ATOM      8  N   UNL     1      -3.522   1.126   0.019  0.00  0.00    -0.304 N 
ATOM     16  C   UNL     1      -4.812   1.067   0.527  0.00  0.00    +0.244 C 
ATOM     33  H   UNL     1      -3.080   0.288  -0.346  0.00  0.00    +0.149 HD
BRANCH  16  18
ATOM     18  C   UNL     1      -5.515  -0.233   0.369  0.00  0.00    +0.037 A 
ATOM     19  C   UNL     1      -6.512  -0.600   1.273  0.00  0.00    +0.016 A 
ATOM     20  C   UNL     1      -5.178  -1.085  -0.682  0.00  0.00    +0.016 A 
ATOM     22  C   UNL     1      -7.172  -1.820   1.125  0.00  0.00    +0.046 A 
ATOM     23  C   UNL     1      -5.838  -2.305  -0.830  0.00  0.00    +0.046 A 
ATOM     24  C   UNL     1      -6.835  -2.672   0.073  0.00  0.00    +0.120 A 
BRANCH  24   6
ATOM      6  O   UNL     1      -7.481  -3.862  -0.072  0.00  0.00    -0.495 OA
ATOM     31  C   UNL     1      -7.086  -4.685  -1.169  0.00  0.00    +0.277 C 
ENDBRANCH  24   6
ENDBRANCH  16  18
ENDBRANCH  12   8
BRANCH  13   3
ATOM      3  O   UNL     1       1.859   2.145  -0.141  0.00  0.00    -0.442 OA
BRANCH   3  17
ATOM      5  O   UNL     1       2.510   0.434  -1.511  0.00  0.00    -0.226 OA
ATOM      9  N   UNL     1       3.802   1.099   0.325  0.00  0.00    -0.251 N 
ATOM     17  C   UNL     1       2.722   1.144  -0.535  0.00  0.00    +0.405 C 
ATOM     34  H   UNL     1       3.801   1.777   1.083  0.00  0.00    +0.158 HD
BRANCH   9  21
ATOM     21  C   UNL     1       4.913   0.226   0.282  0.00  0.00    +0.036 A 
ATOM     25  C   UNL     1       5.918   0.329   1.244  0.00  0.00    +0.024 A 
ATOM     26  C   UNL     1       5.004  -0.738  -0.722  0.00  0.00    +0.024 A 
ATOM     27  C   UNL     1       7.014  -0.532   1.201  0.00  0.00    +0.013 A 
ATOM     28  C   UNL     1       6.101  -1.598  -0.765  0.00  0.00    +0.013 A 
ATOM     29  C   UNL     1       7.106  -1.496   0.197  0.00  0.00    +0.017 A 
BRANCH  29  30
ATOM      7  O   UNL     1       8.153  -3.549  -0.307  0.00  0.00    -0.292 OA
ATOM     30  C   UNL     1       8.249  -2.393   0.153  0.00  0.00    +0.160 C 
ATOM     32  C   UNL     1       9.606  -1.936   0.676  0.00  0.00    +0.091 C 
ENDBRANCH  29  30
ENDBRANCH   9  21
ENDBRANCH   3  17
ENDBRANCH  13   3
TORSDOF 7
