REMARK  Name = 11882853
REMARK  11 active torsions:
REMARK  status: ('A' for Active; 'I' for Inactive)
REMARK    1  A    between atoms: O_2  and  C_15
REMARK    2  A    between atoms: O_3  and  C_20
REMARK    3  A    between atoms: O_6  and  C_37
REMARK    4  A    between atoms: O_6  and  C_38
REMARK    5  A    between atoms: N_8  and  C_26
REMARK    6  A    between atoms: C_10  and  C_18
REMARK    7  A    between atoms: C_12  and  C_20
REMARK    8  A    between atoms: C_12  and  C_21
REMARK    9  A    between atoms: C_13  and  C_23
REMARK   10  A    between atoms: C_23  and  C_24
REMARK   11  A    between atoms: C_31  and  C_32
REMARK                            x       y       z     vdW  Elec       q    Type
REMARK                         _______ _______ _______ _____ _____    ______ ____
ROOT
ATOM      1  S   UNL     1       0.005  -2.814   0.252  0.00  0.00    -0.057 S 
ATOM      5  O   UNL     1      -3.057   0.646  -0.318  0.00  0.00    -0.270 OA
ATOM      7  N   UNL     1      -0.251  -0.268  -0.127  0.00  0.00    -0.229 NA
ATOM      9  N   UNL     1      -2.283  -1.554   0.023  0.00  0.00    -0.261 N 
ATOM     10  C   UNL     1       3.568   0.048   0.309  0.00  0.00    -0.019 C 
ATOM     11  C   UNL     1       3.835  -1.403  -0.289  0.00  0.00    +0.011 C 
ATOM     12  C   UNL     1       5.323  -1.926  -0.261  0.00  0.00    +0.021 C 
ATOM     13  C   UNL     1       2.138   0.539  -0.210  0.00  0.00    +0.054 C 
ATOM     14  C   UNL     1       4.644   1.031  -0.222  0.00  0.00    +0.010 C 
ATOM     15  C   UNL     1       6.269  -0.806  -0.779  0.00  0.00    +0.123 C 
ATOM     16  C   UNL     1       2.797  -2.436   0.239  0.00  0.00    +0.049 C 
ATOM     17  C   UNL     1       6.071   0.526  -0.065  0.00  0.00    +0.032 C 
ATOM     18  C   UNL     1       3.591   0.074   1.857  0.00  0.00    +0.012 C 
ATOM     19  C   UNL     1       1.102  -0.543  -0.049  0.00  0.00    +0.058 A 
ATOM     21  C   UNL     1       5.456  -3.131  -1.235  0.00  0.00    +0.016 C 
ATOM     22  C   UNL     1       1.420  -1.874   0.133  0.00  0.00    +0.015 A 
ATOM     25  C   UNL     1      -0.924  -1.387   0.025  0.00  0.00    +0.165 A 
ATOM     31  C   UNL     1      -3.253  -0.552  -0.145  0.00  0.00    +0.250 C 
ATOM     42  H   UNL     1      -2.573  -2.522   0.117  0.00  0.00    +0.157 HD
ENDROOT
BRANCH  31  32
ATOM     32  C   UNL     1      -4.663  -1.023  -0.135  0.00  0.00    +0.037 A 
ATOM     33  C   UNL     1      -5.643  -0.304  -0.820  0.00  0.00    +0.016 A 
ATOM     34  C   UNL     1      -5.007  -2.183   0.558  0.00  0.00    +0.016 A 
ATOM     35  C   UNL     1      -6.966  -0.745  -0.812  0.00  0.00    +0.046 A 
ATOM     36  C   UNL     1      -6.330  -2.625   0.566  0.00  0.00    +0.046 A 
ATOM     37  C   UNL     1      -7.309  -1.906  -0.119  0.00  0.00    +0.120 A 
BRANCH  37   6
ATOM      6  O   UNL     1      -8.600  -2.338  -0.113  0.00  0.00    -0.495 OA
ATOM     38  C   UNL     1      -8.881  -3.533   0.616  0.00  0.00    +0.277 C 
ENDBRANCH  37   6
ENDBRANCH  31  32
BRANCH  15   2
ATOM      2  O   UNL     1       7.635  -1.200  -0.645  0.00  0.00    -0.391 OA
ATOM     39  H   UNL     1       8.184  -0.492  -1.022  0.00  0.00    +0.210 HD
ENDBRANCH  15   2
BRANCH  12  20
ATOM     20  C   UNL     1       5.791  -2.451   1.114  0.00  0.00    +0.165 C 
BRANCH  20   3
ATOM      3  O   UNL     1       7.125  -2.889   0.978  0.00  0.00    -0.394 OA
ATOM     40  H   UNL     1       7.409  -3.226   1.844  0.00  0.00    +0.209 HD
ENDBRANCH  20   3
ENDBRANCH  12  20
BRANCH  13  23
ATOM     23  C   UNL     1       1.662   1.867   0.395  0.00  0.00    +0.106 C 
BRANCH  23  24
ATOM      4  O   UNL     1       0.362   2.176  -1.622  0.00  0.00    -0.276 OA
ATOM      8  N   UNL     1       0.280   3.785   0.053  0.00  0.00    -0.312 N 
ATOM     24  C   UNL     1       0.705   2.595  -0.520  0.00  0.00    +0.214 C 
ATOM     41  H   UNL     1       0.588   4.012   0.994  0.00  0.00    +0.149 HD
BRANCH   8  26
ATOM     26  C   UNL     1      -0.637   4.689  -0.597  0.00  0.00    +0.073 C 
ATOM     27  C   UNL     1      -2.083   4.415  -0.201  0.00  0.00    +0.022 C 
ATOM     28  C   UNL     1      -0.429   6.127  -0.138  0.00  0.00    +0.022 C 
ATOM     29  C   UNL     1      -2.276   5.150   1.124  0.00  0.00    +0.002 C 
ATOM     30  C   UNL     1      -1.187   6.222   1.183  0.00  0.00    +0.002 C 
ENDBRANCH   8  26
ENDBRANCH  23  24
ENDBRANCH  13  23
TORSDOF 8
