REMARK  Name = 38029860
REMARK  12 active torsions:
REMARK  status: ('A' for Active; 'I' for Inactive)
REMARK    1  A    between atoms: O_2  and  C_25
REMARK    2  A    between atoms: O_2  and  C_26
REMARK    3  A    between atoms: N_4  and  C_24
REMARK    4  A    between atoms: C_6  and  C_10
REMARK    5  A    between atoms: C_8  and  C_13
REMARK    6  A    between atoms: C_9  and  C_14
REMARK    7  A    between atoms: C_10  and  C_15
REMARK    8  A    between atoms: C_10  and  C_16
REMARK    9  A    between atoms: C_11  and  C_18
REMARK   10  A    between atoms: C_13  and  C_17
REMARK   11  A    between atoms: C_14  and  C_23
REMARK   12  A    between atoms: C_24  and  C_25
REMARK                            x       y       z     vdW  Elec       q    Type
REMARK                         _______ _______ _______ _____ _____    ______ ____
ROOT
ATOM      6  C   UNL     1      -3.106  -0.510   0.862  0.00  0.00    -0.000 C 
ATOM      7  C   UNL     1      -2.723   0.977   0.825  0.00  0.00    +0.012 C 
ATOM      8  C   UNL     1      -2.264   1.426  -0.576  0.00  0.00    +0.023 C 
ATOM      9  C   UNL     1      -4.248  -0.800  -0.144  0.00  0.00    +0.029 C 
ATOM     11  C   UNL     1      -3.208   0.943  -1.659  0.00  0.00    -0.073 C 
ATOM     12  C   UNL     1      -4.097  -0.043  -1.443  0.00  0.00    -0.023 C 
ATOM     18  C   UNL     1      -3.139   1.652  -2.982  0.00  0.00    +0.039 C 
ENDROOT
BRANCH   6  10
ATOM     10  C   UNL     1      -3.491  -0.912   2.289  0.00  0.00    -0.013 C 
ATOM     15  C   UNL     1      -2.241  -1.192   3.118  0.00  0.00    +0.007 C 
ATOM     16  C   UNL     1      -4.337   0.179   2.938  0.00  0.00    +0.007 C 
ENDBRANCH   6  10
BRANCH   8  13
ATOM     13  C   UNL     1      -0.828   0.973  -0.859  0.00  0.00    +0.103 C 
BRANCH  13  17
ATOM      1  O   UNL     1      -0.291   2.737   0.630  0.00  0.00    -0.276 OA
ATOM      3  N   UNL     1       1.495   1.530  -0.234  0.00  0.00    -0.299 N 
ATOM      4  N   UNL     1       4.150   0.515   0.127  0.00  0.00    -0.297 NA
ATOM     17  C   UNL     1       0.142   1.831  -0.086  0.00  0.00    +0.216 C 
ATOM     19  C   UNL     1       2.499   2.313   0.486  0.00  0.00    +0.123 C 
ATOM     20  C   UNL     1       2.048   0.551  -1.175  0.00  0.00    +0.123 C 
ATOM     21  C   UNL     1       3.551   1.410   1.128  0.00  0.00    +0.103 C 
ATOM     22  C   UNL     1       3.115  -0.317  -0.504  0.00  0.00    +0.103 C 
BRANCH   4  24
ATOM     24  C   UNL     1       5.179  -0.324   0.739  0.00  0.00    +0.112 C 
BRANCH  24  25
ATOM     25  C   UNL     1       6.159  -0.848  -0.295  0.00  0.00    +0.174 C 
BRANCH  25   2
ATOM      2  O   UNL     1       7.158  -1.626   0.352  0.00  0.00    -0.382 OA
ATOM     26  C   UNL     1       8.105  -2.136  -0.576  0.00  0.00    +0.194 C 
ENDBRANCH  25   2
ENDBRANCH  24  25
ENDBRANCH   4  24
ENDBRANCH  13  17
ENDBRANCH   8  13
BRANCH   9  14
ATOM     14  C   UNL     1      -4.361  -2.300  -0.437  0.00  0.00    +0.126 C 
BRANCH  14  23
ATOM      5  N   UNL     1      -2.145  -3.220  -1.497  0.00  0.00    -0.197 NA
ATOM     23  C   UNL     1      -3.122  -2.807  -1.028  0.00  0.00    +0.063 C 
ENDBRANCH  14  23
ENDBRANCH   9  14
TORSDOF 8
