REMARK  Name = 26763402
REMARK  5 active torsions:
REMARK  status: ('A' for Active; 'I' for Inactive)
REMARK    1  A    between atoms: O_3  and  C_12
REMARK    2  A    between atoms: O_3  and  C_22
REMARK    3  A    between atoms: N_6  and  C_11
REMARK    4  A    between atoms: N_7  and  C_15
REMARK    5  A    between atoms: C_22  and  C_23
REMARK                            x       y       z     vdW  Elec       q    Type
REMARK                         _______ _______ _______ _____ _____    ______ ____
ROOT
ATOM      1  O   UNL     1       1.708   0.115   0.951  0.00  0.00    -0.369 OA
ATOM      2  O   UNL     1       2.036   2.701  -0.664  0.00  0.00    -0.369 OA
ATOM      9  C   UNL     1       1.142   1.581  -0.825  0.00  0.00    +0.172 C 
ATOM     10  C   UNL     1       1.923   0.337  -0.452  0.00  0.00    +0.180 C 
ATOM     11  C   UNL     1       0.042   1.641   0.210  0.00  0.00    +0.131 C 
ATOM     12  C   UNL     1       3.347   0.748  -0.741  0.00  0.00    +0.176 C 
ATOM     13  C   UNL     1       0.715   1.036   1.430  0.00  0.00    +0.185 C 
ATOM     14  C   UNL     1       3.345   2.207  -0.344  0.00  0.00    +0.194 C 
ENDROOT
BRANCH  11   6
ATOM      4  O   UNL     1      -2.684   2.033   1.035  0.00  0.00    -0.253 OA
ATOM      6  N   UNL     1      -1.103   0.865  -0.198  0.00  0.00    -0.292 N 
ATOM      7  N   UNL     1      -3.314   0.233  -0.290  0.00  0.00    -0.297 N 
ATOM     21  C   UNL     1      -2.395   1.127   0.255  0.00  0.00    +0.300 C 
ATOM     24  H   UNL     1      -0.957   0.053  -0.790  0.00  0.00    +0.151 HD
ATOM     25  H   UNL     1      -2.957  -0.522  -0.867  0.00  0.00    +0.151 HD
BRANCH   7  15
ATOM     15  C   UNL     1      -4.728   0.273   0.007  0.00  0.00    +0.074 C 
ATOM     16  C   UNL     1      -5.557  -0.190  -1.196  0.00  0.00    +0.022 C 
ATOM     17  C   UNL     1      -5.053  -0.553   1.256  0.00  0.00    +0.022 C 
ATOM     18  C   UNL     1      -5.443  -1.695  -1.440  0.00  0.00    +0.002 C 
ATOM     19  C   UNL     1      -4.939  -2.057   1.008  0.00  0.00    +0.002 C 
ATOM     20  C   UNL     1      -5.781  -2.496  -0.186  0.00  0.00    +0.000 C 
ENDBRANCH   7  15
ENDBRANCH  11   6
BRANCH  12   3
ATOM      3  O   UNL     1       4.305   0.004  -0.022  0.00  0.00    -0.362 OA
BRANCH   3  22
ATOM     22  C   UNL     1       4.634  -1.218  -0.679  0.00  0.00    +0.255 C 
BRANCH  22  23
ATOM      5  O   UNL     1       6.122  -1.555   1.195  0.00  0.00    -0.274 OA
ATOM      8  N   UNL     1       6.018  -3.166  -0.445  0.00  0.00    -0.327 N 
ATOM     23  C   UNL     1       5.661  -1.968   0.135  0.00  0.00    +0.236 C 
ATOM     26  H   UNL     1       5.620  -3.483  -1.323  0.00  0.00    +0.145 HD
ATOM     27  H   UNL     1       6.700  -3.776  -0.006  0.00  0.00    +0.145 HD
ENDBRANCH  22  23
ENDBRANCH   3  22
ENDBRANCH  12   3
TORSDOF 5
