REMARK  Name = 56775233
REMARK  3 active torsions:
REMARK  status: ('A' for Active; 'I' for Inactive)
REMARK    1  A    between atoms: N_5  and  C_12
REMARK    2  A    between atoms: C_8  and  C_12
REMARK    3  A    between atoms: C_18  and  C_19
REMARK                            x       y       z     vdW  Elec       q    Type
REMARK                         _______ _______ _______ _____ _____    ______ ____
ROOT
ATOM      1  O   UNL     1      -0.980  -2.585  -0.393  0.00  0.00    -0.364 OA
ATOM      2  O   UNL     1      -3.512  -0.719  -2.058  0.00  0.00    -0.273 OA
ATOM      3  O   UNL     1       3.430  -1.630   1.248  0.00  0.00    -0.267 OA
ATOM      5  N   UNL     1      -2.094  -0.038  -0.343  0.00  0.00    -0.292 N 
ATOM      6  N   UNL     1       1.305  -0.930   0.625  0.00  0.00    -0.291 N 
ATOM      9  C   UNL     1      -0.991  -0.371   0.549  0.00  0.00    +0.124 C 
ATOM     13  C   UNL     1      -0.852  -1.865   0.830  0.00  0.00    +0.158 C 
ATOM     14  C   UNL     1       0.379  -0.011  -0.034  0.00  0.00    +0.133 C 
ATOM     15  C   UNL     1       0.586  -1.993   1.318  0.00  0.00    +0.141 C 
ATOM     16  C   UNL     1      -2.673  -0.977  -1.193  0.00  0.00    +0.242 C 
ATOM     17  C   UNL     1      -2.270  -2.418  -0.937  0.00  0.00    +0.256 C 
ATOM     18  C   UNL     1       2.687  -0.831   0.682  0.00  0.00    +0.285 C 
ENDROOT
BRANCH  18  19
ATOM      4  O   UNL     1       2.697   0.859  -1.063  0.00  0.00    -0.350 OA
ATOM      7  N   UNL     1       3.443   1.932  -1.533  0.00  0.00    -0.086 NA
ATOM     19  C   UNL     1       3.313   0.326   0.023  0.00  0.00    +0.222 A 
ATOM     20  C   UNL     1       4.461   1.024   0.290  0.00  0.00    +0.077 A 
ATOM     21  C   UNL     1       4.492   2.011  -0.709  0.00  0.00    +0.157 A 
ENDBRANCH  18  19
BRANCH   5  12
ATOM     12  C   UNL     1      -2.467   1.367  -0.435  0.00  0.00    +0.111 C 
BRANCH  12   8
ATOM      8  C   UNL     1      -3.641   1.670   0.432  0.00  0.00    +0.006 C 
ATOM     10  C   UNL     1      -3.412   2.091   1.854  0.00  0.00    +0.005 C 
ATOM     11  C   UNL     1      -3.900   3.089   0.845  0.00  0.00    +0.005 C 
ENDBRANCH  12   8
ENDBRANCH   5  12
TORSDOF 3
