REMARK  Name = 40777150
REMARK  11 active torsions:
REMARK  status: ('A' for Active; 'I' for Inactive)
REMARK    1  A    between atoms: S_1  and  C_26
REMARK    2  A    between atoms: S_1  and  C_33
REMARK    3  A    between atoms: O_6  and  C_35
REMARK    4  A    between atoms: N_9  and  C_19
REMARK    5  A    between atoms: C_13  and  C_20
REMARK    6  A    between atoms: C_14  and  C_19
REMARK    7  A    between atoms: C_22  and  C_25
REMARK    8  A    between atoms: C_23  and  C_26
REMARK    9  A    between atoms: C_24  and  C_27
REMARK   10  A    between atoms: C_32  and  C_34
REMARK   11  A    between atoms: C_33  and  C_35
REMARK                            x       y       z     vdW  Elec       q    Type
REMARK                         _______ _______ _______ _____ _____    ______ ____
ROOT
ATOM      8  N   UNL     1      -1.978   1.592   2.089  0.00  0.00    -0.297 NA
ATOM     12  C   UNL     1      -1.877  -0.998   1.829  0.00  0.00    +0.002 C 
ATOM     13  C   UNL     1      -0.444  -0.398   1.856  0.00  0.00    +0.055 C 
ATOM     14  C   UNL     1      -2.882   1.155   0.993  0.00  0.00    +0.074 C 
ATOM     15  C   UNL     1      -2.682  -0.345   0.686  0.00  0.00    +0.024 C 
ATOM     16  C   UNL     1      -2.556  -0.588   3.154  0.00  0.00    +0.019 C 
ATOM     17  C   UNL     1      -0.589   1.150   1.808  0.00  0.00    +0.094 C 
ATOM     18  C   UNL     1      -2.429   0.934   3.339  0.00  0.00    +0.085 C 
ENDROOT
BRANCH  13  20
ATOM     10  N   UNL     1       0.140  -1.858  -0.017  0.00  0.00    -0.237 NA
ATOM     11  N   UNL     1       2.346  -1.881  -0.988  0.00  0.00    -0.232 NA
ATOM     20  C   UNL     1       0.571  -0.914   0.846  0.00  0.00    +0.050 A 
ATOM     21  C   UNL     1       1.855  -0.411   0.853  0.00  0.00    +0.052 A 
ATOM     22  C   UNL     1       2.708  -0.936  -0.096  0.00  0.00    +0.075 A 
ATOM     24  C   UNL     1       1.066  -2.290  -0.894  0.00  0.00    +0.127 A 
ATOM     27  C   UNL     1       0.629  -3.336  -1.863  0.00  0.00    +0.088 C 
BRANCH  22  25
ATOM     25  C   UNL     1       4.079  -0.495  -0.192  0.00  0.00    +0.000 A 
ATOM     28  C   UNL     1       4.364   0.846  -0.450  0.00  0.00    +0.010 A 
ATOM     29  C   UNL     1       5.120  -1.409  -0.026  0.00  0.00    +0.010 A 
ATOM     30  C   UNL     1       5.689   1.273  -0.543  0.00  0.00    +0.013 A 
ATOM     31  C   UNL     1       6.444  -0.983  -0.118  0.00  0.00    +0.013 A 
ATOM     32  C   UNL     1       6.729   0.358  -0.377  0.00  0.00    +0.055 A 
BRANCH  32  34
ATOM      2  F   UNL     1       8.250   2.151  -0.732  0.00  0.00    -0.166 F 
ATOM      3  F   UNL     1       8.870   0.602   0.662  0.00  0.00    -0.166 F 
ATOM      4  F   UNL     1       8.851   0.195  -1.468  0.00  0.00    -0.166 F 
ATOM     34  C   UNL     1       8.145   0.814  -0.476  0.00  0.00    +0.417 C 
ENDBRANCH  32  34
ENDBRANCH  22  25
ENDBRANCH  13  20
BRANCH  14  19
ATOM     19  C   UNL     1      -2.735   2.018  -0.262  0.00  0.00    +0.123 C 
BRANCH  19   9
ATOM      5  O   UNL     1      -5.403   3.088  -0.601  0.00  0.00    -0.275 OA
ATOM      9  N   UNL     1      -3.698   1.646  -1.253  0.00  0.00    -0.313 N 
ATOM     23  C   UNL     1      -4.967   2.213  -1.348  0.00  0.00    +0.223 C 
ATOM     36  H   UNL     1      -3.433   0.922  -1.914  0.00  0.00    +0.149 HD
BRANCH  23  26
ATOM     26  C   UNL     1      -5.801   1.637  -2.468  0.00  0.00    +0.165 C 
BRANCH  26   1
ATOM      1  S   UNL     1      -7.312   0.929  -1.770  0.00  0.00    -0.140 S 
BRANCH   1  33
ATOM     33  C   UNL     1      -6.631  -0.643  -1.190  0.00  0.00    +0.189 C 
BRANCH  33  35
ATOM      7  O   UNL     1      -8.900  -1.387  -0.864  0.00  0.00    -0.250 OA
ATOM     35  C   UNL     1      -7.720  -1.452  -0.545  0.00  0.00    +0.315 C 
BRANCH  35   6
ATOM      6  O   UNL     1      -7.254  -2.279   0.425  0.00  0.00    -0.480 OA
ATOM     37  H   UNL     1      -7.973  -2.806   0.833  0.00  0.00    +0.295 HD
ENDBRANCH  35   6
ENDBRANCH  33  35
ENDBRANCH   1  33
ENDBRANCH  26   1
ENDBRANCH  23  26
ENDBRANCH  19   9
ENDBRANCH  14  19
TORSDOF 10
