REMARK  Name = 75536101
REMARK  8 active torsions:
REMARK  status: ('A' for Active; 'I' for Inactive)
REMARK    1  A    between atoms: O_1  and  C_8
REMARK    2  A    between atoms: O_2  and  C_10
REMARK    3  A    between atoms: O_3  and  C_18
REMARK    4  A    between atoms: O_3  and  C_25
REMARK    5  A    between atoms: N_4  and  C_6
REMARK    6  A    between atoms: N_4  and  C_12
REMARK    7  A    between atoms: C_7  and  C_11
REMARK    8  A    between atoms: C_12  and  C_15
REMARK                            x       y       z     vdW  Elec       q    Type
REMARK                         _______ _______ _______ _____ _____    ______ ____
ROOT
ATOM      6  C   UNL     1       1.263  -1.658  -0.062  0.00  0.00    +0.092 C 
ATOM      7  C   UNL     1       2.297  -1.139  -1.087  0.00  0.00    +0.041 C 
ATOM      8  C   UNL     1       1.378  -3.176  -0.191  0.00  0.00    +0.160 C 
ATOM      9  C   UNL     1       3.349  -2.273  -1.225  0.00  0.00    +0.043 C 
ATOM     10  C   UNL     1       2.886  -3.390  -0.288  0.00  0.00    +0.145 C 
ENDROOT
BRANCH   7  11
ATOM     11  C   UNL     1       2.882   0.207  -0.714  0.00  0.00    -0.042 A 
ATOM     13  C   UNL     1       3.561   0.361   0.495  0.00  0.00    +0.007 A 
ATOM     14  C   UNL     1       2.743   1.292  -1.579  0.00  0.00    +0.007 A 
ATOM     16  C   UNL     1       4.100   1.600   0.839  0.00  0.00    +0.046 A 
ATOM     17  C   UNL     1       3.282   2.532  -1.234  0.00  0.00    +0.046 A 
ATOM     18  C   UNL     1       3.961   2.686  -0.025  0.00  0.00    +0.120 A 
BRANCH  18   3
ATOM      3  O   UNL     1       4.486   3.895   0.311  0.00  0.00    -0.495 OA
ATOM     25  C   UNL     1       5.167   3.982   1.562  0.00  0.00    +0.277 C 
ENDBRANCH  18   3
ENDBRANCH   7  11
BRANCH   8   1
ATOM      1  O   UNL     1       0.819  -3.839   0.927  0.00  0.00    -0.388 OA
ATOM     29  H   UNL     1       1.017  -4.787   0.833  0.00  0.00    +0.210 HD
ENDBRANCH   8   1
BRANCH  10   2
ATOM      2  O   UNL     1       3.491  -3.220   0.990  0.00  0.00    -0.389 OA
ATOM     30  H   UNL     1       4.451  -3.314   0.873  0.00  0.00    +0.210 HD
ENDBRANCH  10   2
BRANCH   6   4
ATOM      4  N   UNL     1      -0.087  -1.191  -0.360  0.00  0.00    -0.306 NA
ATOM     28  H   UNL     1      -0.044  -0.215  -0.654  0.00  0.00    +0.123 HD
BRANCH   4  12
ATOM     12  C   UNL     1      -0.940  -1.288   0.816  0.00  0.00    +0.118 C 
BRANCH  12  15
ATOM      5  N   UNL     1      -4.655  -1.358   0.098  0.00  0.00    -0.255 NA
ATOM     15  C   UNL     1      -2.342  -0.818   0.531  0.00  0.00    -0.015 A 
ATOM     19  C   UNL     1      -2.642   0.533   0.433  0.00  0.00    +0.016 A 
ATOM     20  C   UNL     1      -3.376  -1.715   0.356  0.00  0.00    +0.116 A 
ATOM     21  C   UNL     1      -3.955   0.946   0.167  0.00  0.00    +0.001 A 
ATOM     22  C   UNL     1      -4.943  -0.046   0.004  0.00  0.00    +0.071 A 
ATOM     23  C   UNL     1      -4.291   2.307   0.063  0.00  0.00    +0.010 A 
ATOM     24  C   UNL     1      -6.247   0.364  -0.261  0.00  0.00    +0.028 A 
ATOM     26  C   UNL     1      -5.603   2.689  -0.203  0.00  0.00    +0.001 A 
ATOM     27  C   UNL     1      -6.582   1.717  -0.365  0.00  0.00    +0.002 A 
ENDBRANCH  12  15
ENDBRANCH   4  12
ENDBRANCH   6   4
TORSDOF 7
