REMARK  Name = 45783678
REMARK  5 active torsions:
REMARK  status: ('A' for Active; 'I' for Inactive)
REMARK    1  A    between atoms: N_2  and  C_14
REMARK    2  A    between atoms: N_8  and  C_24
REMARK    3  A    between atoms: C_10  and  C_15
REMARK    4  A    between atoms: C_14  and  C_16
REMARK    5  A    between atoms: C_17  and  C_19
REMARK                            x       y       z     vdW  Elec       q    Type
REMARK                         _______ _______ _______ _____ _____    ______ ____
ROOT
ATOM      1  O   UNL     1      -2.079  -0.192   2.046  0.00  0.00    -0.336 OA
ATOM      3  N   UNL     1      -1.168  -0.970   0.153  0.00  0.00    -0.190 NA
ATOM      6  N   UNL     1      -0.707   0.080   2.133  0.00  0.00    -0.056 NA
ATOM     15  C   UNL     1      -2.264  -0.811   0.851  0.00  0.00    +0.245 A 
ATOM     17  C   UNL     1      -0.239  -0.408   0.980  0.00  0.00    +0.204 A 
ENDROOT
BRANCH  17  19
ATOM      7  N   UNL     1       3.402   0.310   1.200  0.00  0.00    -0.237 NA
ATOM     19  C   UNL     1       1.149  -0.352   0.625  0.00  0.00    +0.041 A 
ATOM     21  C   UNL     1       1.602  -0.871  -0.583  0.00  0.00    +0.017 A 
ATOM     22  C   UNL     1       2.081   0.223   1.474  0.00  0.00    +0.124 A 
ATOM     23  C   UNL     1       2.954  -0.800  -0.900  0.00  0.00    +0.047 A 
ATOM     24  C   UNL     1       3.805  -0.205   0.018  0.00  0.00    +0.139 A 
BRANCH  24   8
ATOM      8  N   UNL     1       5.154  -0.133  -0.294  0.00  0.00    -0.290 N 
ATOM      9  N   UNL     1       7.316   0.333  -0.086  0.00  0.00    -0.244 NA
ATOM     25  C   UNL     1       5.748  -0.595  -1.435  0.00  0.00    +0.114 A 
ATOM     26  C   UNL     1       6.135   0.416   0.485  0.00  0.00    +0.205 A 
ATOM     27  C   UNL     1       7.082  -0.296  -1.283  0.00  0.00    +0.130 A 
ENDBRANCH  24   8
ENDBRANCH  17  19
BRANCH  15  10
ATOM      2  N   UNL     1      -4.156  -0.622  -0.756  0.00  0.00    -0.284 NA
ATOM     10  C   UNL     1      -3.685  -1.213   0.513  0.00  0.00    +0.146 C 
ATOM     11  C   UNL     1      -3.842  -2.732   0.318  0.00  0.00    +0.030 C 
ATOM     12  C   UNL     1      -4.464  -2.894  -1.062  0.00  0.00    +0.017 C 
ATOM     13  C   UNL     1      -5.133  -1.558  -1.310  0.00  0.00    +0.085 C 
BRANCH   2  14
ATOM     14  C   UNL     1      -4.709   0.717  -0.595  0.00  0.00    +0.159 C 
BRANCH  14  16
ATOM      4  N   UNL     1      -2.713   1.934  -1.496  0.00  0.00    -0.347 N 
ATOM      5  N   UNL     1      -3.429   2.597   0.498  0.00  0.00    -0.239 NA
ATOM     16  C   UNL     1      -3.629   1.762  -0.497  0.00  0.00    +0.121 A 
ATOM     18  C   UNL     1      -1.875   2.944  -1.115  0.00  0.00    +0.104 A 
ATOM     20  C   UNL     1      -2.337   3.337   0.119  0.00  0.00    +0.130 A 
ATOM     28  H   UNL     1      -2.661   1.410  -2.360  0.00  0.00    +0.167 HD
ENDBRANCH  14  16
ENDBRANCH   2  14
ENDBRANCH  15  10
TORSDOF 5
