REMARK  Name = 26742624
REMARK  13 active torsions:
REMARK  status: ('A' for Active; 'I' for Inactive)
REMARK    1  A    between atoms: O_2  and  C_18
REMARK    2  A    between atoms: O_3  and  C_25
REMARK    3  A    between atoms: O_3  and  C_27
REMARK    4  A    between atoms: N_4  and  C_14
REMARK    5  A    between atoms: N_5  and  C_20
REMARK    6  A    between atoms: N_5  and  C_21
REMARK    7  A    between atoms: C_7  and  C_12
REMARK    8  A    between atoms: C_8  and  C_13
REMARK    9  A    between atoms: C_12  and  C_15
REMARK   10  A    between atoms: C_13  and  C_16
REMARK   11  A    between atoms: C_14  and  C_17
REMARK   12  A    between atoms: C_20  and  C_24
REMARK   13  A    between atoms: C_24  and  C_26
REMARK                            x       y       z     vdW  Elec       q    Type
REMARK                         _______ _______ _______ _____ _____    ______ ____
ROOT
ATOM      4  N   UNL     1       0.998  -1.005   0.506  0.00  0.00    -0.298 NA
ATOM      7  C   UNL     1      -0.430  -0.458  -1.453  0.00  0.00    +0.006 C 
ATOM      8  C   UNL     1      -1.585  -1.320  -0.892  0.00  0.00    +0.003 C 
ATOM      9  C   UNL     1      -1.002  -2.385   0.049  0.00  0.00    +0.019 C 
ATOM     10  C   UNL     1       0.475   0.084  -0.331  0.00  0.00    +0.088 C 
ATOM     11  C   UNL     1      -0.085  -1.785   1.117  0.00  0.00    +0.085 C 
ENDROOT
BRANCH   7  12
ATOM     12  C   UNL     1      -0.916   0.682  -2.349  0.00  0.00    +0.002 C 
ATOM     15  C   UNL     1      -1.739   0.158  -3.509  0.00  0.00    +0.004 C 
ENDBRANCH   7  12
BRANCH   8  13
ATOM     13  C   UNL     1      -2.683  -0.512  -0.191  0.00  0.00    +0.100 C 
BRANCH  13  16
ATOM      1  O   UNL     1      -4.089  -2.419  -0.560  0.00  0.00    -0.276 OA
ATOM      5  N   UNL     1      -5.045  -0.606   0.526  0.00  0.00    -0.304 N 
ATOM     16  C   UNL     1      -3.990  -1.278  -0.101  0.00  0.00    +0.216 C 
ATOM     21  C   UNL     1      -6.364  -1.205   0.692  0.00  0.00    +0.132 C 
BRANCH   5  20
ATOM     20  C   UNL     1      -4.905   0.746   1.063  0.00  0.00    +0.122 C 
BRANCH  20  24
ATOM     24  C   UNL     1      -5.247   1.818   0.035  0.00  0.00    +0.137 C 
BRANCH  24  26
ATOM      6  N   UNL     1      -5.019   4.241   1.034  0.00  0.00    -0.197 NA
ATOM     26  C   UNL     1      -5.120   3.172   0.594  0.00  0.00    +0.064 C 
ENDBRANCH  24  26
ENDBRANCH  20  24
ENDBRANCH   5  20
ENDBRANCH  13  16
ENDBRANCH   8  13
BRANCH   4  14
ATOM     14  C   UNL     1       1.894  -0.476   1.535  0.00  0.00    +0.123 C 
BRANCH  14  17
ATOM     17  C   UNL     1       3.235  -0.102   0.974  0.00  0.00    +0.008 A 
ATOM     18  C   UNL     1       4.170  -1.083   0.646  0.00  0.00    +0.125 A 
ATOM     19  C   UNL     1       3.541   1.246   0.782  0.00  0.00    +0.012 A 
ATOM     22  C   UNL     1       5.412  -0.718   0.126  0.00  0.00    +0.091 A 
ATOM     23  C   UNL     1       4.783   1.611   0.262  0.00  0.00    +0.046 A 
ATOM     25  C   UNL     1       5.718   0.629  -0.066  0.00  0.00    +0.124 A 
BRANCH  18   2
ATOM      2  O   UNL     1       3.887  -2.404   0.828  0.00  0.00    -0.506 OA
ATOM     28  H   UNL     1       4.652  -2.934   0.546  0.00  0.00    +0.292 HD
ENDBRANCH  18   2
BRANCH  25   3
ATOM      3  O   UNL     1       6.930   0.986  -0.574  0.00  0.00    -0.495 OA
ATOM     27  C   UNL     1       7.176   2.381  -0.744  0.00  0.00    +0.277 C 
ENDBRANCH  25   3
ENDBRANCH  14  17
ENDBRANCH   4  14
TORSDOF 10
