REMARK  Name = 40777115
REMARK  6 active torsions:
REMARK  status: ('A' for Active; 'I' for Inactive)
REMARK    1  A    between atoms: N_4  and  C_14
REMARK    2  A    between atoms: C_8  and  C_14
REMARK    3  A    between atoms: C_9  and  C_15
REMARK    4  A    between atoms: C_16  and  C_19
REMARK    5  A    between atoms: C_21  and  C_23
REMARK    6  A    between atoms: C_22  and  C_24
REMARK                            x       y       z     vdW  Elec       q    Type
REMARK                         _______ _______ _______ _____ _____    ______ ____
ROOT
ATOM      3  N   UNL     1      -1.923  -1.973   1.450  0.00  0.00    -0.297 NA
ATOM      7  C   UNL     1      -1.357  -2.104  -1.089  0.00  0.00    +0.002 C 
ATOM      8  C   UNL     1      -2.772  -1.017   0.690  0.00  0.00    +0.074 C 
ATOM      9  C   UNL     1      -0.059  -1.946  -0.249  0.00  0.00    +0.055 C 
ATOM     10  C   UNL     1      -2.310  -0.930  -0.780  0.00  0.00    +0.024 C 
ATOM     11  C   UNL     1      -2.051  -3.392  -0.597  0.00  0.00    +0.019 C 
ATOM     12  C   UNL     1      -0.488  -1.673   1.221  0.00  0.00    +0.094 C 
ATOM     13  C   UNL     1      -2.200  -3.335   0.934  0.00  0.00    +0.085 C 
ENDROOT
BRANCH   9  15
ATOM      5  N   UNL     1       0.715  -0.282  -1.867  0.00  0.00    -0.237 NA
ATOM      6  N   UNL     1       2.850   0.816  -1.657  0.00  0.00    -0.232 NA
ATOM     15  C   UNL     1       0.995  -0.961  -0.735  0.00  0.00    +0.050 A 
ATOM     20  C   UNL     1       2.165  -0.809  -0.019  0.00  0.00    +0.052 A 
ATOM     21  C   UNL     1       3.065   0.103  -0.532  0.00  0.00    +0.076 A 
ATOM     22  C   UNL     1       1.672   0.578  -2.265  0.00  0.00    +0.127 A 
ATOM     24  C   UNL     1       1.399   1.346  -3.514  0.00  0.00    +0.088 C 
BRANCH  21  23
ATOM      1 BR   UNL     1       3.021   2.438   1.653  0.00  0.00    -0.050 Br
ATOM     23  C   UNL     1       4.327   0.354   0.122  0.00  0.00    +0.014 A 
ATOM     25  C   UNL     1       4.470   1.340   1.099  0.00  0.00    +0.027 A 
ATOM     26  C   UNL     1       5.422  -0.425  -0.249  0.00  0.00    +0.011 A 
ATOM     27  C   UNL     1       5.710   1.546   1.704  0.00  0.00    +0.016 A 
ATOM     28  C   UNL     1       6.662  -0.218   0.356  0.00  0.00    +0.001 A 
ATOM     29  C   UNL     1       6.806   0.767   1.333  0.00  0.00    +0.001 A 
ENDBRANCH  21  23
ENDBRANCH   9  15
BRANCH   8  14
ATOM     14  C   UNL     1      -2.832   0.361   1.352  0.00  0.00    +0.123 C 
BRANCH  14   4
ATOM      2  O   UNL     1      -5.676   0.696   1.857  0.00  0.00    -0.276 OA
ATOM      4  N   UNL     1      -3.745   1.219   0.661  0.00  0.00    -0.314 N 
ATOM     19  C   UNL     1      -5.097   1.315   0.973  0.00  0.00    +0.216 C 
ATOM     30  H   UNL     1      -3.377   1.790  -0.094  0.00  0.00    +0.149 HD
BRANCH  19  16
ATOM     16  C   UNL     1      -5.862   2.275   0.124  0.00  0.00    +0.075 C 
ATOM     17  C   UNL     1      -5.827   2.118  -1.368  0.00  0.00    +0.013 C 
ATOM     18  C   UNL     1      -7.080   1.792  -0.608  0.00  0.00    +0.013 C 
ENDBRANCH  19  16
ENDBRANCH  14   4
ENDBRANCH   8  14
TORSDOF 5
