REMARK  Name = 75536066
REMARK  6 active torsions:
REMARK  status: ('A' for Active; 'I' for Inactive)
REMARK    1  A    between atoms: O_1  and  C_9
REMARK    2  A    between atoms: O_2  and  C_11
REMARK    3  A    between atoms: N_4  and  C_8
REMARK    4  A    between atoms: C_7  and  C_12
REMARK    5  A    between atoms: C_15  and  C_17
REMARK    6  A    between atoms: C_23  and  C_24
REMARK                            x       y       z     vdW  Elec       q    Type
REMARK                         _______ _______ _______ _____ _____    ______ ____
ROOT
ATOM      7  C   UNL     1       2.251   0.417   0.975  0.00  0.00    +0.046 C 
ATOM      8  C   UNL     1       1.440   1.210  -0.076  0.00  0.00    +0.112 C 
ATOM      9  C   UNL     1       1.850   2.659   0.177  0.00  0.00    +0.164 C 
ATOM     10  C   UNL     1       3.463   1.315   1.337  0.00  0.00    +0.044 C 
ATOM     11  C   UNL     1       3.346   2.553   0.451  0.00  0.00    +0.145 C 
ENDROOT
BRANCH   7  12
ATOM      5  N   UNL     1       2.503  -3.366   0.847  0.00  0.00    -0.263 NA
ATOM     12  C   UNL     1       2.623  -0.975   0.509  0.00  0.00    -0.024 A 
ATOM     13  C   UNL     1       3.393  -1.167  -0.632  0.00  0.00    +0.007 A 
ATOM     14  C   UNL     1       2.206  -2.097   1.207  0.00  0.00    +0.114 A 
ATOM     16  C   UNL     1       3.720  -2.457  -1.034  0.00  0.00    +0.020 A 
ATOM     18  C   UNL     1       3.254  -3.513  -0.267  0.00  0.00    +0.111 A 
ENDBRANCH   7  12
BRANCH   8   4
ATOM      3  O   UNL     1      -0.185  -0.737  -1.423  0.00  0.00    -0.270 OA
ATOM      4  N   UNL     1       0.020   1.017   0.080  0.00  0.00    -0.305 N 
ATOM     15  C   UNL     1      -0.683   0.045  -0.617  0.00  0.00    +0.244 C 
ATOM     25  H   UNL     1      -0.461   1.646   0.714  0.00  0.00    +0.149 HD
BRANCH  15  17
ATOM     17  C   UNL     1      -2.147  -0.008  -0.364  0.00  0.00    +0.037 A 
ATOM     19  C   UNL     1      -3.007  -0.500  -1.346  0.00  0.00    +0.014 A 
ATOM     20  C   UNL     1      -2.659   0.433   0.856  0.00  0.00    +0.014 A 
ATOM     21  C   UNL     1      -4.380  -0.550  -1.107  0.00  0.00    +0.019 A 
ATOM     22  C   UNL     1      -4.033   0.382   1.094  0.00  0.00    +0.019 A 
ATOM     23  C   UNL     1      -4.893  -0.110   0.113  0.00  0.00    +0.052 A 
BRANCH  23  24
ATOM      6  N   UNL     1      -7.443  -0.203   0.555  0.00  0.00    -0.191 NA
ATOM     24  C   UNL     1      -6.300  -0.161   0.357  0.00  0.00    +0.099 C 
ENDBRANCH  23  24
ENDBRANCH  15  17
ENDBRANCH   8   4
BRANCH   9   1
ATOM      1  O   UNL     1       1.592   3.492  -0.938  0.00  0.00    -0.387 OA
ATOM     26  H   UNL     1       1.964   4.369  -0.739  0.00  0.00    +0.210 HD
ENDBRANCH   9   1
BRANCH  11   2
ATOM      2  O   UNL     1       4.069   2.322  -0.754  0.00  0.00    -0.389 OA
ATOM     27  H   UNL     1       5.007   2.223  -0.517  0.00  0.00    +0.210 HD
ENDBRANCH  11   2
TORSDOF 6
