REMARK  Name = 56776085
REMARK  5 active torsions:
REMARK  status: ('A' for Active; 'I' for Inactive)
REMARK    1  A    between atoms: N_6  and  C_25
REMARK    2  A    between atoms: N_8  and  C_27
REMARK    3  A    between atoms: C_11  and  C_16
REMARK    4  A    between atoms: C_16  and  C_19
REMARK    5  A    between atoms: C_25  and  C_30
REMARK                            x       y       z     vdW  Elec       q    Type
REMARK                         _______ _______ _______ _____ _____    ______ ____
ROOT
ATOM      1  O   UNL     1      -0.897   0.281   1.461  0.00  0.00    -0.492 OA
ATOM      2  O   UNL     1       0.256  -2.955   2.630  0.00  0.00    -0.274 OA
ATOM      5  N   UNL     1       1.155  -3.218   0.512  0.00  0.00    -0.300 N 
ATOM      7  N   UNL     1      -1.953  -2.665   0.441  0.00  0.00    -0.304 NA
ATOM     10  C   UNL     1       2.688  -1.382  -0.116  0.00  0.00    +0.010 C 
ATOM     11  C   UNL     1       2.853  -2.031  -1.519  0.00  0.00    +0.004 C 
ATOM     12  C   UNL     1       1.592  -2.820  -1.913  0.00  0.00    +0.023 C 
ATOM     13  C   UNL     1       2.392  -2.521   0.880  0.00  0.00    +0.111 C 
ATOM     14  C   UNL     1       1.591  -0.290  -0.098  0.00  0.00    +0.008 C 
ATOM     15  C   UNL     1       1.170  -3.816  -0.831  0.00  0.00    +0.108 C 
ATOM     17  C   UNL     1       1.465   0.490   1.220  0.00  0.00    +0.041 C 
ATOM     18  C   UNL     1       0.128  -3.312   1.453  0.00  0.00    +0.229 C 
ATOM     20  C   UNL     1       0.134   1.250   1.255  0.00  0.00    +0.229 C 
ATOM     21  C   UNL     1      -1.229  -3.812   0.992  0.00  0.00    +0.178 C 
ATOM     22  C   UNL     1      -2.648  -1.905   1.486  0.00  0.00    +0.120 C 
ATOM     23  C   UNL     1      -2.164   0.560   1.024  0.00  0.00    +0.125 A 
ATOM     24  C   UNL     1      -3.063  -0.528   1.010  0.00  0.00    +0.010 A 
ATOM     26  C   UNL     1      -4.372  -0.330   0.544  0.00  0.00    +0.031 A 
ATOM     27  C   UNL     1      -4.792   0.932   0.127  0.00  0.00    +0.030 A 
ATOM     28  C   UNL     1      -2.602   1.827   0.625  0.00  0.00    +0.048 A 
ATOM     29  C   UNL     1      -3.911   2.008   0.175  0.00  0.00    +0.027 A 
ATOM     40  H   UNL     1      -2.646  -2.996  -0.231  0.00  0.00    +0.123 HD
ENDROOT
BRANCH  27   8
ATOM      4  O   UNL     1      -8.599   1.591  -1.532  0.00  0.00    -0.377 OA
ATOM      8  N   UNL     1      -6.095   1.115  -0.348  0.00  0.00    -0.326 N 
ATOM     31  C   UNL     1      -6.520   0.342  -1.523  0.00  0.00    +0.133 C 
ATOM     32  C   UNL     1      -6.760   2.412  -0.180  0.00  0.00    +0.133 C 
ATOM     33  C   UNL     1      -8.043   0.277  -1.574  0.00  0.00    +0.178 C 
ATOM     34  C   UNL     1      -8.269   2.237  -0.303  0.00  0.00    +0.178 C 
ENDBRANCH  27   8
BRANCH  11  16
ATOM     16  C   UNL     1       3.230  -1.031  -2.612  0.00  0.00    +0.099 C 
BRANCH  16  19
ATOM      3  O   UNL     1       5.589  -0.848  -2.110  0.00  0.00    -0.276 OA
ATOM      6  N   UNL     1       4.297   1.079  -2.239  0.00  0.00    -0.311 N 
ATOM     19  C   UNL     1       4.511  -0.290  -2.294  0.00  0.00    +0.214 C 
ATOM     39  H   UNL     1       3.365   1.451  -2.391  0.00  0.00    +0.149 HD
BRANCH   6  25
ATOM     25  C   UNL     1       5.346   2.031  -1.952  0.00  0.00    +0.139 C 
BRANCH  25  30
ATOM      9  N   UNL     1       5.704   2.808   2.259  0.00  0.00    -0.263 NA
ATOM     30  C   UNL     1       5.471   2.302  -0.480  0.00  0.00    -0.027 A 
ATOM     35  C   UNL     1       4.538   3.108   0.163  0.00  0.00    +0.025 A 
ATOM     36  C   UNL     1       6.520   1.749   0.245  0.00  0.00    +0.025 A 
ATOM     37  C   UNL     1       4.698   3.328   1.521  0.00  0.00    +0.111 A 
ATOM     38  C   UNL     1       6.592   2.030   1.599  0.00  0.00    +0.111 A 
ENDBRANCH  25  30
ENDBRANCH   6  25
ENDBRANCH  16  19
ENDBRANCH  11  16
TORSDOF 5
