REMARK  Name = 11885937
REMARK  7 active torsions:
REMARK  status: ('A' for Active; 'I' for Inactive)
REMARK    1  A    between atoms: O_3  and  C_14
REMARK    2  A    between atoms: O_3  and  C_18
REMARK    3  A    between atoms: O_6  and  C_28
REMARK    4  A    between atoms: O_6  and  C_29
REMARK    5  A    between atoms: N_7  and  C_13
REMARK    6  A    between atoms: N_8  and  C_21
REMARK    7  A    between atoms: C_17  and  C_19
REMARK                            x       y       z     vdW  Elec       q    Type
REMARK                         _______ _______ _______ _____ _____    ______ ____
ROOT
ATOM      3  O   UNL     1      -0.129   2.242  -0.020  0.00  0.00    -0.442 OA
ENDROOT
BRANCH   3  14
ATOM      1  O   UNL     1      -2.593   1.423   0.962  0.00  0.00    -0.368 OA
ATOM      2  O   UNL     1      -3.268   3.072  -1.534  0.00  0.00    -0.368 OA
ATOM     11  C   UNL     1      -3.507   1.686  -1.210  0.00  0.00    +0.173 C 
ATOM     12  C   UNL     1      -2.302   1.203  -0.429  0.00  0.00    +0.192 C 
ATOM     13  C   UNL     1      -4.647   1.572  -0.226  0.00  0.00    +0.130 C 
ATOM     14  C   UNL     1      -1.206   2.117  -0.921  0.00  0.00    +0.235 C 
ATOM     15  C   UNL     1      -3.957   1.849   1.099  0.00  0.00    +0.185 C 
ATOM     16  C   UNL     1      -1.942   3.424  -1.114  0.00  0.00    +0.207 C 
BRANCH  13   7
ATOM      4  O   UNL     1      -7.326   0.865   0.528  0.00  0.00    -0.268 OA
ATOM      7  N   UNL     1      -5.229   0.253  -0.249  0.00  0.00    -0.302 N 
ATOM     17  C   UNL     1      -6.540   0.008   0.136  0.00  0.00    +0.264 C 
ATOM     35  H   UNL     1      -4.640  -0.533  -0.513  0.00  0.00    +0.150 HD
BRANCH  17  19
ATOM      9  N   UNL     1      -6.068  -2.310  -0.337  0.00  0.00    -0.247 NA
ATOM     10  N   UNL     1      -8.670  -3.062   0.390  0.00  0.00    -0.259 NA
ATOM     19  C   UNL     1      -6.980  -1.410   0.080  0.00  0.00    +0.143 A 
ATOM     20  C   UNL     1      -8.258  -1.779   0.437  0.00  0.00    +0.143 A 
ATOM     24  C   UNL     1      -6.479  -3.592  -0.385  0.00  0.00    +0.131 A 
ATOM     25  C   UNL     1      -7.757  -3.962  -0.027  0.00  0.00    +0.130 A 
ENDBRANCH  17  19
ENDBRANCH  13   7
ENDBRANCH   3  14
BRANCH   3  18
ATOM      5  O   UNL     1       0.969   0.544  -1.090  0.00  0.00    -0.226 OA
ATOM      8  N   UNL     1       1.899   1.637   0.760  0.00  0.00    -0.251 N 
ATOM     18  C   UNL     1       0.936   1.384  -0.198  0.00  0.00    +0.405 C 
ATOM     36  H   UNL     1       1.690   2.380   1.422  0.00  0.00    +0.158 HD
BRANCH   8  21
ATOM     21  C   UNL     1       3.142   0.988   0.937  0.00  0.00    +0.037 A 
ATOM     22  C   UNL     1       3.993   1.382   1.970  0.00  0.00    +0.027 A 
ATOM     23  C   UNL     1       3.518  -0.046   0.080  0.00  0.00    +0.027 A 
ATOM     26  C   UNL     1       5.220   0.741   2.146  0.00  0.00    +0.048 A 
ATOM     27  C   UNL     1       4.744  -0.687   0.256  0.00  0.00    +0.048 A 
ATOM     28  C   UNL     1       5.595  -0.293   1.288  0.00  0.00    +0.129 A 
BRANCH  28   6
ATOM      6  O   UNL     1       6.791  -0.919   1.461  0.00  0.00    -0.456 OA
BRANCH   6  29
ATOM     29  C   UNL     1       7.564  -1.153   0.335  0.00  0.00    +0.128 A 
ATOM     30  C   UNL     1       7.737  -0.145  -0.613  0.00  0.00    +0.046 A 
ATOM     31  C   UNL     1       8.168  -2.396   0.150  0.00  0.00    +0.046 A 
ATOM     32  C   UNL     1       8.515  -0.380  -1.747  0.00  0.00    +0.004 A 
ATOM     33  C   UNL     1       8.946  -2.632  -0.984  0.00  0.00    +0.004 A 
ATOM     34  C   UNL     1       9.119  -1.624  -1.933  0.00  0.00    +0.000 A 
ENDBRANCH   6  29
ENDBRANCH  28   6
ENDBRANCH   8  21
ENDBRANCH   3  18
TORSDOF 7
