REMARK  Name = 25313511
REMARK  8 active torsions:
REMARK  status: ('A' for Active; 'I' for Inactive)
REMARK    1  A    between atoms: N_5  and  C_18
REMARK    2  A    between atoms: N_5  and  C_19
REMARK    3  A    between atoms: C_7  and  C_13
REMARK    4  A    between atoms: C_8  and  C_12
REMARK    5  A    between atoms: C_12  and  C_14
REMARK    6  A    between atoms: C_13  and  C_15
REMARK    7  A    between atoms: C_17  and  C_20
REMARK    8  A    between atoms: C_18  and  C_21
REMARK                            x       y       z     vdW  Elec       q    Type
REMARK                         _______ _______ _______ _____ _____    ______ ____
ROOT
ATOM      4  N   UNL     1       1.668   3.334   1.088  0.00  0.00    -0.316 NA
ATOM      7  C   UNL     1       2.479   1.161  -0.736  0.00  0.00    +0.004 C 
ATOM      8  C   UNL     1       1.127   1.161   0.017  0.00  0.00    +0.012 C 
ATOM      9  C   UNL     1       2.972   2.610  -0.881  0.00  0.00    +0.019 C 
ATOM     10  C   UNL     1       1.204   1.967   1.324  0.00  0.00    +0.085 C 
ATOM     11  C   UNL     1       2.983   3.359   0.451  0.00  0.00    +0.081 C 
ATOM     28  H   UNL     1       1.715   3.833   1.976  0.00  0.00    +0.122 HD
ENDROOT
BRANCH   8  12
ATOM     12  C   UNL     1       0.590  -0.246   0.284  0.00  0.00    +0.064 C 
BRANCH  12  14
ATOM      3  O   UNL     1      -2.762  -0.108   1.591  0.00  0.00    -0.354 OA
ATOM      6  N   UNL     1      -1.381  -0.075   1.742  0.00  0.00    -0.083 NA
ATOM     14  C   UNL     1      -0.895  -0.232   0.507  0.00  0.00    +0.085 A 
ATOM     16  C   UNL     1      -1.912  -0.367  -0.454  0.00  0.00    +0.076 A 
ATOM     17  C   UNL     1      -3.066  -0.282   0.280  0.00  0.00    +0.167 A 
BRANCH  17  20
ATOM      1  F   UNL     1      -8.492  -0.489  -0.930  0.00  0.00    -0.205 F 
ATOM     20  C   UNL     1      -4.465  -0.337  -0.032  0.00  0.00    +0.020 A 
ATOM     22  C   UNL     1      -4.879  -0.513  -1.353  0.00  0.00    +0.014 A 
ATOM     23  C   UNL     1      -5.411  -0.212   0.985  0.00  0.00    +0.014 A 
ATOM     24  C   UNL     1      -6.239  -0.565  -1.656  0.00  0.00    +0.039 A 
ATOM     25  C   UNL     1      -6.772  -0.264   0.682  0.00  0.00    +0.039 A 
ATOM     26  C   UNL     1      -7.186  -0.440  -0.639  0.00  0.00    +0.123 A 
ENDBRANCH  17  20
ENDBRANCH  12  14
ENDBRANCH   8  12
BRANCH   7  13
ATOM     13  C   UNL     1       3.554   0.281  -0.086  0.00  0.00    +0.100 C 
BRANCH  13  15
ATOM      2  O   UNL     1       4.619   0.278  -2.233  0.00  0.00    -0.276 OA
ATOM      5  N   UNL     1       5.677  -0.906  -0.541  0.00  0.00    -0.293 N 
ATOM     15  C   UNL     1       4.653  -0.106  -1.060  0.00  0.00    +0.216 C 
ATOM     19  C   UNL     1       6.801  -1.359  -1.351  0.00  0.00    +0.133 C 
BRANCH   5  18
ATOM     18  C   UNL     1       5.696  -1.348   0.851  0.00  0.00    +0.196 C 
BRANCH  18  21
ATOM     21  C   UNL     1       5.003  -2.626   1.008  0.00  0.00    -0.086 C 
ATOM     27  C   UNL     1       4.434  -3.675   1.141  0.00  0.00    +0.005 C 
ENDBRANCH  18  21
ENDBRANCH   5  18
ENDBRANCH  13  15
ENDBRANCH   7  13
TORSDOF 7
