REMARK  Name = 25313098
REMARK  8 active torsions:
REMARK  status: ('A' for Active; 'I' for Inactive)
REMARK    1  A    between atoms: O_2  and  C_24
REMARK    2  A    between atoms: N_5  and  C_19
REMARK    3  A    between atoms: N_6  and  C_25
REMARK    4  A    between atoms: C_7  and  C_11
REMARK    5  A    between atoms: C_8  and  C_17
REMARK    6  A    between atoms: C_11  and  C_19
REMARK    7  A    between atoms: C_13  and  C_16
REMARK    8  A    between atoms: C_17  and  C_24
REMARK                            x       y       z     vdW  Elec       q    Type
REMARK                         _______ _______ _______ _____ _____    ______ ____
ROOT
ATOM      1  O   UNL     1      -2.730  -3.191   1.840  0.00  0.00    -0.275 OA
ATOM      4  N   UNL     1      -3.232  -1.611   0.219  0.00  0.00    -0.301 N 
ATOM      7  C   UNL     1      -2.800   0.549  -0.926  0.00  0.00    +0.011 C 
ATOM      8  C   UNL     1      -4.003   1.154  -0.157  0.00  0.00    +0.006 C 
ATOM      9  C   UNL     1      -2.988  -0.971  -1.078  0.00  0.00    +0.111 C 
ATOM     10  C   UNL     1      -4.252   0.420   1.171  0.00  0.00    +0.023 C 
ATOM     12  C   UNL     1      -4.379  -1.086   0.958  0.00  0.00    +0.108 C 
ATOM     16  C   UNL     1      -2.471  -2.665   0.747  0.00  0.00    +0.219 C 
ENDROOT
BRANCH  16  13
ATOM     13  C   UNL     1      -1.280  -3.157  -0.091  0.00  0.00    +0.075 C 
ATOM     14  C   UNL     1      -0.570  -4.445   0.375  0.00  0.00    +0.013 C 
ATOM     15  C   UNL     1      -1.595  -3.897  -1.407  0.00  0.00    +0.013 C 
ATOM     18  C   UNL     1      -0.360  -4.777  -1.117  0.00  0.00    +0.001 C 
ENDBRANCH  16  13
BRANCH   7  11
ATOM     11  C   UNL     1      -1.437   0.857  -0.292  0.00  0.00    +0.020 C 
BRANCH  11  19
ATOM     19  C   UNL     1      -0.332   0.819  -1.338  0.00  0.00    +0.085 C 
BRANCH  19   5
ATOM      5  N   UNL     1       0.958   1.097  -0.707  0.00  0.00    -0.299 NA
ATOM      6  N   UNL     1       3.749   0.744  -0.213  0.00  0.00    -0.327 N 
ATOM     20  C   UNL     1       1.948   1.499  -1.714  0.00  0.00    +0.103 C 
ATOM     21  C   UNL     1       1.439  -0.083   0.023  0.00  0.00    +0.103 C 
ATOM     22  C   UNL     1       3.287   1.848  -1.060  0.00  0.00    +0.120 C 
ATOM     23  C   UNL     1       2.761   0.214   0.735  0.00  0.00    +0.120 C 
BRANCH   6  25
ATOM     25  C   UNL     1       5.103   0.650   0.128  0.00  0.00    +0.030 A 
ATOM     26  C   UNL     1       5.876   1.806   0.239  0.00  0.00    +0.023 A 
ATOM     27  C   UNL     1       5.679  -0.599   0.359  0.00  0.00    +0.023 A 
ATOM     28  C   UNL     1       7.225   1.712   0.582  0.00  0.00    +0.002 A 
ATOM     29  C   UNL     1       7.028  -0.693   0.703  0.00  0.00    +0.002 A 
ATOM     30  C   UNL     1       7.801   0.463   0.814  0.00  0.00    +0.000 A 
ENDBRANCH   6  25
ENDBRANCH  19   5
ENDBRANCH  11  19
ENDBRANCH   7  11
BRANCH   8  17
ATOM     17  C   UNL     1      -3.872   2.659   0.075  0.00  0.00    +0.124 C 
BRANCH  17  24
ATOM      3  O   UNL     1      -6.295   2.742   0.323  0.00  0.00    -0.251 OA
ATOM     24  C   UNL     1      -5.210   3.304   0.307  0.00  0.00    +0.305 C 
BRANCH  24   2
ATOM      2  O   UNL     1      -5.048   4.637   0.503  0.00  0.00    -0.481 OA
ATOM     31  H   UNL     1      -5.904   5.091   0.658  0.00  0.00    +0.295 HD
ENDBRANCH  24   2
ENDBRANCH  17  24
ENDBRANCH   8  17
TORSDOF 8
