REMARK  Name = 26762517
REMARK  7 active torsions:
REMARK  status: ('A' for Active; 'I' for Inactive)
REMARK    1  A    between atoms: S_1  and  N_9
REMARK    2  A    between atoms: S_1  and  C_21
REMARK    3  A    between atoms: N_9  and  C_12
REMARK    4  A    between atoms: N_10  and  C_25
REMARK    5  A    between atoms: C_14  and  C_18
REMARK    6  A    between atoms: C_18  and  C_19
REMARK    7  A    between atoms: C_19  and  C_20
REMARK                            x       y       z     vdW  Elec       q    Type
REMARK                         _______ _______ _______ _____ _____    ______ ____
ROOT
ATOM      3  O   UNL     1       4.340  -3.266  -0.132  0.00  0.00    -0.274 OA
ATOM      7  N   UNL     1       1.020  -1.865  -0.389  0.00  0.00    -0.285 NA
ATOM      8  N   UNL     1       2.750  -3.027   1.483  0.00  0.00    -0.313 N 
ATOM     11  C   UNL     1       2.133  -2.673  -0.887  0.00  0.00    +0.145 C 
ATOM     12  C   UNL     1       2.373  -0.370  -1.598  0.00  0.00    +0.092 C 
ATOM     13  C   UNL     1       2.681  -1.808  -2.018  0.00  0.00    +0.050 C 
ATOM     14  C   UNL     1       0.440  -2.402   0.841  0.00  0.00    +0.075 C 
ATOM     15  C   UNL     1       1.481  -0.478  -0.362  0.00  0.00    +0.106 C 
ATOM     16  C   UNL     1       1.480  -2.511   1.951  0.00  0.00    +0.123 C 
ATOM     17  C   UNL     1       3.181  -2.980   0.177  0.00  0.00    +0.230 C 
ATOM     31  H   UNL     1       3.432  -3.288   2.189  0.00  0.00    +0.149 HD
ENDROOT
BRANCH  12   9
ATOM      9  N   UNL     1       3.623   0.347  -1.258  0.00  0.00    -0.185 NA
ATOM     32  H   UNL     1       4.183  -0.085  -0.511  0.00  0.00    +0.148 HD
BRANCH   9   1
ATOM      1  S   UNL     1       3.710   2.032  -1.448  0.00  0.00    +0.065 S 
ATOM      4  O   UNL     1       2.737   2.458  -2.437  0.00  0.00    -0.153 OA
ATOM      5  O   UNL     1       5.102   2.415  -1.582  0.00  0.00    -0.153 OA
BRANCH   1  21
ATOM      2  S   UNL     1       4.263   2.318   1.416  0.00  0.00    -0.077 S 
ATOM     21  C   UNL     1       3.166   2.605   0.133  0.00  0.00    +0.142 A 
ATOM     22  C   UNL     1       2.025   3.247   0.562  0.00  0.00    +0.036 A 
ATOM     23  C   UNL     1       2.053   3.506   1.963  0.00  0.00    +0.010 A 
ATOM     24  C   UNL     1       3.213   3.053   2.551  0.00  0.00    +0.047 A 
ENDBRANCH   1  21
ENDBRANCH   9   1
ENDBRANCH  12   9
BRANCH  14  18
ATOM     18  C   UNL     1      -0.779  -1.605   1.306  0.00  0.00    +0.029 C 
BRANCH  18  19
ATOM     19  C   UNL     1      -1.840  -1.484   0.217  0.00  0.00    +0.098 C 
BRANCH  19  20
ATOM      6  O   UNL     1      -3.169  -0.179   1.748  0.00  0.00    -0.275 OA
ATOM     10  N   UNL     1      -3.988  -0.622  -0.407  0.00  0.00    -0.285 N 
ATOM     20  C   UNL     1      -3.070  -0.688   0.636  0.00  0.00    +0.217 C 
ATOM     33  H   UNL     1      -3.744  -1.091  -1.277  0.00  0.00    +0.155 HD
BRANCH  10  25
ATOM     25  C   UNL     1      -5.247   0.025  -0.409  0.00  0.00    +0.033 A 
ATOM     26  C   UNL     1      -6.047  -0.009  -1.552  0.00  0.00    +0.023 A 
ATOM     27  C   UNL     1      -5.688   0.696   0.731  0.00  0.00    +0.023 A 
ATOM     28  C   UNL     1      -7.287   0.629  -1.554  0.00  0.00    +0.002 A 
ATOM     29  C   UNL     1      -6.928   1.334   0.729  0.00  0.00    +0.002 A 
ATOM     30  C   UNL     1      -7.728   1.300  -0.413  0.00  0.00    +0.000 A 
ENDBRANCH  10  25
ENDBRANCH  19  20
ENDBRANCH  18  19
ENDBRANCH  14  18
TORSDOF 7
