REMARK  Name = 40586258
REMARK  9 active torsions:
REMARK  status: ('A' for Active; 'I' for Inactive)
REMARK    1  A    between atoms: O_2  and  C_15
REMARK    2  A    between atoms: O_3  and  C_20
REMARK    3  A    between atoms: N_8  and  C_26
REMARK    4  A    between atoms: C_10  and  C_18
REMARK    5  A    between atoms: C_12  and  C_20
REMARK    6  A    between atoms: C_12  and  C_21
REMARK    7  A    between atoms: C_13  and  C_23
REMARK    8  A    between atoms: C_23  and  C_24
REMARK    9  A    between atoms: C_27  and  C_30
REMARK                            x       y       z     vdW  Elec       q    Type
REMARK                         _______ _______ _______ _____ _____    ______ ____
ROOT
ATOM      1  S   UNL     1      -0.399   3.123   0.106  0.00  0.00    -0.057 S 
ATOM      5  O   UNL     1       3.568   0.646  -0.085  0.00  0.00    -0.266 OA
ATOM      7  N   UNL     1       0.557   0.723  -0.016  0.00  0.00    -0.229 NA
ATOM      9  N   UNL     1       2.153   2.529   0.029  0.00  0.00    -0.258 N 
ATOM     10  C   UNL     1      -3.042  -0.594   0.406  0.00  0.00    -0.019 C 
ATOM     11  C   UNL     1      -3.673   0.666  -0.336  0.00  0.00    +0.011 C 
ATOM     12  C   UNL     1      -5.247   0.758  -0.377  0.00  0.00    +0.021 C 
ATOM     13  C   UNL     1      -1.514  -0.717  -0.044  0.00  0.00    +0.054 C 
ATOM     14  C   UNL     1      -3.787  -1.880  -0.038  0.00  0.00    +0.010 C 
ATOM     15  C   UNL     1      -5.831  -0.623  -0.792  0.00  0.00    +0.123 C 
ATOM     16  C   UNL     1      -2.979   1.989   0.100  0.00  0.00    +0.049 C 
ATOM     17  C   UNL     1      -5.303  -1.777   0.052  0.00  0.00    +0.032 C 
ATOM     18  C   UNL     1      -3.118  -0.484   1.948  0.00  0.00    +0.012 C 
ATOM     19  C   UNL     1      -0.821   0.620   0.020  0.00  0.00    +0.058 A 
ATOM     21  C   UNL     1      -5.667   1.784  -1.468  0.00  0.00    +0.016 C 
ATOM     22  C   UNL     1      -1.497   1.822   0.066  0.00  0.00    +0.015 A 
ATOM     25  C   UNL     1       0.892   1.994   0.033  0.00  0.00    +0.165 A 
ATOM     27  C   UNL     1       3.401   1.860  -0.028  0.00  0.00    +0.285 C 
ATOM     40  H   UNL     1       2.177   3.545   0.068  0.00  0.00    +0.157 HD
ENDROOT
BRANCH  27  30
ATOM      6  O   UNL     1       4.427   4.072  -0.003  0.00  0.00    -0.458 OA
ATOM     30  C   UNL     1       4.609   2.726  -0.044  0.00  0.00    +0.189 A 
ATOM     33  C   UNL     1       5.950   2.421  -0.094  0.00  0.00    +0.054 A 
ATOM     35  C   UNL     1       6.635   3.659  -0.083  0.00  0.00    +0.042 A 
ATOM     36  C   UNL     1       5.665   4.633  -0.026  0.00  0.00    +0.196 A 
ENDBRANCH  27  30
BRANCH  15   2
ATOM      2  O   UNL     1      -7.256  -0.611  -0.713  0.00  0.00    -0.391 OA
ATOM     37  H   UNL     1      -7.576  -1.474  -1.025  0.00  0.00    +0.210 HD
ENDBRANCH  15   2
BRANCH  12  20
ATOM     20  C   UNL     1      -5.895   1.257   0.933  0.00  0.00    +0.165 C 
BRANCH  20   3
ATOM      3  O   UNL     1      -7.291   1.296   0.739  0.00  0.00    -0.394 OA
ATOM     38  H   UNL     1      -7.689   1.620   1.564  0.00  0.00    +0.209 HD
ENDBRANCH  20   3
ENDBRANCH  12  20
BRANCH  13  23
ATOM     23  C   UNL     1      -0.716  -1.798   0.697  0.00  0.00    +0.106 C 
BRANCH  23  24
ATOM      4  O   UNL     1       0.416  -2.363  -1.353  0.00  0.00    -0.275 OA
ATOM      8  N   UNL     1       1.483  -2.713   0.710  0.00  0.00    -0.285 N 
ATOM     24  C   UNL     1       0.444  -2.319  -0.127  0.00  0.00    +0.218 C 
ATOM     39  H   UNL     1       1.346  -2.620   1.714  0.00  0.00    +0.155 HD
BRANCH   8  26
ATOM     26  C   UNL     1       2.737  -3.252   0.335  0.00  0.00    +0.033 A 
ATOM     28  C   UNL     1       3.669  -3.597   1.313  0.00  0.00    +0.023 A 
ATOM     29  C   UNL     1       3.040  -3.439  -1.014  0.00  0.00    +0.023 A 
ATOM     31  C   UNL     1       4.905  -4.128   0.943  0.00  0.00    +0.002 A 
ATOM     32  C   UNL     1       4.275  -3.970  -1.384  0.00  0.00    +0.002 A 
ATOM     34  C   UNL     1       5.208  -4.315  -0.406  0.00  0.00    +0.000 A 
ENDBRANCH   8  26
ENDBRANCH  23  24
ENDBRANCH  13  23
TORSDOF 7
