REMARK  Name = 25388994
REMARK  7 active torsions:
REMARK  status: ('A' for Active; 'I' for Inactive)
REMARK    1  A    between atoms: N_3  and  C_23
REMARK    2  A    between atoms: N_4  and  C_15
REMARK    3  A    between atoms: N_6  and  C_26
REMARK    4  A    between atoms: C_8  and  C_14
REMARK    5  A    between atoms: C_9  and  C_15
REMARK    6  A    between atoms: C_17  and  C_18
REMARK    7  A    between atoms: C_26  and  C_27
REMARK                            x       y       z     vdW  Elec       q    Type
REMARK                         _______ _______ _______ _____ _____    ______ ____
ROOT
ATOM      2  N   UNL     1      -3.112  -1.477   1.398  0.00  0.00    -0.297 NA
ATOM      7  C   UNL     1      -2.239  -1.818  -1.032  0.00  0.00    +0.002 C 
ATOM      8  C   UNL     1      -1.222  -2.386  -0.004  0.00  0.00    +0.055 C 
ATOM      9  C   UNL     1      -3.196  -0.199   0.643  0.00  0.00    +0.074 C 
ATOM     10  C   UNL     1      -2.495  -0.327  -0.726  0.00  0.00    +0.024 C 
ATOM     11  C   UNL     1      -1.712  -1.968   1.412  0.00  0.00    +0.094 C 
ATOM     12  C   UNL     1      -3.571  -2.564  -0.800  0.00  0.00    +0.019 C 
ATOM     13  C   UNL     1      -3.946  -2.478   0.690  0.00  0.00    +0.085 C 
ENDROOT
BRANCH   8  14
ATOM      3  N   UNL     1       1.077  -2.887  -0.955  0.00  0.00    -0.271 N 
ATOM      5  N   UNL     1       2.346  -2.449  -1.019  0.00  0.00    -0.176 NA
ATOM     14  C   UNL     1       0.256  -2.088  -0.215  0.00  0.00    +0.044 A 
ATOM     16  C   UNL     1       1.042  -1.057   0.236  0.00  0.00    +0.048 A 
ATOM     18  C   UNL     1       2.318  -1.331  -0.289  0.00  0.00    +0.066 A 
ATOM     23  C   UNL     1       0.716  -4.106  -1.641  0.00  0.00    +0.172 C 
BRANCH  18  17
ATOM     17  C   UNL     1       3.586  -0.516  -0.111  0.00  0.00    +0.040 C 
ATOM     19  C   UNL     1       4.019  -0.446   1.364  0.00  0.00    +0.010 C 
ATOM     20  C   UNL     1       3.451   0.894  -0.712  0.00  0.00    +0.010 C 
ATOM     21  C   UNL     1       5.301   0.368   1.532  0.00  0.00    +0.001 C 
ATOM     22  C   UNL     1       4.736   1.702  -0.535  0.00  0.00    +0.001 C 
ATOM     24  C   UNL     1       5.167   1.762   0.927  0.00  0.00    +0.000 C 
ENDBRANCH  18  17
ENDBRANCH   8  14
BRANCH   9  15
ATOM     15  C   UNL     1      -2.663   0.989   1.447  0.00  0.00    +0.124 C 
BRANCH  15   4
ATOM      1  O   UNL     1      -0.635   2.850   0.581  0.00  0.00    -0.253 OA
ATOM      4  N   UNL     1      -2.865   2.216   0.740  0.00  0.00    -0.298 N 
ATOM      6  N   UNL     1      -2.301   4.192  -0.319  0.00  0.00    -0.300 N 
ATOM     25  C   UNL     1      -1.825   3.069   0.353  0.00  0.00    +0.300 C 
ATOM     28  H   UNL     1      -3.819   2.507   0.547  0.00  0.00    +0.150 HD
ATOM     29  H   UNL     1      -3.301   4.281  -0.472  0.00  0.00    +0.150 HD
BRANCH   6  26
ATOM     26  C   UNL     1      -1.432   5.228  -0.825  0.00  0.00    +0.102 C 
ATOM     27  C   UNL     1      -0.797   4.827  -2.140  0.00  0.00    +0.024 C 
ENDBRANCH   6  26
ENDBRANCH  15   4
ENDBRANCH   9  15
TORSDOF 5
