REMARK  Name = 11879569
REMARK  9 active torsions:
REMARK  status: ('A' for Active; 'I' for Inactive)
REMARK    1  A    between atoms: O_6  and  C_21
REMARK    2  A    between atoms: O_6  and  C_24
REMARK    3  A    between atoms: N_8  and  C_17
REMARK    4  A    between atoms: N_9  and  C_18
REMARK    5  A    between atoms: N_13  and  C_23
REMARK    6  A    between atoms: N_14  and  C_29
REMARK    7  A    between atoms: N_14  and  C_36
REMARK    8  A    between atoms: N_14  and  C_37
REMARK    9  A    between atoms: C_30  and  C_35
REMARK                            x       y       z     vdW  Elec       q    Type
REMARK                         _______ _______ _______ _____ _____    ______ ____
ROOT
ATOM      4  O   UNL     1       0.282  -3.499   0.208  0.00  0.00    -0.370 OA
ATOM      5  O   UNL     1       0.513  -1.506  -2.214  0.00  0.00    -0.370 OA
ATOM     15  C   UNL     1       0.704  -1.377  -0.793  0.00  0.00    +0.176 C 
ATOM     16  C   UNL     1      -0.340  -2.247  -0.120  0.00  0.00    +0.172 C 
ATOM     17  C   UNL     1       2.032  -1.990  -0.393  0.00  0.00    +0.171 C 
ATOM     18  C   UNL     1      -1.398  -2.449  -1.181  0.00  0.00    +0.131 C 
ATOM     19  C   UNL     1       1.673  -3.450  -0.138  0.00  0.00    +0.190 C 
ATOM     20  C   UNL     1      -0.587  -2.392  -2.462  0.00  0.00    +0.185 C 
ENDROOT
BRANCH  18   9
ATOM      7  O   UNL     1      -3.913  -2.513   0.190  0.00  0.00    -0.252 OA
ATOM      9  N   UNL     1      -2.386  -1.398  -1.141  0.00  0.00    -0.292 N 
ATOM     13  N   UNL     1      -4.348  -0.340  -0.585  0.00  0.00    -0.269 N 
ATOM     22  C   UNL     1      -3.595  -1.510  -0.444  0.00  0.00    +0.304 C 
ATOM     38  H   UNL     1      -2.167  -0.511  -1.585  0.00  0.00    +0.151 HD
ATOM     39  H   UNL     1      -3.938   0.401  -1.148  0.00  0.00    +0.156 HD
BRANCH  13  23
ATOM     23  C   UNL     1      -5.620  -0.056  -0.037  0.00  0.00    +0.035 A 
ATOM     26  C   UNL     1      -6.228   1.175  -0.285  0.00  0.00    +0.035 A 
ATOM     27  C   UNL     1      -6.269  -1.007   0.750  0.00  0.00    +0.023 A 
ATOM     30  C   UNL     1      -7.483   1.455   0.256  0.00  0.00    +0.057 A 
ATOM     32  C   UNL     1      -7.524  -0.728   1.290  0.00  0.00    +0.002 A 
ATOM     34  C   UNL     1      -8.131   0.503   1.043  0.00  0.00    +0.012 A 
BRANCH  30  35
ATOM      1  F   UNL     1      -9.356   2.906   0.583  0.00  0.00    -0.166 F 
ATOM      2  F   UNL     1      -7.404   3.839   0.434  0.00  0.00    -0.166 F 
ATOM      3  F   UNL     1      -8.341   2.997  -1.338  0.00  0.00    -0.166 F 
ATOM     35  C   UNL     1      -8.132   2.771  -0.008  0.00  0.00    +0.417 C 
ENDBRANCH  30  35
ENDBRANCH  13  23
ENDBRANCH  18   9
BRANCH  17   8
ATOM      8  N   UNL     1       2.654  -1.297   0.738  0.00  0.00    -0.187 N 
ATOM     10  N   UNL     1       2.021  -1.185   1.915  0.00  0.00    -0.041 NA
ATOM     11  N   UNL     1       4.018  -0.198   2.016  0.00  0.00    -0.071 NA
ATOM     12  N   UNL     1       2.861  -0.512   2.692  0.00  0.00    -0.020 NA
ATOM     21  C   UNL     1       3.869  -0.694   0.809  0.00  0.00    +0.342 A 
BRANCH  21   6
ATOM      6  O   UNL     1       4.736  -0.629  -0.183  0.00  0.00    -0.423 OA
BRANCH   6  24
ATOM     24  C   UNL     1       5.966   0.003  -0.061  0.00  0.00    +0.134 A 
ATOM     25  C   UNL     1       6.088   1.358  -0.364  0.00  0.00    +0.069 A 
ATOM     28  C   UNL     1       7.081  -0.720   0.366  0.00  0.00    +0.046 A 
ATOM     29  C   UNL     1       7.325   1.992  -0.241  0.00  0.00    +0.033 A 
ATOM     31  C   UNL     1       8.317  -0.086   0.490  0.00  0.00    +0.005 A 
ATOM     33  C   UNL     1       8.439   1.270   0.186  0.00  0.00    +0.023 A 
BRANCH  29  14
ATOM     14  N   UNL     1       7.449   3.363  -0.548  0.00  0.00    -0.336 N 
ATOM     36  C   UNL     1       8.729   4.031  -0.423  0.00  0.00    +0.129 C 
ATOM     37  C   UNL     1       6.300   4.119  -1.006  0.00  0.00    +0.129 C 
ENDBRANCH  29  14
ENDBRANCH   6  24
ENDBRANCH  21   6
ENDBRANCH  17   8
TORSDOF 7
