REMARK  Name = 75536669
REMARK  8 active torsions:
REMARK  status: ('A' for Active; 'I' for Inactive)
REMARK    1  A    between atoms: S_1  and  N_7
REMARK    2  A    between atoms: S_1  and  C_17
REMARK    3  A    between atoms: O_3  and  C_11
REMARK    4  A    between atoms: N_6  and  C_10
REMARK    5  A    between atoms: N_6  and  C_15
REMARK    6  A    between atoms: N_7  and  C_14
REMARK    7  A    between atoms: C_12  and  C_14
REMARK    8  A    between atoms: C_15  and  C_16
REMARK                            x       y       z     vdW  Elec       q    Type
REMARK                         _______ _______ _______ _____ _____    ______ ____
ROOT
ATOM      2  O   UNL     1       1.200   1.271   0.683  0.00  0.00    -0.371 OA
ATOM     10  C   UNL     1      -0.752  -0.082   0.626  0.00  0.00    +0.111 C 
ATOM     11  C   UNL     1       0.369  -0.800  -0.103  0.00  0.00    +0.164 C 
ATOM     12  C   UNL     1       1.591  -0.096   0.473  0.00  0.00    +0.164 C 
ATOM     13  C   UNL     1      -0.236   1.347   0.638  0.00  0.00    +0.181 C 
ENDROOT
BRANCH  11   3
ATOM      3  O   UNL     1       0.389  -2.189   0.159  0.00  0.00    -0.388 OA
ATOM     21  H   UNL     1       0.452  -2.319   1.120  0.00  0.00    +0.210 HD
ENDBRANCH  11   3
BRANCH  10   6
ATOM      6  N   UNL     1      -2.046  -0.212  -0.023  0.00  0.00    -0.302 NA
ATOM     20  H   UNL     1      -2.189  -1.185  -0.292  0.00  0.00    +0.123 HD
BRANCH   6  15
ATOM     15  C   UNL     1      -3.124   0.194   0.871  0.00  0.00    +0.156 C 
BRANCH  15  16
ATOM      8  N   UNL     1      -4.896   1.007  -0.704  0.00  0.00    -0.347 N 
ATOM      9  N   UNL     1      -5.371  -0.856   0.407  0.00  0.00    -0.240 NA
ATOM     16  C   UNL     1      -4.473   0.083   0.210  0.00  0.00    +0.121 A 
ATOM     18  C   UNL     1      -6.144   0.634  -1.117  0.00  0.00    +0.104 A 
ATOM     19  C   UNL     1      -6.416  -0.518  -0.417  0.00  0.00    +0.130 A 
ATOM     23  H   UNL     1      -4.381   1.819  -1.019  0.00  0.00    +0.167 HD
ENDBRANCH  15  16
ENDBRANCH   6  15
ENDBRANCH  10   6
BRANCH  12  14
ATOM     14  C   UNL     1       2.801  -0.149  -0.443  0.00  0.00    +0.139 C 
BRANCH  14   7
ATOM      7  N   UNL     1       3.933   0.554   0.192  0.00  0.00    -0.192 NA
ATOM     22  H   UNL     1       3.791   1.570   0.271  0.00  0.00    +0.148 HD
BRANCH   7   1
ATOM      1  S   UNL     1       5.524   0.032  -0.136  0.00  0.00    +0.027 S 
ATOM      4  O   UNL     1       5.686  -1.347   0.282  0.00  0.00    -0.158 OA
ATOM      5  O   UNL     1       6.445   1.057   0.316  0.00  0.00    -0.158 OA
ATOM     17  C   UNL     1       5.520   0.069  -1.914  0.00  0.00    +0.214 C 
ENDBRANCH   7   1
ENDBRANCH  14   7
ENDBRANCH  12  14
TORSDOF 7
