REMARK  Name = 75536097
REMARK  9 active torsions:
REMARK  status: ('A' for Active; 'I' for Inactive)
REMARK    1  A    between atoms: S_1  and  N_7
REMARK    2  A    between atoms: S_1  and  C_17
REMARK    3  A    between atoms: O_2  and  C_11
REMARK    4  A    between atoms: O_3  and  C_13
REMARK    5  A    between atoms: O_6  and  C_20
REMARK    6  A    between atoms: O_6  and  C_26
REMARK    7  A    between atoms: N_7  and  C_9
REMARK    8  A    between atoms: C_10  and  C_14
REMARK    9  A    between atoms: C_25  and  C_27
REMARK                            x       y       z     vdW  Elec       q    Type
REMARK                         _______ _______ _______ _____ _____    ______ ____
ROOT
ATOM      9  C   UNL     1      -2.275   0.077   0.161  0.00  0.00    +0.115 C 
ATOM     10  C   UNL     1      -1.700  -0.884  -0.916  0.00  0.00    +0.043 C 
ATOM     11  C   UNL     1      -3.646  -0.495   0.545  0.00  0.00    +0.162 C 
ATOM     12  C   UNL     1      -2.710  -2.040  -1.013  0.00  0.00    +0.043 C 
ATOM     13  C   UNL     1      -4.027  -1.380  -0.639  0.00  0.00    +0.145 C 
ENDROOT
BRANCH  10  14
ATOM     14  C   UNL     1      -0.289  -1.351  -0.635  0.00  0.00    -0.042 A 
ATOM     15  C   UNL     1       0.726  -1.098  -1.558  0.00  0.00    +0.007 A 
ATOM     16  C   UNL     1      -0.003  -2.033   0.547  0.00  0.00    +0.007 A 
ATOM     18  C   UNL     1       2.027  -1.528  -1.298  0.00  0.00    +0.046 A 
ATOM     19  C   UNL     1       1.298  -2.463   0.807  0.00  0.00    +0.046 A 
ATOM     20  C   UNL     1       2.313  -2.211  -0.116  0.00  0.00    +0.120 A 
BRANCH  20   6
ATOM      6  O   UNL     1       3.583  -2.630   0.137  0.00  0.00    -0.495 OA
ATOM     26  C   UNL     1       3.805  -3.322   1.365  0.00  0.00    +0.277 C 
ENDBRANCH  20   6
ENDBRANCH  10  14
BRANCH  11   2
ATOM      2  O   UNL     1      -3.483  -1.278   1.726  0.00  0.00    -0.388 OA
ATOM     29  H   UNL     1      -3.238  -0.672   2.446  0.00  0.00    +0.210 HD
ENDBRANCH  11   2
BRANCH  13   3
ATOM      3  O   UNL     1      -5.013  -2.337  -0.310  0.00  0.00    -0.389 OA
ATOM     30  H   UNL     1      -5.133  -2.911  -1.086  0.00  0.00    +0.210 HD
ENDBRANCH  13   3
BRANCH   9   7
ATOM      7  N   UNL     1      -2.452   1.428  -0.432  0.00  0.00    -0.184 NA
ATOM     28  H   UNL     1      -2.854   1.489  -1.374  0.00  0.00    +0.148 HD
BRANCH   7   1
ATOM      1  S   UNL     1      -1.691   2.771   0.278  0.00  0.00    +0.059 S 
ATOM      4  O   UNL     1      -2.046   2.840   1.683  0.00  0.00    -0.153 OA
ATOM      5  O   UNL     1      -1.881   3.924  -0.580  0.00  0.00    -0.153 OA
BRANCH   1  17
ATOM     17  C   UNL     1       0.015   2.322   0.169  0.00  0.00    +0.105 A 
ATOM     21  C   UNL     1       0.759   2.677  -0.956  0.00  0.00    +0.030 A 
ATOM     22  C   UNL     1       0.617   1.613   1.209  0.00  0.00    +0.030 A 
ATOM     23  C   UNL     1       2.106   2.323  -1.041  0.00  0.00    +0.021 A 
ATOM     24  C   UNL     1       1.964   1.258   1.123  0.00  0.00    +0.021 A 
ATOM     25  C   UNL     1       2.708   1.614  -0.002  0.00  0.00    +0.052 A 
BRANCH  25  27
ATOM      8  N   UNL     1       5.207   0.955  -0.163  0.00  0.00    -0.191 NA
ATOM     27  C   UNL     1       4.087   1.250  -0.091  0.00  0.00    +0.099 C 
ENDBRANCH  25  27
ENDBRANCH   1  17
ENDBRANCH   7   1
ENDBRANCH   9   7
TORSDOF 8
