REMARK  Name = 38030138
REMARK  12 active torsions:
REMARK  status: ('A' for Active; 'I' for Inactive)
REMARK    1  A    between atoms: O_1  and  C_13
REMARK    2  A    between atoms: N_3  and  C_18
REMARK    3  A    between atoms: N_3  and  C_19
REMARK    4  A    between atoms: C_5  and  C_9
REMARK    5  A    between atoms: C_7  and  C_13
REMARK    6  A    between atoms: C_8  and  C_12
REMARK    7  A    between atoms: C_9  and  C_14
REMARK    8  A    between atoms: C_9  and  C_15
REMARK    9  A    between atoms: C_10  and  C_16
REMARK   10  A    between atoms: C_12  and  C_17
REMARK   11  A    between atoms: C_18  and  C_20
REMARK   12  A    between atoms: C_20  and  C_21
REMARK                            x       y       z     vdW  Elec       q    Type
REMARK                         _______ _______ _______ _____ _____    ______ ____
ROOT
ATOM      5  C   UNL     1      -2.037   0.997   0.115  0.00  0.00    +0.001 C 
ATOM      6  C   UNL     1      -1.167   0.485  -1.043  0.00  0.00    +0.012 C 
ATOM      7  C   UNL     1      -3.377   0.223   0.168  0.00  0.00    +0.040 C 
ATOM      8  C   UNL     1      -0.857  -1.019  -0.918  0.00  0.00    +0.023 C 
ATOM     10  C   UNL     1      -2.100  -1.825  -0.597  0.00  0.00    -0.073 C 
ATOM     11  C   UNL     1      -3.221  -1.251  -0.125  0.00  0.00    -0.022 C 
ATOM     16  C   UNL     1      -2.039  -3.301  -0.874  0.00  0.00    +0.039 C 
ENDROOT
BRANCH   5   9
ATOM      9  C   UNL     1      -2.257   2.506  -0.030  0.00  0.00    -0.013 C 
ATOM     14  C   UNL     1      -1.053   3.274   0.508  0.00  0.00    +0.007 C 
ATOM     15  C   UNL     1      -2.522   2.868  -1.488  0.00  0.00    +0.007 C 
ENDBRANCH   5   9
BRANCH   8  12
ATOM     12  C   UNL     1       0.244  -1.272   0.117  0.00  0.00    +0.103 C 
BRANCH  12  17
ATOM      2  O   UNL     1       1.760  -0.415  -1.530  0.00  0.00    -0.276 OA
ATOM      3  N   UNL     1       2.678  -1.082   0.492  0.00  0.00    -0.304 N 
ATOM     17  C   UNL     1       1.617  -0.880  -0.396  0.00  0.00    +0.216 C 
ATOM     19  C   UNL     1       2.485  -1.633   1.828  0.00  0.00    +0.132 C 
BRANCH   3  18
ATOM     18  C   UNL     1       4.061  -0.755   0.149  0.00  0.00    +0.122 C 
BRANCH  18  20
ATOM     20  C   UNL     1       4.431   0.675   0.523  0.00  0.00    +0.137 C 
BRANCH  20  21
ATOM      4  N   UNL     1       6.933   1.228  -0.073  0.00  0.00    -0.197 NA
ATOM     21  C   UNL     1       5.830   0.983   0.189  0.00  0.00    +0.064 C 
ENDBRANCH  20  21
ENDBRANCH  18  20
ENDBRANCH   3  18
ENDBRANCH  12  17
ENDBRANCH   8  12
BRANCH   7  13
ATOM     13  C   UNL     1      -4.067   0.403   1.525  0.00  0.00    +0.163 C 
BRANCH  13   1
ATOM      1  O   UNL     1      -5.340  -0.208   1.460  0.00  0.00    -0.394 OA
ATOM     22  H   UNL     1      -5.759  -0.093   2.330  0.00  0.00    +0.209 HD
ENDBRANCH  13   1
ENDBRANCH   7  13
TORSDOF 8
