REMARK  Name = 11884549
REMARK  6 active torsions:
REMARK  status: ('A' for Active; 'I' for Inactive)
REMARK    1  A    between atoms: O_3  and  C_23
REMARK    2  A    between atoms: O_6  and  C_26
REMARK    3  A    between atoms: O_6  and  C_31
REMARK    4  A    between atoms: N_9  and  C_21
REMARK    5  A    between atoms: N_10  and  C_25
REMARK    6  A    between atoms: C_20  and  C_23
REMARK                            x       y       z     vdW  Elec       q    Type
REMARK                         _______ _______ _______ _____ _____    ______ ____
ROOT
ATOM      1  O   UNL     1       0.463  -1.269   2.083  0.00  0.00    -0.266 OA
ATOM      2  O   UNL     1       3.329   2.454  -0.944  0.00  0.00    -0.263 OA
ATOM      7  N   UNL     1       2.095  -1.431   0.419  0.00  0.00    -0.310 N 
ATOM      8  N   UNL     1       4.526   0.553  -0.300  0.00  0.00    -0.291 N 
ATOM     11  C   UNL     1       4.593  -1.620   0.942  0.00  0.00    +0.027 C 
ATOM     12  C   UNL     1       3.837  -1.575  -1.396  0.00  0.00    +0.054 C 
ATOM     13  C   UNL     1       4.677  -2.356  -0.389  0.00  0.00    +0.018 C 
ATOM     14  C   UNL     1       3.139  -1.643   1.429  0.00  0.00    +0.130 C 
ATOM     15  C   UNL     1       5.133  -0.184   0.810  0.00  0.00    +0.113 C 
ATOM     16  C   UNL     1       4.432  -0.167  -1.573  0.00  0.00    +0.118 C 
ATOM     17  C   UNL     1       2.391  -1.472  -0.947  0.00  0.00    +0.027 A 
ATOM     18  C   UNL     1       1.404  -1.395  -1.855  0.00  0.00    +0.024 A 
ATOM     19  C   UNL     1       0.774  -1.293   0.892  0.00  0.00    +0.273 A 
ATOM     20  C   UNL     1       4.168   1.895  -0.247  0.00  0.00    +0.324 C 
ATOM     21  C   UNL     1      -0.294  -1.184  -0.152  0.00  0.00    +0.100 A 
ATOM     22  C   UNL     1       0.035  -1.246  -1.446  0.00  0.00    +0.030 A 
ENDROOT
BRANCH  21   9
ATOM      5  O   UNL     1      -2.364   0.168  -1.557  0.00  0.00    -0.252 OA
ATOM      9  N   UNL     1      -1.584  -1.035   0.265  0.00  0.00    -0.265 N 
ATOM     10  N   UNL     1      -3.783  -0.380   0.230  0.00  0.00    -0.266 N 
ATOM     24  C   UNL     1      -2.569  -0.358  -0.466  0.00  0.00    +0.308 C 
ATOM     32  H   UNL     1      -1.772  -1.207   1.249  0.00  0.00    +0.157 HD
ATOM     34  H   UNL     1      -3.788  -0.868   1.122  0.00  0.00    +0.156 HD
BRANCH  10  25
ATOM     25  C   UNL     1      -5.019   0.187  -0.161  0.00  0.00    +0.077 A 
ATOM     26  C   UNL     1      -6.128   0.066   0.662  0.00  0.00    +0.141 A 
ATOM     27  C   UNL     1      -5.090   0.858  -1.372  0.00  0.00    +0.027 A 
ATOM     28  C   UNL     1      -7.340   0.631   0.263  0.00  0.00    +0.047 A 
ATOM     29  C   UNL     1      -6.302   1.422  -1.770  0.00  0.00    +0.002 A 
ATOM     30  C   UNL     1      -7.427   1.308  -0.953  0.00  0.00    +0.004 A 
BRANCH  26   6
ATOM      6  O   UNL     1      -6.065  -0.592   1.854  0.00  0.00    -0.493 OA
ATOM     31  C   UNL     1      -5.721   0.180   3.002  0.00  0.00    +0.277 C 
ENDBRANCH  26   6
ENDBRANCH  10  25
ENDBRANCH  21   9
BRANCH  20  23
ATOM      4  O   UNL     1       5.654   2.542   1.483  0.00  0.00    -0.240 OA
ATOM     23  C   UNL     1       4.789   2.864   0.693  0.00  0.00    +0.392 C 
BRANCH  23   3
ATOM      3  O   UNL     1       4.248   4.075   0.502  0.00  0.00    -0.474 OA
ATOM     33  H   UNL     1       4.630   4.751   1.101  0.00  0.00    +0.296 HD
ENDBRANCH  23   3
ENDBRANCH  20  23
TORSDOF 5
