REMARK  Name = 45784026
REMARK  2 active torsions:
REMARK  status: ('A' for Active; 'I' for Inactive)
REMARK    1  A    between atoms: C_6  and  C_10
REMARK    2  A    between atoms: C_11  and  C_14
REMARK                            x       y       z     vdW  Elec       q    Type
REMARK                         _______ _______ _______ _____ _____    ______ ____
ROOT
ATOM      2  O   UNL     1       2.405   1.643   2.209  0.00  0.00    -0.270 OA
ATOM      3  N   UNL     1       1.057   1.665   0.318  0.00  0.00    -0.297 N 
ATOM      6  C   UNL     1      -0.802   1.657  -1.167  0.00  0.00    +0.074 C 
ATOM      7  C   UNL     1      -0.783   2.971  -0.371  0.00  0.00    +0.032 C 
ATOM      8  C   UNL     1       0.638   1.157  -0.989  0.00  0.00    +0.119 C 
ATOM      9  C   UNL     1       0.128   2.670   0.811  0.00  0.00    +0.109 C 
ATOM     11  C   UNL     1       2.133   1.238   1.081  0.00  0.00    +0.247 C 
ENDROOT
BRANCH   6  10
ATOM      4  N   UNL     1      -3.160   0.780  -1.234  0.00  0.00    -0.342 N 
ATOM      5  N   UNL     1      -1.814  -0.187   0.247  0.00  0.00    -0.232 NA
ATOM     10  C   UNL     1      -1.907   0.730  -0.690  0.00  0.00    +0.113 A 
ATOM     12  C   UNL     1      -3.928  -0.167  -0.605  0.00  0.00    +0.066 A 
ATOM     13  C   UNL     1      -3.065  -0.756   0.315  0.00  0.00    +0.089 A 
ATOM     15  C   UNL     1      -5.262  -0.546  -0.757  0.00  0.00    +0.028 A 
ATOM     16  C   UNL     1      -3.544  -1.788   1.140  0.00  0.00    +0.030 A 
ATOM     19  C   UNL     1      -5.722  -1.574   0.072  0.00  0.00    +0.002 A 
ATOM     20  C   UNL     1      -4.880  -2.185   1.005  0.00  0.00    +0.002 A 
ATOM     24  H   UNL     1      -3.470   1.404  -1.967  0.00  0.00    +0.167 HD
ENDBRANCH   6  10
BRANCH  11  14
ATOM      1  F   UNL     1       5.469  -2.686  -1.118  0.00  0.00    -0.205 F 
ATOM     14  C   UNL     1       3.009   0.207   0.503  0.00  0.00    +0.037 A 
ATOM     17  C   UNL     1       3.681   0.454  -0.694  0.00  0.00    +0.016 A 
ATOM     18  C   UNL     1       3.167  -1.018   1.152  0.00  0.00    +0.016 A 
ATOM     21  C   UNL     1       4.512  -0.523  -1.242  0.00  0.00    +0.039 A 
ATOM     22  C   UNL     1       3.998  -1.995   0.604  0.00  0.00    +0.039 A 
ATOM     23  C   UNL     1       4.670  -1.748  -0.593  0.00  0.00    +0.123 A 
ENDBRANCH  11  14
TORSDOF 2
