REMARK  Name = 26742981
REMARK  9 active torsions:
REMARK  status: ('A' for Active; 'I' for Inactive)
REMARK    1  A    between atoms: N_5  and  C_22
REMARK    2  A    between atoms: C_7  and  C_11
REMARK    3  A    between atoms: C_8  and  C_13
REMARK    4  A    between atoms: C_11  and  C_14
REMARK    5  A    between atoms: C_13  and  C_15
REMARK    6  A    between atoms: C_21  and  C_23
REMARK    7  A    between atoms: C_23  and  C_24
REMARK    8  A    between atoms: C_24  and  C_25
REMARK    9  A    between atoms: C_25  and  C_26
REMARK                            x       y       z     vdW  Elec       q    Type
REMARK                         _______ _______ _______ _____ _____    ______ ____
ROOT
ATOM      3  N   UNL     1      -0.649   2.816   1.005  0.00  0.00    -0.316 NA
ATOM      7  C   UNL     1       0.797   1.067  -0.882  0.00  0.00    +0.004 C 
ATOM      8  C   UNL     1      -0.645   0.772  -0.406  0.00  0.00    +0.012 C 
ATOM      9  C   UNL     1       1.069   2.576  -0.754  0.00  0.00    +0.019 C 
ATOM     10  C   UNL     1      -0.921   1.379   0.981  0.00  0.00    +0.085 C 
ATOM     12  C   UNL     1       0.734   3.113   0.636  0.00  0.00    +0.081 C 
ATOM     27  H   UNL     1      -0.834   3.179   1.939  0.00  0.00    +0.122 HD
ENDROOT
BRANCH   7  11
ATOM     11  C   UNL     1       1.873   0.256  -0.152  0.00  0.00    +0.100 C 
BRANCH  11  14
ATOM      1  O   UNL     1       3.151   0.761  -2.083  0.00  0.00    -0.276 OA
ATOM      4  N   UNL     1       4.216  -0.475  -0.429  0.00  0.00    -0.299 N 
ATOM      5  N   UNL     1       6.653  -1.147   0.919  0.00  0.00    -0.302 NA
ATOM     14  C   UNL     1       3.132   0.207  -0.981  0.00  0.00    +0.216 C 
ATOM     16  C   UNL     1       5.474  -0.563  -1.168  0.00  0.00    +0.123 C 
ATOM     17  C   UNL     1       4.185  -1.253   0.813  0.00  0.00    +0.123 C 
ATOM     18  C   UNL     1       6.671  -0.274  -0.263  0.00  0.00    +0.103 C 
ATOM     19  C   UNL     1       5.409  -0.957   1.680  0.00  0.00    +0.103 C 
ATOM     22  C   UNL     1       7.817  -0.891   1.765  0.00  0.00    +0.105 C 
ENDBRANCH  11  14
ENDBRANCH   7  11
BRANCH   8  13
ATOM     13  C   UNL     1      -0.988  -0.718  -0.418  0.00  0.00    +0.064 C 
BRANCH  13  15
ATOM      2  O   UNL     1      -4.422  -1.237  -1.364  0.00  0.00    -0.359 OA
ATOM      6  N   UNL     1      -3.080  -1.038  -1.665  0.00  0.00    -0.083 NA
ATOM     15  C   UNL     1      -2.471  -0.939  -0.480  0.00  0.00    +0.084 A 
ATOM     20  C   UNL     1      -3.369  -1.066   0.594  0.00  0.00    +0.071 A 
ATOM     21  C   UNL     1      -4.582  -1.251  -0.016  0.00  0.00    +0.138 A 
BRANCH  21  23
ATOM     23  C   UNL     1      -5.949  -1.453   0.480  0.00  0.00    +0.077 C 
BRANCH  23  24
ATOM     24  C   UNL     1      -6.822  -0.182   0.380  0.00  0.00    +0.007 C 
BRANCH  24  25
ATOM     25  C   UNL     1      -8.229  -0.391   0.940  0.00  0.00    -0.003 C 
ATOM     26  C   UNL     1      -9.053   0.885   0.866  0.00  0.00    +0.004 C 
ENDBRANCH  24  25
ENDBRANCH  23  24
ENDBRANCH  21  23
ENDBRANCH  13  15
ENDBRANCH   8  13
TORSDOF 7
