REMARK  Name = 7134352
REMARK  12 active torsions:
REMARK  status: ('A' for Active; 'I' for Inactive)
REMARK    1  A    between atoms: S_1  and  N_12
REMARK    2  A    between atoms: S_1  and  C_23
REMARK    3  A    between atoms: O_7  and  C_22
REMARK    4  A    between atoms: O_7  and  C_29
REMARK    5  A    between atoms: O_9  and  C_31
REMARK    6  A    between atoms: N_12  and  C_15
REMARK    7  A    between atoms: N_13  and  C_24
REMARK    8  A    between atoms: C_17  and  C_20
REMARK    9  A    between atoms: C_21  and  C_22
REMARK   10  A    between atoms: C_24  and  C_25
REMARK   11  A    between atoms: C_25  and  C_30
REMARK   12  A    between atoms: C_29  and  C_31
REMARK                            x       y       z     vdW  Elec       q    Type
REMARK                         _______ _______ _______ _____ _____    ______ ____
ROOT
ATOM      4  O   UNL     1      -3.318   2.116   0.916  0.00  0.00    -0.273 OA
ATOM     11  N   UNL     1      -1.548   0.862   0.070  0.00  0.00    -0.288 N 
ATOM     15  C   UNL     1       1.225   0.771  -0.818  0.00  0.00    +0.080 C 
ATOM     16  C   UNL     1       0.171  -0.132  -1.459  0.00  0.00    +0.052 C 
ATOM     17  C   UNL     1      -1.044  -0.370  -0.559  0.00  0.00    +0.163 C 
ATOM     18  C   UNL     1       0.589   2.062  -0.313  0.00  0.00    +0.039 C 
ATOM     19  C   UNL     1      -0.545   1.759   0.658  0.00  0.00    +0.110 C 
ATOM     21  C   UNL     1      -2.904   1.149   0.271  0.00  0.00    +0.242 C 
ENDROOT
BRANCH  17  20
ATOM      3  O   UNL     1      -0.890  -1.030   1.731  0.00  0.00    -0.274 OA
ATOM     13  N   UNL     1      -0.281  -2.551   0.077  0.00  0.00    -0.313 N 
ATOM     20  C   UNL     1      -0.745  -1.335   0.550  0.00  0.00    +0.234 C 
ATOM     33  H   UNL     1      -0.250  -2.724  -0.923  0.00  0.00    +0.149 HD
BRANCH  13  24
ATOM     24  C   UNL     1       0.099  -3.643   0.943  0.00  0.00    +0.113 C 
BRANCH  24  25
ATOM     25  C   UNL     1       1.572  -3.589   1.325  0.00  0.00    +0.114 C 
BRANCH  25  30
ATOM      8  O   UNL     1       2.129  -3.793  -1.030  0.00  0.00    -0.276 OA
ATOM     14  N   UNL     1       3.834  -3.627   0.503  0.00  0.00    -0.329 N 
ATOM     30  C   UNL     1       2.507  -3.678   0.132  0.00  0.00    +0.212 C 
ATOM     34  H   UNL     1       4.572  -3.678  -0.192  0.00  0.00    +0.145 HD
ATOM     35  H   UNL     1       4.124  -3.534   1.471  0.00  0.00    +0.145 HD
ENDBRANCH  25  30
ENDBRANCH  24  25
ENDBRANCH  13  24
ENDBRANCH  17  20
BRANCH  15  12
ATOM     12  N   UNL     1       2.268   1.095  -1.823  0.00  0.00    -0.186 NA
ATOM     32  H   UNL     1       2.119   1.959  -2.358  0.00  0.00    +0.148 HD
BRANCH  12   1
ATOM      1  S   UNL     1       3.875   0.617  -1.484  0.00  0.00    +0.065 S 
ATOM      5  O   UNL     1       4.760   1.145  -2.505  0.00  0.00    -0.153 OA
ATOM      6  O   UNL     1       3.881  -0.790  -1.135  0.00  0.00    -0.153 OA
BRANCH   1  23
ATOM      2  S   UNL     1       4.577   3.125  -0.093  0.00  0.00    -0.077 S 
ATOM     23  C   UNL     1       4.361   1.432   0.037  0.00  0.00    +0.142 A 
ATOM     26  C   UNL     1       4.603   0.976   1.314  0.00  0.00    +0.036 A 
ATOM     27  C   UNL     1       4.971   2.031   2.198  0.00  0.00    +0.010 A 
ATOM     28  C   UNL     1       4.996   3.253   1.563  0.00  0.00    +0.047 A 
ENDBRANCH   1  23
ENDBRANCH  12   1
ENDBRANCH  15  12
BRANCH  21  22
ATOM     22  C   UNL     1      -3.899   0.207  -0.360  0.00  0.00    +0.256 C 
BRANCH  22   7
ATOM      7  O   UNL     1      -5.177   0.671   0.003  0.00  0.00    -0.359 OA
BRANCH   7  29
ATOM     29  C   UNL     1      -6.216  -0.144  -0.537  0.00  0.00    +0.280 C 
BRANCH  29  31
ATOM     10  O   UNL     1      -7.742   1.369   0.598  0.00  0.00    -0.248 OA
ATOM     31  C   UNL     1      -7.555   0.396  -0.118  0.00  0.00    +0.331 C 
BRANCH  31   9
ATOM      9  O   UNL     1      -8.551  -0.354  -0.653  0.00  0.00    -0.479 OA
ATOM     36  H   UNL     1      -9.438  -0.023  -0.396  0.00  0.00    +0.295 HD
ENDBRANCH  31   9
ENDBRANCH  29  31
ENDBRANCH   7  29
ENDBRANCH  22   7
ENDBRANCH  21  22
TORSDOF 12
