REMARK  Name = 38027463
REMARK  14 active torsions:
REMARK  status: ('A' for Active; 'I' for Inactive)
REMARK    1  A    between atoms: N_3  and  C_13
REMARK    2  A    between atoms: N_4  and  C_20
REMARK    3  A    between atoms: N_5  and  C_22
REMARK    4  A    between atoms: N_5  and  C_27
REMARK    5  A    between atoms: N_5  and  C_28
REMARK    6  A    between atoms: C_6  and  C_10
REMARK    7  A    between atoms: C_7  and  C_13
REMARK    8  A    between atoms: C_9  and  C_14
REMARK    9  A    between atoms: C_10  and  C_15
REMARK   10  A    between atoms: C_10  and  C_16
REMARK   11  A    between atoms: C_11  and  C_17
REMARK   12  A    between atoms: C_14  and  C_18
REMARK   13  A    between atoms: C_19  and  C_21
REMARK   14  A    between atoms: C_20  and  C_22
REMARK                            x       y       z     vdW  Elec       q    Type
REMARK                         _______ _______ _______ _____ _____    ______ ____
ROOT
ATOM      6  C   UNL     1      -0.905   2.063   0.843  0.00  0.00    +0.000 C 
ATOM      7  C   UNL     1      -2.195   2.513   0.113  0.00  0.00    +0.032 C 
ATOM      8  C   UNL     1       0.336   2.648   0.151  0.00  0.00    +0.012 C 
ATOM      9  C   UNL     1       0.435   2.220  -1.325  0.00  0.00    +0.023 C 
ATOM     11  C   UNL     1      -0.885   2.385  -2.050  0.00  0.00    -0.073 C 
ATOM     12  C   UNL     1      -2.048   2.529  -1.390  0.00  0.00    -0.022 C 
ATOM     17  C   UNL     1      -0.832   2.428  -3.552  0.00  0.00    +0.039 C 
ENDROOT
BRANCH   6  10
ATOM     10  C   UNL     1      -0.915   2.470   2.320  0.00  0.00    -0.013 C 
ATOM     15  C   UNL     1      -0.004   1.553   3.131  0.00  0.00    +0.007 C 
ATOM     16  C   UNL     1      -0.491   3.927   2.473  0.00  0.00    +0.007 C 
ENDBRANCH   6  10
BRANCH   7  13
ATOM     13  C   UNL     1      -3.387   1.631   0.502  0.00  0.00    +0.112 C 
BRANCH  13   3
ATOM      2  O   UNL     1      -3.274  -0.739   2.118  0.00  0.00    -0.270 OA
ATOM      3  N   UNL     1      -3.199   0.292   0.040  0.00  0.00    -0.311 N 
ATOM     19  C   UNL     1      -3.156  -0.807   0.897  0.00  0.00    +0.244 C 
ATOM     30  H   UNL     1      -3.186   0.146  -0.964  0.00  0.00    +0.149 HD
BRANCH  19  21
ATOM     21  C   UNL     1      -2.928  -2.131   0.263  0.00  0.00    +0.037 A 
ATOM     23  C   UNL     1      -3.408  -3.289   0.873  0.00  0.00    +0.013 A 
ATOM     24  C   UNL     1      -2.233  -2.215  -0.944  0.00  0.00    +0.013 A 
ATOM     25  C   UNL     1      -3.195  -4.532   0.276  0.00  0.00    +0.001 A 
ATOM     26  C   UNL     1      -2.019  -3.457  -1.540  0.00  0.00    +0.001 A 
ATOM     29  C   UNL     1      -2.500  -4.616  -0.930  0.00  0.00    +0.000 A 
ENDBRANCH  19  21
ENDBRANCH  13   3
ENDBRANCH   7  13
BRANCH   9  14
ATOM     14  C   UNL     1       0.954   0.783  -1.450  0.00  0.00    +0.103 C 
BRANCH  14  18
ATOM      1  O   UNL     1       3.138   1.652  -0.875  0.00  0.00    -0.276 OA
ATOM      4  N   UNL     1       2.877  -0.625  -1.266  0.00  0.00    -0.314 N 
ATOM     18  C   UNL     1       2.435   0.686  -1.161  0.00  0.00    +0.214 C 
ATOM     31  H   UNL     1       2.213  -1.356  -1.501  0.00  0.00    +0.149 HD
BRANCH   4  20
ATOM     20  C   UNL     1       4.251  -1.014  -1.045  0.00  0.00    +0.119 C 
BRANCH  20  22
ATOM     22  C   UNL     1       4.496  -1.366   0.414  0.00  0.00    +0.102 C 
BRANCH  22   5
ATOM      5  N   UNL     1       5.879  -1.783   0.610  0.00  0.00    -0.307 NA
ATOM     27  C   UNL     1       6.008  -2.588   1.826  0.00  0.00    +0.104 C 
ATOM     28  C   UNL     1       6.764  -0.619   0.677  0.00  0.00    +0.104 C 
ENDBRANCH  22   5
ENDBRANCH  20  22
ENDBRANCH   4  20
ENDBRANCH  14  18
ENDBRANCH   9  14
TORSDOF 9
