REMARK  Name = 26745160
REMARK  4 active torsions:
REMARK  status: ('A' for Active; 'I' for Inactive)
REMARK    1  A    between atoms: N_10  and  C_22
REMARK    2  A    between atoms: N_12  and  C_28
REMARK    3  A    between atoms: C_13  and  C_18
REMARK    4  A    between atoms: C_21  and  C_23
REMARK                            x       y       z     vdW  Elec       q    Type
REMARK                         _______ _______ _______ _____ _____    ______ ____
ROOT
ATOM      3  O   UNL     1      -2.876   1.028   1.766  0.00  0.00    -0.252 OA
ATOM      6  N   UNL     1      -1.528  -0.469   0.609  0.00  0.00    -0.267 N 
ATOM      7  N   UNL     1      -0.184  -3.546  -1.043  0.00  0.00    -0.347 N 
ATOM      8  N   UNL     1       0.619  -4.027   0.985  0.00  0.00    -0.240 NA
ATOM     10  N   UNL     1      -3.476   0.417  -0.394  0.00  0.00    -0.269 N 
ATOM     13  C   UNL     1      -0.504  -0.473   1.711  0.00  0.00    +0.172 C 
ATOM     14  C   UNL     1      -0.143  -1.920   2.164  0.00  0.00    +0.089 C 
ATOM     15  C   UNL     1      -1.244  -1.269  -0.618  0.00  0.00    +0.165 C 
ATOM     16  C   UNL     1      -0.007  -2.812   0.994  0.00  0.00    +0.066 A 
ATOM     17  C   UNL     1      -0.513  -2.494  -0.241  0.00  0.00    +0.056 A 
ATOM     19  C   UNL     1      -2.663   0.376   0.741  0.00  0.00    +0.307 C 
ATOM     20  C   UNL     1       0.496  -4.444  -0.259  0.00  0.00    +0.197 A 
ATOM     34  H   UNL     1      -0.397  -3.650  -2.027  0.00  0.00    +0.167 HD
ATOM     35  H   UNL     1      -3.041   0.244  -1.295  0.00  0.00    +0.156 HD
ENDROOT
BRANCH  10  22
ATOM      1  F   UNL     1      -7.549   0.863  -2.901  0.00  0.00    -0.205 F 
ATOM     22  C   UNL     1      -4.876   0.630  -0.443  0.00  0.00    +0.037 A 
ATOM     25  C   UNL     1      -5.537   0.642  -1.672  0.00  0.00    +0.061 A 
ATOM     26  C   UNL     1      -5.594   0.830   0.736  0.00  0.00    +0.023 A 
ATOM     30  C   UNL     1      -6.914   0.853  -1.721  0.00  0.00    +0.125 A 
ATOM     31  C   UNL     1      -6.972   1.041   0.687  0.00  0.00    +0.005 A 
ATOM     33  C   UNL     1      -7.632   1.052  -0.542  0.00  0.00    +0.038 A 
ENDBRANCH  10  22
BRANCH  13  18
ATOM      2  O   UNL     1       0.517   1.760   1.638  0.00  0.00    -0.336 OA
ATOM      9  N   UNL     1       1.817   0.138   0.803  0.00  0.00    -0.190 NA
ATOM     11  N   UNL     1       1.701   2.384   1.226  0.00  0.00    -0.056 NA
ATOM     18  C   UNL     1       0.668   0.440   1.353  0.00  0.00    +0.249 A 
ATOM     21  C   UNL     1       2.417   1.363   0.745  0.00  0.00    +0.202 A 
BRANCH  21  23
ATOM     23  C   UNL     1       3.733   1.532   0.201  0.00  0.00    +0.025 A 
ATOM     24  C   UNL     1       4.434   0.429  -0.286  0.00  0.00    +0.044 A 
ATOM     27  C   UNL     1       4.312   2.800   0.159  0.00  0.00    +0.012 A 
ATOM     28  C   UNL     1       5.714   0.594  -0.815  0.00  0.00    +0.127 A 
ATOM     29  C   UNL     1       5.592   2.966  -0.369  0.00  0.00    +0.003 A 
ATOM     32  C   UNL     1       6.293   1.863  -0.856  0.00  0.00    +0.033 A 
BRANCH  28  12
ATOM      4  O   UNL     1       7.579  -0.357  -1.782  0.00  0.00    -0.126 OA
ATOM      5  O   UNL     1       5.890  -1.661  -1.264  0.00  0.00    -0.126 OA
ATOM     12  N   UNL     1       6.429  -0.528  -1.311  0.00  0.00    +0.056 N 
ENDBRANCH  28  12
ENDBRANCH  21  23
ENDBRANCH  13  18
TORSDOF 4
