REMARK  Name = 26743672
REMARK  7 active torsions:
REMARK  status: ('A' for Active; 'I' for Inactive)
REMARK    1  A    between atoms: O_1  and  C_11
REMARK    2  A    between atoms: O_4  and  C_21
REMARK    3  A    between atoms: N_5  and  C_13
REMARK    4  A    between atoms: C_9  and  C_14
REMARK    5  A    between atoms: C_13  and  C_15
REMARK    6  A    between atoms: C_17  and  C_20
REMARK    7  A    between atoms: C_18  and  C_21
REMARK                            x       y       z     vdW  Elec       q    Type
REMARK                         _______ _______ _______ _____ _____    ______ ____
ROOT
ATOM      5  N   UNL     1       2.789  -0.025   0.325  0.00  0.00    -0.282 NA
ATOM      9  C   UNL     1       2.308  -0.987  -0.688  0.00  0.00    +0.149 C 
ATOM     10  C   UNL     1       2.804  -2.359  -0.193  0.00  0.00    +0.061 C 
ATOM     11  C   UNL     1       3.590  -2.060   1.077  0.00  0.00    +0.130 C 
ATOM     12  C   UNL     1       3.995  -0.607   0.910  0.00  0.00    +0.117 C 
ENDROOT
BRANCH   9  14
ATOM      2  O   UNL     1       0.357  -0.679  -2.127  0.00  0.00    -0.336 OA
ATOM      6  N   UNL     1      -0.144  -1.111   0.013  0.00  0.00    -0.189 NA
ATOM      7  N   UNL     1      -1.041  -0.684  -2.048  0.00  0.00    -0.054 NA
ATOM     14  C   UNL     1       0.806  -0.938  -0.871  0.00  0.00    +0.245 A 
ATOM     17  C   UNL     1      -1.260  -0.945  -0.756  0.00  0.00    +0.220 A 
BRANCH  17  20
ATOM      8  N   UNL     1      -3.596  -0.862  -1.073  0.00  0.00    -0.252 NA
ATOM     20  C   UNL     1      -2.579  -1.049  -0.202  0.00  0.00    +0.111 A 
ATOM     22  C   UNL     1      -2.751  -1.323   1.145  0.00  0.00    +0.031 A 
ATOM     23  C   UNL     1      -4.051  -1.412   1.630  0.00  0.00    +0.004 A 
ATOM     24  C   UNL     1      -4.845  -0.956  -0.565  0.00  0.00    +0.111 A 
ATOM     25  C   UNL     1      -5.124  -1.226   0.765  0.00  0.00    +0.020 A 
ENDBRANCH  17  20
ENDBRANCH   9  14
BRANCH  11   1
ATOM      1  O   UNL     1       4.716  -2.909   1.181  0.00  0.00    -0.390 OA
ATOM     26  H   UNL     1       4.390  -3.825   1.208  0.00  0.00    +0.210 HD
ENDBRANCH  11   1
BRANCH   5  13
ATOM     13  C   UNL     1       3.030   1.306  -0.217  0.00  0.00    +0.159 C 
BRANCH  13  15
ATOM      3  O   UNL     1       1.025   2.282   0.759  0.00  0.00    -0.461 OA
ATOM     15  C   UNL     1       1.753   2.089  -0.372  0.00  0.00    +0.119 A 
ATOM     16  C   UNL     1       1.134   2.676  -1.451  0.00  0.00    +0.046 A 
ATOM     18  C   UNL     1      -0.071   3.000   0.398  0.00  0.00    +0.131 A 
ATOM     19  C   UNL     1      -0.051   3.268  -0.951  0.00  0.00    +0.047 A 
BRANCH  18  21
ATOM     21  C   UNL     1      -1.015   3.332   1.475  0.00  0.00    +0.230 C 
BRANCH  21   4
ATOM      4  O   UNL     1      -1.778   2.178   1.836  0.00  0.00    -0.387 OA
ATOM     27  H   UNL     1      -2.384   2.450   2.547  0.00  0.00    +0.210 HD
ENDBRANCH  21   4
ENDBRANCH  18  21
ENDBRANCH  13  15
ENDBRANCH   5  13
TORSDOF 7
