REMARK  Name = 7155478
REMARK  4 active torsions:
REMARK  status: ('A' for Active; 'I' for Inactive)
REMARK    1  A    between atoms: N_6  and  C_18
REMARK    2  A    between atoms: C_17  and  C_20
REMARK    3  A    between atoms: C_24  and  C_28
REMARK    4  A    between atoms: C_36  and  C_37
REMARK                            x       y       z     vdW  Elec       q    Type
REMARK                         _______ _______ _______ _____ _____    ______ ____
ROOT
ATOM      1  O   UNL     1       0.487   2.993   1.036  0.00  0.00    -0.266 OA
ATOM      2  O   UNL     1      -3.607   0.342   2.763  0.00  0.00    -0.270 OA
ATOM      4  N   UNL     1      -4.117   1.117   0.615  0.00  0.00    -0.297 N 
ATOM      5  N   UNL     1      -1.409   2.526  -0.246  0.00  0.00    -0.310 N 
ATOM      8  C   UNL     1      -3.706   3.545   0.255  0.00  0.00    +0.027 C 
ATOM      9  C   UNL     1      -3.447   1.969  -1.619  0.00  0.00    +0.054 C 
ATOM     10  C   UNL     1      -3.957   3.358  -1.238  0.00  0.00    +0.018 C 
ATOM     11  C   UNL     1      -4.452   2.468   1.064  0.00  0.00    +0.113 C 
ATOM     12  C   UNL     1      -2.193   3.513   0.509  0.00  0.00    +0.130 C 
ATOM     13  C   UNL     1      -4.233   0.898  -0.836  0.00  0.00    +0.117 C 
ATOM     14  C   UNL     1      -1.965   1.832  -1.326  0.00  0.00    +0.027 A 
ATOM     15  C   UNL     1      -1.200   1.021  -2.075  0.00  0.00    +0.024 A 
ATOM     16  C   UNL     1      -0.051   2.391   0.106  0.00  0.00    +0.273 A 
ATOM     17  C   UNL     1      -3.705   0.165   1.550  0.00  0.00    +0.247 C 
ATOM     18  C   UNL     1       0.761   1.457  -0.736  0.00  0.00    +0.099 A 
ATOM     19  C   UNL     1       0.191   0.831  -1.771  0.00  0.00    +0.030 A 
ENDROOT
BRANCH  17  20
ATOM     20  C   UNL     1      -3.334  -1.166   1.058  0.00  0.00    +0.037 A 
ATOM     21  C   UNL     1      -2.015  -1.428   0.696  0.00  0.00    +0.021 A 
ATOM     22  C   UNL     1      -4.301  -2.159   0.956  0.00  0.00    +0.013 A 
ATOM     23  C   UNL     1      -1.644  -2.697   0.222  0.00  0.00    -0.017 A 
ATOM     25  C   UNL     1      -3.950  -3.425   0.488  0.00  0.00    +0.009 A 
ATOM     26  C   UNL     1      -2.626  -3.711   0.117  0.00  0.00    -0.018 A 
ATOM     27  C   UNL     1      -0.320  -2.982  -0.148  0.00  0.00    +0.008 A 
ATOM     29  C   UNL     1      -2.255  -4.980  -0.356  0.00  0.00    +0.008 A 
ATOM     30  C   UNL     1       0.031  -4.249  -0.616  0.00  0.00    +0.001 A 
ATOM     31  C   UNL     1      -0.934  -5.246  -0.720  0.00  0.00    +0.001 A 
ENDBRANCH  17  20
BRANCH  18   6
ATOM      3  O   UNL     1       2.323  -0.881  -1.229  0.00  0.00    -0.270 OA
ATOM      6  N   UNL     1       2.075   1.285  -0.416  0.00  0.00    -0.277 N 
ATOM     24  C   UNL     1       2.782   0.120  -0.683  0.00  0.00    +0.248 C 
ATOM     38  H   UNL     1       2.475   2.011   0.169  0.00  0.00    +0.155 HD
BRANCH  24  28
ATOM     28  C   UNL     1       4.212   0.127  -0.280  0.00  0.00    +0.037 A 
ATOM     32  C   UNL     1       5.100  -0.679  -0.962  0.00  0.00    +0.014 A 
ATOM     33  C   UNL     1       4.606   0.939   0.763  0.00  0.00    +0.014 A 
ATOM     34  C   UNL     1       6.442  -0.673  -0.583  0.00  0.00    +0.019 A 
ATOM     35  C   UNL     1       5.948   0.945   1.141  0.00  0.00    +0.019 A 
ATOM     36  C   UNL     1       6.866   0.140   0.469  0.00  0.00    +0.052 A 
BRANCH  36  37
ATOM      7  N   UNL     1       9.359   0.151   1.174  0.00  0.00    -0.191 NA
ATOM     37  C   UNL     1       8.241   0.146   0.858  0.00  0.00    +0.099 C 
ENDBRANCH  36  37
ENDBRANCH  24  28
ENDBRANCH  18   6
TORSDOF 4
