REMARK  Name = 38028297
REMARK  14 active torsions:
REMARK  status: ('A' for Active; 'I' for Inactive)
REMARK    1  A    between atoms: O_3  and  C_23
REMARK    2  A    between atoms: O_3  and  C_27
REMARK    3  A    between atoms: N_4  and  C_14
REMARK    4  A    between atoms: N_5  and  C_22
REMARK    5  A    between atoms: C_7  and  C_11
REMARK    6  A    between atoms: C_8  and  C_14
REMARK    7  A    between atoms: C_10  and  C_15
REMARK    8  A    between atoms: C_11  and  C_16
REMARK    9  A    between atoms: C_11  and  C_17
REMARK   10  A    between atoms: C_12  and  C_18
REMARK   11  A    between atoms: C_15  and  C_19
REMARK   12  A    between atoms: C_20  and  C_21
REMARK   13  A    between atoms: C_21  and  C_23
REMARK   14  A    between atoms: C_22  and  C_24
REMARK                            x       y       z     vdW  Elec       q    Type
REMARK                         _______ _______ _______ _____ _____    ______ ____
ROOT
ATOM      7  C   UNL     1       2.039   0.596  -1.168  0.00  0.00    +0.000 C 
ATOM      8  C   UNL     1       3.486   0.727  -0.633  0.00  0.00    +0.032 C 
ATOM      9  C   UNL     1       1.263   1.903  -0.940  0.00  0.00    +0.012 C 
ATOM     10  C   UNL     1       1.200   2.290   0.549  0.00  0.00    +0.023 C 
ATOM     12  C   UNL     1       2.555   2.183   1.217  0.00  0.00    -0.073 C 
ATOM     13  C   UNL     1       3.569   1.491   0.667  0.00  0.00    -0.022 C 
ATOM     18  C   UNL     1       2.734   2.927   2.511  0.00  0.00    +0.039 C 
ENDROOT
BRANCH   7  11
ATOM     11  C   UNL     1       2.013   0.231  -2.656  0.00  0.00    -0.013 C 
ATOM     16  C   UNL     1       0.701  -0.462  -3.011  0.00  0.00    +0.007 C 
ATOM     17  C   UNL     1       2.216   1.476  -3.513  0.00  0.00    +0.007 C 
ENDBRANCH   7  11
BRANCH   8  14
ATOM     14  C   UNL     1       4.138  -0.650  -0.459  0.00  0.00    +0.112 C 
BRANCH  14   4
ATOM      2  O   UNL     1       2.816  -3.199  -0.752  0.00  0.00    -0.276 OA
ATOM      4  N   UNL     1       3.476  -1.399   0.563  0.00  0.00    -0.315 N 
ATOM     20  C   UNL     1       2.858  -2.630   0.335  0.00  0.00    +0.215 C 
ATOM     30  H   UNL     1       3.499  -1.035   1.511  0.00  0.00    +0.149 HD
BRANCH  20  21
ATOM     21  C   UNL     1       2.237  -3.200   1.601  0.00  0.00    +0.124 C 
BRANCH  21  23
ATOM     23  C   UNL     1       0.793  -2.765   1.800  0.00  0.00    +0.168 C 
BRANCH  23   3
ATOM      3  O   UNL     1       0.004  -3.238   0.716  0.00  0.00    -0.382 OA
ATOM     27  C   UNL     1      -1.360  -2.864   0.862  0.00  0.00    +0.194 C 
ENDBRANCH  23   3
ENDBRANCH  21  23
ENDBRANCH  20  21
ENDBRANCH  14   4
ENDBRANCH   8  14
BRANCH  10  15
ATOM     15  C   UNL     1       0.153   1.453   1.294  0.00  0.00    +0.103 C 
BRANCH  15  19
ATOM      1  O   UNL     1      -1.528   2.804   0.198  0.00  0.00    -0.276 OA
ATOM      5  N   UNL     1      -2.186   1.102   1.637  0.00  0.00    -0.310 N 
ATOM     19  C   UNL     1      -1.258   1.882   0.963  0.00  0.00    +0.214 C 
ATOM     31  H   UNL     1      -1.861   0.350   2.237  0.00  0.00    +0.149 HD
BRANCH   5  22
ATOM     22  C   UNL     1      -3.614   1.289   1.512  0.00  0.00    +0.159 C 
BRANCH  22  24
ATOM      6  N   UNL     1      -3.980   0.831  -0.845  0.00  0.00    -0.258 NA
ATOM     24  C   UNL     1      -4.200   0.432   0.428  0.00  0.00    +0.058 A 
ATOM     25  C   UNL     1      -4.921  -0.700   0.773  0.00  0.00    +0.025 A 
ATOM     26  C   UNL     1      -5.450  -1.472  -0.255  0.00  0.00    +0.003 A 
ATOM     28  C   UNL     1      -4.510   0.055  -1.817  0.00  0.00    +0.111 A 
ATOM     29  C   UNL     1      -5.245  -1.095  -1.578  0.00  0.00    +0.020 A 
ENDBRANCH  22  24
ENDBRANCH   5  22
ENDBRANCH  15  19
ENDBRANCH  10  15
TORSDOF 10
