REMARK  Name = 11882870
REMARK  12 active torsions:
REMARK  status: ('A' for Active; 'I' for Inactive)
REMARK    1  A    between atoms: O_3  and  C_16
REMARK    2  A    between atoms: O_4  and  C_21
REMARK    3  A    between atoms: O_7  and  C_36
REMARK    4  A    between atoms: O_7  and  C_39
REMARK    5  A    between atoms: N_9  and  C_27
REMARK    6  A    between atoms: C_11  and  C_19
REMARK    7  A    between atoms: C_13  and  C_21
REMARK    8  A    between atoms: C_13  and  C_22
REMARK    9  A    between atoms: C_14  and  C_24
REMARK   10  A    between atoms: C_24  and  C_25
REMARK   11  A    between atoms: C_27  and  C_29
REMARK   12  A    between atoms: C_28  and  C_30
REMARK                            x       y       z     vdW  Elec       q    Type
REMARK                         _______ _______ _______ _____ _____    ______ ____
ROOT
ATOM      1  S   UNL     1      -0.980   3.088   0.145  0.00  0.00    -0.057 S 
ATOM      6  O   UNL     1       2.886   0.621  -0.431  0.00  0.00    -0.269 OA
ATOM      8  N   UNL     1      -0.019   0.709  -0.184  0.00  0.00    -0.229 NA
ATOM     10  N   UNL     1       1.567   2.523  -0.120  0.00  0.00    -0.260 N 
ATOM     11  C   UNL     1      -3.579  -0.664   0.366  0.00  0.00    -0.019 C 
ATOM     12  C   UNL     1      -4.261   0.633  -0.257  0.00  0.00    +0.011 C 
ATOM     13  C   UNL     1      -5.835   0.713  -0.198  0.00  0.00    +0.021 C 
ATOM     14  C   UNL     1      -2.080  -0.745  -0.182  0.00  0.00    +0.054 C 
ATOM     15  C   UNL     1      -4.342  -1.927  -0.113  0.00  0.00    +0.010 C 
ATOM     16  C   UNL     1      -6.435  -0.644  -0.664  0.00  0.00    +0.123 C 
ATOM     17  C   UNL     1      -3.549   1.933   0.219  0.00  0.00    +0.049 C 
ATOM     18  C   UNL     1      -5.851  -1.844   0.074  0.00  0.00    +0.032 C 
ATOM     19  C   UNL     1      -3.562  -0.651   1.914  0.00  0.00    +0.012 C 
ATOM     20  C   UNL     1      -1.392   0.592  -0.074  0.00  0.00    +0.058 A 
ATOM     22  C   UNL     1      -6.325   1.802  -1.194  0.00  0.00    +0.016 C 
ATOM     23  C   UNL     1      -2.071   1.782   0.087  0.00  0.00    +0.015 A 
ATOM     26  C   UNL     1       0.312   1.978  -0.075  0.00  0.00    +0.165 A 
ATOM     28  C   UNL     1       2.791   1.838  -0.293  0.00  0.00    +0.256 C 
ATOM     43  H   UNL     1       1.598   3.533  -0.009  0.00  0.00    +0.157 HD
ENDROOT
BRANCH  28  30
ATOM      2  S   UNL     1       3.814   4.374  -0.008  0.00  0.00    -0.092 S 
ATOM     30  C   UNL     1       3.994   2.689  -0.252  0.00  0.00    +0.074 A 
ATOM     33  C   UNL     1       5.315   2.324  -0.388  0.00  0.00    +0.021 A 
ATOM     37  C   UNL     1       6.192   3.443  -0.288  0.00  0.00    +0.008 A 
ATOM     38  C   UNL     1       5.507   4.620  -0.082  0.00  0.00    +0.046 A 
ENDBRANCH  28  30
BRANCH  16   3
ATOM      3  O   UNL     1      -7.852  -0.650  -0.500  0.00  0.00    -0.391 OA
ATOM     40  H   UNL     1      -8.186  -1.495  -0.846  0.00  0.00    +0.210 HD
ENDBRANCH  16   3
BRANCH  13  21
ATOM     21  C   UNL     1      -6.405   1.123   1.178  0.00  0.00    +0.165 C 
BRANCH  21   4
ATOM      4  O   UNL     1      -7.810   1.161   1.070  0.00  0.00    -0.394 OA
ATOM     41  H   UNL     1      -8.161   1.429   1.936  0.00  0.00    +0.209 HD
ENDBRANCH  21   4
ENDBRANCH  13  21
BRANCH  14  24
ATOM     24  C   UNL     1      -1.234  -1.864   0.439  0.00  0.00    +0.106 C 
BRANCH  24  25
ATOM      5  O   UNL     1       0.058  -1.851  -1.607  0.00  0.00    -0.276 OA
ATOM      9  N   UNL     1       0.629  -3.321   0.100  0.00  0.00    -0.311 N 
ATOM     25  C   UNL     1      -0.128  -2.318  -0.487  0.00  0.00    +0.214 C 
ATOM     42  H   UNL     1       0.396  -3.634   1.038  0.00  0.00    +0.149 HD
BRANCH   9  27
ATOM     27  C   UNL     1       1.754  -3.947  -0.556  0.00  0.00    +0.139 C 
BRANCH  27  29
ATOM     29  C   UNL     1       3.042  -3.231  -0.270  0.00  0.00    -0.030 A 
ATOM     31  C   UNL     1       3.344  -2.830   1.031  0.00  0.00    +0.009 A 
ATOM     32  C   UNL     1       3.938  -2.968  -1.307  0.00  0.00    +0.009 A 
ATOM     34  C   UNL     1       4.541  -2.165   1.296  0.00  0.00    +0.046 A 
ATOM     35  C   UNL     1       5.135  -2.303  -1.042  0.00  0.00    +0.046 A 
ATOM     36  C   UNL     1       5.436  -1.901   0.260  0.00  0.00    +0.120 A 
BRANCH  36   7
ATOM      7  O   UNL     1       6.605  -1.253   0.519  0.00  0.00    -0.495 OA
ATOM     39  C   UNL     1       6.850  -0.872   1.872  0.00  0.00    +0.277 C 
ENDBRANCH  36   7
ENDBRANCH  27  29
ENDBRANCH   9  27
ENDBRANCH  24  25
ENDBRANCH  14  24
TORSDOF 9
