REMARK  Name = 75536677
REMARK  8 active torsions:
REMARK  status: ('A' for Active; 'I' for Inactive)
REMARK    1  A    between atoms: S_1  and  N_9
REMARK    2  A    between atoms: S_1  and  C_22
REMARK    3  A    between atoms: O_3  and  C_12
REMARK    4  A    between atoms: N_7  and  C_10
REMARK    5  A    between atoms: N_7  and  C_11
REMARK    6  A    between atoms: N_9  and  C_19
REMARK    7  A    between atoms: C_13  and  C_19
REMARK    8  A    between atoms: C_20  and  C_21
REMARK                            x       y       z     vdW  Elec       q    Type
REMARK                         _______ _______ _______ _____ _____    ______ ____
ROOT
ATOM      2  O   UNL     1       0.634   0.694  -1.446  0.00  0.00    -0.371 OA
ATOM     10  C   UNL     1      -1.282   0.301  -0.098  0.00  0.00    +0.111 C 
ATOM     12  C   UNL     1      -0.036   0.132   0.751  0.00  0.00    +0.164 C 
ATOM     13  C   UNL     1       0.986   0.907  -0.069  0.00  0.00    +0.164 C 
ATOM     14  C   UNL     1      -0.709   0.180  -1.500  0.00  0.00    +0.181 C 
ENDROOT
BRANCH  12   3
ATOM      3  O   UNL     1      -0.185   0.668   2.052  0.00  0.00    -0.388 OA
ATOM     29  H   UNL     1      -0.435   1.603   1.970  0.00  0.00    +0.210 HD
ENDBRANCH  12   3
BRANCH  10   7
ATOM      7  N   UNL     1      -2.315  -0.684   0.178  0.00  0.00    -0.306 NA
ATOM     28  H   UNL     1      -2.416  -0.816   1.183  0.00  0.00    +0.123 HD
BRANCH   7  11
ATOM      4  O   UNL     1      -8.238   0.721   1.048  0.00  0.00    -0.276 OA
ATOM      8  N   UNL     1      -6.475  -0.069  -0.243  0.00  0.00    -0.302 N 
ATOM     11  C   UNL     1      -3.591  -0.273  -0.402  0.00  0.00    +0.057 C 
ATOM     15  C   UNL     1      -4.496  -1.496  -0.605  0.00  0.00    +0.037 C 
ATOM     16  C   UNL     1      -4.276   0.755   0.508  0.00  0.00    +0.037 C 
ATOM     17  C   UNL     1      -5.873  -1.079  -1.122  0.00  0.00    +0.109 C 
ATOM     18  C   UNL     1      -5.657   1.127  -0.031  0.00  0.00    +0.109 C 
ATOM     20  C   UNL     1      -7.738  -0.158   0.341  0.00  0.00    +0.212 C 
ATOM     21  C   UNL     1      -8.517  -1.422   0.078  0.00  0.00    +0.109 C 
ENDBRANCH   7  11
ENDBRANCH  10   7
BRANCH  13  19
ATOM     19  C   UNL     1       2.416   0.455   0.171  0.00  0.00    +0.140 C 
BRANCH  19   9
ATOM      9  N   UNL     1       3.334   1.257  -0.661  0.00  0.00    -0.187 NA
ATOM     30  H   UNL     1       3.163   1.223  -1.673  0.00  0.00    +0.148 HD
BRANCH   9   1
ATOM      1  S   UNL     1       4.913   1.581  -0.116  0.00  0.00    +0.058 S 
ATOM      5  O   UNL     1       4.853   2.181   1.203  0.00  0.00    -0.153 OA
ATOM      6  O   UNL     1       5.655   2.230  -1.180  0.00  0.00    -0.153 OA
BRANCH   1  22
ATOM     22  C   UNL     1       5.578  -0.048   0.056  0.00  0.00    +0.105 A 
ATOM     23  C   UNL     1       6.227  -0.654  -1.020  0.00  0.00    +0.028 A 
ATOM     24  C   UNL     1       5.450  -0.729   1.266  0.00  0.00    +0.028 A 
ATOM     25  C   UNL     1       6.748  -1.941  -0.885  0.00  0.00    +0.002 A 
ATOM     26  C   UNL     1       5.972  -2.016   1.401  0.00  0.00    +0.002 A 
ATOM     27  C   UNL     1       6.620  -2.622   0.325  0.00  0.00    +0.000 A 
ENDBRANCH   1  22
ENDBRANCH   9   1
ENDBRANCH  19   9
ENDBRANCH  13  19
TORSDOF 7
