REMARK  Name = 7050197
REMARK  10 active torsions:
REMARK  status: ('A' for Active; 'I' for Inactive)
REMARK    1  A    between atoms: O_1  and  C_11
REMARK    2  A    between atoms: O_2  and  C_14
REMARK    3  A    between atoms: O_3  and  C_16
REMARK    4  A    between atoms: N_8  and  C_12
REMARK    5  A    between atoms: N_9  and  C_18
REMARK    6  A    between atoms: C_11  and  C_17
REMARK    7  A    between atoms: C_18  and  C_20
REMARK    8  A    between atoms: C_18  and  C_22
REMARK    9  A    between atoms: C_19  and  C_21
REMARK   10  A    between atoms: C_20  and  C_23
REMARK                            x       y       z     vdW  Elec       q    Type
REMARK                         _______ _______ _______ _____ _____    ______ ____
ROOT
ATOM     11  C   UNL     1      -0.971   2.018   0.026  0.00  0.00    +0.146 C 
ATOM     12  C   UNL     1       1.542   1.707  -0.179  0.00  0.00    +0.107 C 
ATOM     13  C   UNL     1       0.201   1.043   0.150  0.00  0.00    +0.069 C 
ATOM     14  C   UNL     1       1.769   2.979   0.649  0.00  0.00    +0.163 C 
ATOM     15  C   UNL     1      -0.743   3.270   0.870  0.00  0.00    +0.078 C 
ATOM     16  C   UNL     1       0.589   3.949   0.545  0.00  0.00    +0.148 C 
ENDROOT
BRANCH  11  17
ATOM      4  O   UNL     1      -2.933   1.762   1.365  0.00  0.00    -0.273 OA
ATOM      9  N   UNL     1      -2.545   0.255  -0.367  0.00  0.00    -0.301 N 
ATOM     17  C   UNL     1      -2.256   1.354   0.424  0.00  0.00    +0.246 C 
ATOM     36  H   UNL     1      -1.985   0.089  -1.198  0.00  0.00    +0.150 HD
BRANCH   9  18
ATOM     18  C   UNL     1      -3.715  -0.572  -0.175  0.00  0.00    +0.163 C 
BRANCH  18  22
ATOM      7  O   UNL     1      -4.699   0.655  -2.029  0.00  0.00    -0.274 OA
ATOM     10  N   UNL     1      -6.081  -0.114  -0.363  0.00  0.00    -0.328 N 
ATOM     22  C   UNL     1      -4.851   0.071  -0.958  0.00  0.00    +0.231 C 
ATOM     37  H   UNL     1      -6.926   0.252  -0.788  0.00  0.00    +0.145 HD
ATOM     38  H   UNL     1      -6.194  -0.618   0.511  0.00  0.00    +0.145 HD
ENDBRANCH  18  22
BRANCH  18  20
ATOM     20  C   UNL     1      -3.490  -2.013  -0.648  0.00  0.00    +0.067 C 
BRANCH  20  23
ATOM     23  C   UNL     1      -2.353  -2.693   0.075  0.00  0.00    -0.045 A 
ATOM     25  C   UNL     1      -1.056  -2.611  -0.431  0.00  0.00    +0.004 A 
ATOM     26  C   UNL     1      -2.599  -3.404   1.250  0.00  0.00    +0.004 A 
ATOM     29  C   UNL     1      -0.005  -3.240   0.236  0.00  0.00    +0.000 A 
ATOM     30  C   UNL     1      -1.548  -4.032   1.918  0.00  0.00    +0.000 A 
ATOM     31  C   UNL     1      -0.251  -3.950   1.411  0.00  0.00    +0.000 A 
ENDBRANCH  20  23
ENDBRANCH  18  20
ENDBRANCH   9  18
ENDBRANCH  11  17
BRANCH  12   8
ATOM      5  O   UNL     1       2.525  -0.125  -2.084  0.00  0.00    -0.267 OA
ATOM      8  N   UNL     1       2.619   0.764   0.032  0.00  0.00    -0.303 N 
ATOM     19  C   UNL     1       3.043  -0.109  -0.966  0.00  0.00    +0.280 C 
ATOM     32  H   UNL     1       3.050   0.714   0.951  0.00  0.00    +0.149 HD
BRANCH  19  21
ATOM      6  O   UNL     1       4.692  -0.871   0.638  0.00  0.00    -0.458 OA
ATOM     21  C   UNL     1       4.169  -0.984  -0.611  0.00  0.00    +0.189 A 
ATOM     24  C   UNL     1       4.838  -1.948  -1.328  0.00  0.00    +0.054 A 
ATOM     27  C   UNL     1       5.835  -2.461  -0.465  0.00  0.00    +0.042 A 
ATOM     28  C   UNL     1       5.705  -1.773   0.719  0.00  0.00    +0.196 A 
ENDBRANCH  19  21
ENDBRANCH  12   8
BRANCH  11   1
ATOM      1  O   UNL     1      -1.159   2.401  -1.332  0.00  0.00    -0.379 OA
ATOM     33  H   UNL     1      -1.844   3.091  -1.365  0.00  0.00    +0.211 HD
ENDBRANCH  11   1
BRANCH  14   2
ATOM      2  O   UNL     1       2.929   3.655   0.158  0.00  0.00    -0.387 OA
ATOM     34  H   UNL     1       2.781   3.866  -0.780  0.00  0.00    +0.210 HD
ENDBRANCH  14   2
BRANCH  16   3
ATOM      3  O   UNL     1       0.800   5.017   1.468  0.00  0.00    -0.389 OA
ATOM     35  H   UNL     1       0.051   5.631   1.382  0.00  0.00    +0.210 HD
ENDBRANCH  16   3
TORSDOF 10
