REMARK  Name = 11913350
REMARK  4 active torsions:
REMARK  status: ('A' for Active; 'I' for Inactive)
REMARK    1  A    between atoms: N_6  and  C_12
REMARK    2  A    between atoms: N_7  and  C_13
REMARK    3  A    between atoms: C_17  and  C_18
REMARK    4  A    between atoms: C_19  and  C_23
REMARK                            x       y       z     vdW  Elec       q    Type
REMARK                         _______ _______ _______ _____ _____    ______ ____
ROOT
ATOM      2  O   UNL     1      -1.639  -3.394  -0.875  0.00  0.00    -0.370 OA
ATOM      3  O   UNL     1      -0.846  -0.516  -1.801  0.00  0.00    -0.370 OA
ATOM     10  C   UNL     1      -0.592  -1.274  -0.606  0.00  0.00    +0.171 C 
ATOM     11  C   UNL     1      -1.838  -2.086  -0.313  0.00  0.00    +0.171 C 
ATOM     12  C   UNL     1       0.475  -2.312  -0.862  0.00  0.00    +0.130 C 
ATOM     13  C   UNL     1      -2.934  -1.361  -1.055  0.00  0.00    +0.130 C 
ATOM     14  C   UNL     1      -0.319  -3.471  -1.435  0.00  0.00    +0.185 C 
ATOM     15  C   UNL     1      -2.196  -0.748  -2.229  0.00  0.00    +0.185 C 
ENDROOT
BRANCH  12   6
ATOM      6  N   UNL     1       1.098  -2.700   0.385  0.00  0.00    -0.306 N 
ATOM      8  N   UNL     1       2.615  -0.912   0.311  0.00  0.00    -0.214 NA
ATOM      9  N   UNL     1       2.642  -2.482   2.139  0.00  0.00    -0.223 NA
ATOM     16  C   UNL     1       2.150  -2.010   0.962  0.00  0.00    +0.216 A 
ATOM     19  C   UNL     1       3.641  -0.264   0.901  0.00  0.00    +0.076 A 
ATOM     21  C   UNL     1       3.667  -1.786   2.673  0.00  0.00    +0.116 A 
ATOM     22  C   UNL     1       4.212  -0.659   2.094  0.00  0.00    +0.048 A 
ATOM     31  H   UNL     1       0.725  -3.486   0.905  0.00  0.00    +0.149 HD
BRANCH  19  23
ATOM      1  F   UNL     1       2.864   3.494  -2.031  0.00  0.00    -0.205 F 
ATOM     23  C   UNL     1       4.120   0.900   0.194  0.00  0.00    +0.003 A 
ATOM     26  C   UNL     1       3.244   1.650  -0.594  0.00  0.00    +0.048 A 
ATOM     27  C   UNL     1       5.460   1.279   0.295  0.00  0.00    +0.010 A 
ATOM     28  C   UNL     1       3.706   2.775  -1.277  0.00  0.00    +0.124 A 
ATOM     29  C   UNL     1       5.922   2.404  -0.389  0.00  0.00    +0.003 A 
ATOM     30  C   UNL     1       5.045   3.152  -1.174  0.00  0.00    +0.038 A 
ENDBRANCH  19  23
ENDBRANCH  12   6
BRANCH  13   7
ATOM      4  O   UNL     1      -5.570  -0.172  -1.213  0.00  0.00    -0.267 OA
ATOM      7  N   UNL     1      -3.487  -0.283  -0.199  0.00  0.00    -0.301 N 
ATOM     17  C   UNL     1      -4.772   0.215  -0.364  0.00  0.00    +0.280 C 
ATOM     32  H   UNL     1      -2.881   0.134   0.502  0.00  0.00    +0.150 HD
BRANCH  17  18
ATOM      5  O   UNL     1      -4.238   1.687   1.433  0.00  0.00    -0.458 OA
ATOM     18  C   UNL     1      -5.167   1.312   0.557  0.00  0.00    +0.189 A 
ATOM     20  C   UNL     1      -6.319   1.980   0.638  0.00  0.00    +0.054 A 
ATOM     24  C   UNL     1      -6.112   2.900   1.693  0.00  0.00    +0.042 A 
ATOM     25  C   UNL     1      -4.831   2.682   2.143  0.00  0.00    +0.196 A 
ENDBRANCH  17  18
ENDBRANCH  13   7
TORSDOF 4
