REMARK  Name = 51137894
REMARK  5 active torsions:
REMARK  status: ('A' for Active; 'I' for Inactive)
REMARK    1  A    between atoms: N_4  and  C_12
REMARK    2  A    between atoms: N_5  and  C_16
REMARK    3  A    between atoms: C_7  and  C_11
REMARK    4  A    between atoms: C_12  and  C_14
REMARK    5  A    between atoms: C_25  and  C_26
REMARK                            x       y       z     vdW  Elec       q    Type
REMARK                         _______ _______ _______ _____ _____    ______ ____
ROOT
ATOM      4  N   UNL     1      -0.467  -0.225  -0.157  0.00  0.00    -0.297 NA
ATOM      7  C   UNL     1       1.700  -0.498   0.697  0.00  0.00    +0.070 C 
ATOM      8  C   UNL     1       0.946   0.550   1.533  0.00  0.00    +0.028 C 
ATOM      9  C   UNL     1       0.869  -0.643  -0.586  0.00  0.00    +0.096 C 
ATOM     10  C   UNL     1      -0.244   0.959   0.674  0.00  0.00    +0.085 C 
ENDROOT
BRANCH   7  11
ATOM      5  N   UNL     1       4.097  -1.142   0.258  0.00  0.00    -0.330 N 
ATOM      6  N   UNL     1       3.660   1.036   0.321  0.00  0.00    -0.232 NA
ATOM     11  C   UNL     1       3.150  -0.170   0.425  0.00  0.00    +0.115 A 
ATOM     13  C   UNL     1       5.298  -0.521   0.030  0.00  0.00    +0.069 A 
ATOM     15  C   UNL     1       4.999   0.838   0.074  0.00  0.00    +0.089 A 
ATOM     16  C   UNL     1       3.876  -2.570   0.311  0.00  0.00    +0.150 C 
ATOM     17  C   UNL     1       6.581  -1.016  -0.203  0.00  0.00    +0.028 A 
ATOM     20  C   UNL     1       6.029   1.773  -0.124  0.00  0.00    +0.030 A 
ATOM     21  C   UNL     1       7.595  -0.072  -0.399  0.00  0.00    +0.002 A 
ATOM     22  C   UNL     1       7.326   1.298  -0.360  0.00  0.00    +0.002 A 
ENDBRANCH   7  11
BRANCH   4  12
ATOM     12  C   UNL     1      -1.352   0.046  -1.280  0.00  0.00    +0.119 C 
BRANCH  12  14
ATOM     14  C   UNL     1      -2.800   0.043  -0.868  0.00  0.00    -0.033 A 
ATOM     18  C   UNL     1      -3.456  -1.166  -0.635  0.00  0.00    +0.005 A 
ATOM     19  C   UNL     1      -3.485   1.248  -0.717  0.00  0.00    +0.005 A 
ATOM     23  C   UNL     1      -4.797  -1.169  -0.252  0.00  0.00    +0.012 A 
ATOM     24  C   UNL     1      -4.826   1.245  -0.333  0.00  0.00    +0.012 A 
ATOM     25  C   UNL     1      -5.482   0.037  -0.101  0.00  0.00    +0.055 A 
BRANCH  25  26
ATOM      1  F   UNL     1      -7.149   0.696   1.482  0.00  0.00    -0.166 F 
ATOM      2  F   UNL     1      -7.404  -1.227   0.500  0.00  0.00    -0.166 F 
ATOM      3  F   UNL     1      -7.749   0.616  -0.601  0.00  0.00    -0.166 F 
ATOM     26  C   UNL     1      -6.915   0.033   0.311  0.00  0.00    +0.417 C 
ENDBRANCH  25  26
ENDBRANCH  12  14
ENDBRANCH   4  12
TORSDOF 4
