REMARK  Name = 45783354
REMARK  9 active torsions:
REMARK  status: ('A' for Active; 'I' for Inactive)
REMARK    1  A    between atoms: O_4  and  C_27
REMARK    2  A    between atoms: O_4  and  C_29
REMARK    3  A    between atoms: O_5  and  C_30
REMARK    4  A    between atoms: O_5  and  C_31
REMARK    5  A    between atoms: N_6  and  C_14
REMARK    6  A    between atoms: C_10  and  C_15
REMARK    7  A    between atoms: C_14  and  C_16
REMARK    8  A    between atoms: C_19  and  C_23
REMARK    9  A    between atoms: C_29  and  C_30
REMARK                            x       y       z     vdW  Elec       q    Type
REMARK                         _______ _______ _______ _____ _____    ______ ____
ROOT
ATOM      1  O   UNL     1      -2.663  -1.423   2.010  0.00  0.00    -0.336 OA
ATOM      7  N   UNL     1      -1.210  -1.138   0.329  0.00  0.00    -0.190 NA
ATOM      8  N   UNL     1      -1.401  -1.298   2.603  0.00  0.00    -0.056 NA
ATOM     15  C   UNL     1      -2.461  -1.317   0.670  0.00  0.00    +0.245 A 
ATOM     19  C   UNL     1      -0.597  -1.133   1.548  0.00  0.00    +0.202 A 
ENDROOT
BRANCH  19  23
ATOM      9  N   UNL     1       3.585  -0.630   1.931  0.00  0.00    -0.221 NA
ATOM     23  C   UNL     1       0.822  -0.963   1.678  0.00  0.00    +0.029 A 
ATOM     25  C   UNL     1       1.611  -0.796   0.545  0.00  0.00    +0.079 A 
ATOM     26  C   UNL     1       1.412  -0.963   2.937  0.00  0.00    +0.031 A 
ATOM     27  C   UNL     1       2.976  -0.636   0.724  0.00  0.00    +0.215 A 
ATOM     28  C   UNL     1       2.785  -0.794   3.009  0.00  0.00    +0.115 A 
BRANCH  27   4
ATOM      4  O   UNL     1       3.775  -0.470  -0.376  0.00  0.00    -0.474 OA
BRANCH   4  29
ATOM     29  C   UNL     1       5.168  -0.309  -0.136  0.00  0.00    +0.258 C 
BRANCH  29  30
ATOM     30  C   UNL     1       5.886  -0.165  -1.465  0.00  0.00    +0.200 C 
BRANCH  30   5
ATOM      5  O   UNL     1       5.677  -1.342  -2.235  0.00  0.00    -0.380 OA
ATOM     31  C   UNL     1       6.311  -1.253  -3.504  0.00  0.00    +0.194 C 
ENDBRANCH  30   5
ENDBRANCH  29  30
ENDBRANCH   4  29
ENDBRANCH  27   4
ENDBRANCH  19  23
BRANCH  15  10
ATOM      6  N   UNL     1      -3.539  -0.692  -1.484  0.00  0.00    -0.287 NA
ATOM     10  C   UNL     1      -3.690  -1.420  -0.208  0.00  0.00    +0.146 C 
ATOM     11  C   UNL     1      -4.008  -2.869  -0.620  0.00  0.00    +0.030 C 
ATOM     12  C   UNL     1      -4.074  -2.846  -2.140  0.00  0.00    +0.017 C 
ATOM     13  C   UNL     1      -4.370  -1.395  -2.462  0.00  0.00    +0.085 C 
BRANCH   6  14
ATOM     14  C   UNL     1      -3.884   0.720  -1.385  0.00  0.00    +0.120 C 
BRANCH  14  16
ATOM      2  O   UNL     1       0.757   2.434  -1.246  0.00  0.00    -0.453 OA
ATOM      3  O   UNL     1       0.356   3.696   0.768  0.00  0.00    -0.453 OA
ATOM     16  C   UNL     1      -2.768   1.529  -0.778  0.00  0.00    -0.030 A 
ATOM     17  C   UNL     1      -1.512   1.543  -1.389  0.00  0.00    +0.054 A 
ATOM     18  C   UNL     1      -3.001   2.265   0.397  0.00  0.00    +0.009 A 
ATOM     20  C   UNL     1      -0.521   2.301  -0.798  0.00  0.00    +0.167 A 
ATOM     21  C   UNL     1      -1.981   3.024   0.975  0.00  0.00    +0.050 A 
ATOM     22  C   UNL     1      -0.750   3.021   0.352  0.00  0.00    +0.166 A 
ATOM     24  C   UNL     1       1.307   3.320  -0.250  0.00  0.00    +0.466 C 
ENDBRANCH  14  16
ENDBRANCH   6  14
ENDBRANCH  15  10
TORSDOF 8
