REMARK  Name = 51137799
REMARK  5 active torsions:
REMARK  status: ('A' for Active; 'I' for Inactive)
REMARK    1  A    between atoms: O_3  and  C_18
REMARK    2  A    between atoms: O_3  and  C_26
REMARK    3  A    between atoms: C_7  and  C_11
REMARK    4  A    between atoms: C_12  and  C_13
REMARK    5  A    between atoms: C_14  and  C_17
REMARK                            x       y       z     vdW  Elec       q    Type
REMARK                         _______ _______ _______ _____ _____    ______ ____
ROOT
ATOM      2  O   UNL     1       2.635   0.229   2.577  0.00  0.00    -0.270 OA
ATOM      4  N   UNL     1       1.869   1.482   0.778  0.00  0.00    -0.297 N 
ATOM      7  C   UNL     1       0.528   2.767  -0.710  0.00  0.00    +0.095 C 
ATOM      8  C   UNL     1       0.788   3.570   0.574  0.00  0.00    +0.033 C 
ATOM      9  C   UNL     1       1.634   1.704  -0.649  0.00  0.00    +0.121 C 
ATOM     10  C   UNL     1       1.234   2.517   1.580  0.00  0.00    +0.109 C 
ATOM     12  C   UNL     1       2.524   0.412   1.366  0.00  0.00    +0.247 C 
ENDROOT
BRANCH  12  13
ATOM     13  C   UNL     1       3.122  -0.593   0.473  0.00  0.00    +0.037 A 
ATOM     15  C   UNL     1       4.106  -0.216  -0.441  0.00  0.00    +0.013 A 
ATOM     16  C   UNL     1       2.705  -1.922   0.541  0.00  0.00    +0.013 A 
ATOM     19  C   UNL     1       4.674  -1.169  -1.286  0.00  0.00    +0.001 A 
ATOM     20  C   UNL     1       3.273  -2.875  -0.304  0.00  0.00    +0.001 A 
ATOM     22  C   UNL     1       4.258  -2.498  -1.218  0.00  0.00    +0.000 A 
ENDBRANCH  12  13
BRANCH   7  11
ATOM      1  O   UNL     1      -1.140   1.028  -0.238  0.00  0.00    -0.420 OA
ATOM      5  N   UNL     1      -1.971   2.828  -1.274  0.00  0.00    -0.112 NA
ATOM      6  N   UNL     1      -3.007   1.936  -1.070  0.00  0.00    -0.107 NA
ATOM     11  C   UNL     1      -0.901   2.257  -0.773  0.00  0.00    +0.222 A 
ATOM     14  C   UNL     1      -2.476   0.901  -0.463  0.00  0.00    +0.252 A 
BRANCH  14  17
ATOM     17  C   UNL     1      -3.075  -0.321  -0.009  0.00  0.00    +0.080 A 
ATOM     18  C   UNL     1      -2.339  -1.505   0.036  0.00  0.00    +0.132 A 
ATOM     21  C   UNL     1      -4.411  -0.314   0.390  0.00  0.00    +0.017 A 
ATOM     23  C   UNL     1      -2.940  -2.683   0.479  0.00  0.00    +0.046 A 
ATOM     24  C   UNL     1      -5.013  -1.492   0.834  0.00  0.00    +0.001 A 
ATOM     25  C   UNL     1      -4.277  -2.677   0.878  0.00  0.00    +0.004 A 
BRANCH  18   3
ATOM      3  O   UNL     1      -1.031  -1.541  -0.349  0.00  0.00    -0.494 OA
ATOM     26  C   UNL     1      -0.769  -1.824  -1.721  0.00  0.00    +0.277 C 
ENDBRANCH  18   3
ENDBRANCH  14  17
ENDBRANCH   7  11
TORSDOF 4
