REMARK  Name = 7663774
REMARK  5 active torsions:
REMARK  status: ('A' for Active; 'I' for Inactive)
REMARK    1  A    between atoms: S_2  and  N_7
REMARK    2  A    between atoms: S_2  and  C_20
REMARK    3  A    between atoms: O_6  and  C_30
REMARK    4  A    between atoms: O_6  and  C_32
REMARK    5  A    between atoms: C_16  and  C_21
REMARK                            x       y       z     vdW  Elec       q    Type
REMARK                         _______ _______ _______ _____ _____    ______ ____
ROOT
ATOM      5  O   UNL     1      -3.483  -4.059   0.281  0.00  0.00    -0.268 OA
ATOM      7  N   UNL     1       0.721  -1.442   0.228  0.00  0.00    -0.176 NA
ATOM      8  N   UNL     1      -2.258  -2.203  -0.453  0.00  0.00    -0.311 N 
ATOM      9  C   UNL     1      -0.139  -2.467  -1.872  0.00  0.00    +0.025 C 
ATOM     10  C   UNL     1      -0.902  -0.228  -1.216  0.00  0.00    +0.053 C 
ATOM     11  C   UNL     1      -0.503  -1.093  -2.409  0.00  0.00    +0.017 C 
ATOM     12  C   UNL     1       1.037  -2.376  -0.889  0.00  0.00    +0.114 C 
ATOM     13  C   UNL     1       0.297  -0.096  -0.257  0.00  0.00    +0.119 C 
ATOM     14  C   UNL     1      -1.383  -3.088  -1.234  0.00  0.00    +0.130 C 
ATOM     15  C   UNL     1      -2.120  -0.801  -0.487  0.00  0.00    +0.034 A 
ATOM     16  C   UNL     1      -3.041  -0.016   0.132  0.00  0.00    +0.002 A 
ATOM     17  C   UNL     1      -3.307  -2.841   0.232  0.00  0.00    +0.252 A 
ATOM     18  C   UNL     1      -4.135  -0.640   0.852  0.00  0.00    +0.015 A 
ATOM     19  C   UNL     1      -4.276  -1.963   0.926  0.00  0.00    +0.071 A 
ENDROOT
BRANCH  16  21
ATOM      1 CL   UNL     1      -2.675   5.955   0.030  0.00  0.00    -0.084 Cl
ATOM     21  C   UNL     1      -2.950   1.460   0.107  0.00  0.00    -0.016 A 
ATOM     24  C   UNL     1      -2.234   2.126   1.097  0.00  0.00    +0.010 A 
ATOM     25  C   UNL     1      -3.581   2.174  -0.907  0.00  0.00    +0.010 A 
ATOM     28  C   UNL     1      -2.148   3.518   1.074  0.00  0.00    +0.020 A 
ATOM     29  C   UNL     1      -3.496   3.566  -0.931  0.00  0.00    +0.020 A 
ATOM     31  C   UNL     1      -2.780   4.238   0.060  0.00  0.00    +0.041 A 
ENDBRANCH  16  21
BRANCH   7   2
ATOM      2  S   UNL     1       1.827  -1.445   1.533  0.00  0.00    +0.061 S 
ATOM      3  O   UNL     1       2.268  -2.801   1.778  0.00  0.00    -0.153 OA
ATOM      4  O   UNL     1       1.293  -0.631   2.605  0.00  0.00    -0.153 OA
BRANCH   2  20
ATOM     20  C   UNL     1       3.171  -0.564   0.802  0.00  0.00    +0.106 A 
ATOM     22  C   UNL     1       3.221   0.815   0.918  0.00  0.00    +0.032 A 
ATOM     23  C   UNL     1       4.154  -1.268   0.124  0.00  0.00    +0.032 A 
ATOM     26  C   UNL     1       4.284   1.511   0.341  0.00  0.00    +0.047 A 
ATOM     27  C   UNL     1       5.216  -0.572  -0.454  0.00  0.00    +0.047 A 
ATOM     30  C   UNL     1       5.281   0.817  -0.345  0.00  0.00    +0.120 A 
BRANCH  30   6
ATOM      6  O   UNL     1       6.318   1.496  -0.908  0.00  0.00    -0.495 OA
ATOM     32  C   UNL     1       6.322   2.915  -0.759  0.00  0.00    +0.277 C 
ENDBRANCH  30   6
ENDBRANCH   2  20
ENDBRANCH   7   2
TORSDOF 4
