REMARK  Name = 38028444
REMARK  12 active torsions:
REMARK  status: ('A' for Active; 'I' for Inactive)
REMARK    1  A    between atoms: N_3  and  C_14
REMARK    2  A    between atoms: N_4  and  C_21
REMARK    3  A    between atoms: N_5  and  C_23
REMARK    4  A    between atoms: C_7  and  C_11
REMARK    5  A    between atoms: C_8  and  C_14
REMARK    6  A    between atoms: C_10  and  C_15
REMARK    7  A    between atoms: C_11  and  C_16
REMARK    8  A    between atoms: C_11  and  C_17
REMARK    9  A    between atoms: C_12  and  C_18
REMARK   10  A    between atoms: C_15  and  C_19
REMARK   11  A    between atoms: C_21  and  C_22
REMARK   12  A    between atoms: C_23  and  C_24
REMARK                            x       y       z     vdW  Elec       q    Type
REMARK                         _______ _______ _______ _____ _____    ______ ____
ROOT
ATOM      7  C   UNL     1       1.331   0.666  -1.223  0.00  0.00    +0.000 C 
ATOM      8  C   UNL     1       2.880   0.670  -1.234  0.00  0.00    +0.032 C 
ATOM      9  C   UNL     1       0.794   2.043  -0.802  0.00  0.00    +0.012 C 
ATOM     10  C   UNL     1       1.291   2.459   0.596  0.00  0.00    +0.023 C 
ATOM     12  C   UNL     1       2.781   2.237   0.752  0.00  0.00    -0.073 C 
ATOM     13  C   UNL     1       3.477   1.445  -0.083  0.00  0.00    -0.022 C 
ATOM     18  C   UNL     1       3.464   2.984   1.865  0.00  0.00    +0.039 C 
ENDROOT
BRANCH   7  11
ATOM     11  C   UNL     1       0.753   0.280  -2.588  0.00  0.00    -0.013 C 
ATOM     16  C   UNL     1      -0.651  -0.293  -2.429  0.00  0.00    +0.007 C 
ATOM     17  C   UNL     1       0.743   1.486  -3.522  0.00  0.00    +0.007 C 
ENDBRANCH   7  11
BRANCH   8  14
ATOM     14  C   UNL     1       3.436  -0.758  -1.231  0.00  0.00    +0.113 C 
BRANCH  14   3
ATOM      2  O   UNL     1       1.894  -3.177  -0.920  0.00  0.00    -0.253 OA
ATOM      3  N   UNL     1       3.118  -1.425  -0.008  0.00  0.00    -0.299 N 
ATOM      5  N   UNL     1       2.201  -3.035   1.375  0.00  0.00    -0.300 N 
ATOM     20  C   UNL     1       2.360  -2.601   0.062  0.00  0.00    +0.300 C 
ATOM     29  H   UNL     1       3.514  -1.067   0.856  0.00  0.00    +0.150 HD
ATOM     31  H   UNL     1       2.611  -2.486   2.124  0.00  0.00    +0.150 HD
BRANCH   5  23
ATOM     23  C   UNL     1       1.460  -4.226   1.722  0.00  0.00    +0.102 C 
ATOM     24  C   UNL     1      -0.033  -3.968   1.726  0.00  0.00    +0.024 C 
ENDBRANCH   5  23
ENDBRANCH  14   3
ENDBRANCH   8  14
BRANCH  10  15
ATOM     15  C   UNL     1       0.509   1.736   1.698  0.00  0.00    +0.103 C 
BRANCH  15  19
ATOM      1  O   UNL     1      -1.500   2.929   1.071  0.00  0.00    -0.276 OA
ATOM      4  N   UNL     1      -1.674   0.822   2.037  0.00  0.00    -0.311 N 
ATOM     19  C   UNL     1      -0.984   1.925   1.554  0.00  0.00    +0.214 C 
ATOM     30  H   UNL     1      -1.157   0.034   2.415  0.00  0.00    +0.149 HD
BRANCH   4  21
ATOM     21  C   UNL     1      -3.115   0.728   2.027  0.00  0.00    +0.141 C 
BRANCH  21  22
ATOM      6  N   UNL     1      -3.675  -1.786  -0.743  0.00  0.00    -0.263 NA
ATOM     22  C   UNL     1      -3.630   0.108   0.760  0.00  0.00    -0.012 A 
ATOM     25  C   UNL     1      -4.500   0.800  -0.074  0.00  0.00    +0.008 A 
ATOM     26  C   UNL     1      -3.251  -1.171   0.384  0.00  0.00    +0.115 A 
ATOM     27  C   UNL     1      -4.958   0.202  -1.243  0.00  0.00    +0.020 A 
ATOM     28  C   UNL     1      -4.520  -1.081  -1.529  0.00  0.00    +0.111 A 
ENDBRANCH  21  22
ENDBRANCH   4  21
ENDBRANCH  15  19
ENDBRANCH  10  15
TORSDOF 8
