REMARK  Name = 51137088
REMARK  4 active torsions:
REMARK  status: ('A' for Active; 'I' for Inactive)
REMARK    1  A    between atoms: N_2  and  C_8
REMARK    2  A    between atoms: C_4  and  C_9
REMARK    3  A    between atoms: C_8  and  C_10
REMARK    4  A    between atoms: C_11  and  C_16
REMARK                            x       y       z     vdW  Elec       q    Type
REMARK                         _______ _______ _______ _____ _____    ______ ____
ROOT
ATOM      2  N   UNL     1      -1.532  -0.214   0.001  0.00  0.00    -0.297 NA
ATOM      4  C   UNL     1       0.636  -0.819   0.658  0.00  0.00    +0.060 C 
ATOM      5  C   UNL     1      -0.247  -0.610  -0.579  0.00  0.00    +0.095 C 
ATOM      6  C   UNL     1      -0.006   0.057   1.748  0.00  0.00    +0.027 C 
ATOM      7  C   UNL     1      -1.191   0.730   1.066  0.00  0.00    +0.085 C 
ENDROOT
BRANCH   4   9
ATOM      1  S   UNL     1       3.243  -1.784   0.618  0.00  0.00    -0.072 S 
ATOM      3  N   UNL     1       2.565   0.626  -0.003  0.00  0.00    -0.244 NA
ATOM      9  C   UNL     1       2.097  -0.534   0.394  0.00  0.00    +0.084 A 
ATOM     12  C   UNL     1       4.500  -0.702   0.147  0.00  0.00    +0.039 A 
ATOM     13  C   UNL     1       3.942   0.546  -0.148  0.00  0.00    +0.078 A 
ATOM     17  C   UNL     1       5.880  -0.940   0.046  0.00  0.00    +0.017 A 
ATOM     18  C   UNL     1       4.799   1.591  -0.559  0.00  0.00    +0.029 A 
ATOM     21  C   UNL     1       6.705   0.111  -0.362  0.00  0.00    +0.001 A 
ATOM     22  C   UNL     1       6.174   1.361  -0.661  0.00  0.00    +0.002 A 
ENDBRANCH   4   9
BRANCH   2   8
ATOM      8  C   UNL     1      -2.432   0.366  -0.985  0.00  0.00    +0.119 C 
BRANCH   8  10
ATOM     10  C   UNL     1      -3.861   0.364  -0.509  0.00  0.00    -0.030 A 
ATOM     11  C   UNL     1      -4.618  -0.808  -0.515  0.00  0.00    -0.046 A 
ATOM     14  C   UNL     1      -4.426   1.557  -0.059  0.00  0.00    +0.005 A 
ATOM     15  C   UNL     1      -5.940  -0.787  -0.070  0.00  0.00    +0.003 A 
ATOM     16  C   UNL     1      -4.035  -2.097  -0.993  0.00  0.00    +0.044 C 
ATOM     19  C   UNL     1      -5.748   1.578   0.386  0.00  0.00    +0.000 A 
ATOM     20  C   UNL     1      -6.505   0.406   0.380  0.00  0.00    +0.000 A 
ENDBRANCH   8  10
ENDBRANCH   2   8
TORSDOF 3
