REMARK  Name = 38028091
REMARK  11 active torsions:
REMARK  status: ('A' for Active; 'I' for Inactive)
REMARK    1  A    between atoms: S_1  and  N_6
REMARK    2  A    between atoms: S_1  and  C_23
REMARK    3  A    between atoms: N_6  and  C_15
REMARK    4  A    between atoms: C_8  and  C_12
REMARK    5  A    between atoms: C_9  and  C_15
REMARK    6  A    between atoms: C_11  and  C_16
REMARK    7  A    between atoms: C_12  and  C_17
REMARK    8  A    between atoms: C_12  and  C_18
REMARK    9  A    between atoms: C_13  and  C_19
REMARK   10  A    between atoms: C_16  and  C_20
REMARK   11  A    between atoms: C_23  and  C_26
REMARK                            x       y       z     vdW  Elec       q    Type
REMARK                         _______ _______ _______ _____ _____    ______ ____
ROOT
ATOM      8  C   UNL     1      -0.816  -1.889   0.851  0.00  0.00    +0.000 C 
ATOM      9  C   UNL     1       0.050  -2.676  -0.164  0.00  0.00    +0.030 C 
ATOM     10  C   UNL     1      -2.308  -2.165   0.610  0.00  0.00    +0.012 C 
ATOM     11  C   UNL     1      -2.750  -1.777  -0.813  0.00  0.00    +0.023 C 
ATOM     13  C   UNL     1      -1.788  -2.296  -1.863  0.00  0.00    -0.073 C 
ATOM     14  C   UNL     1      -0.545  -2.705  -1.552  0.00  0.00    -0.023 C 
ATOM     19  C   UNL     1      -2.303  -2.375  -3.273  0.00  0.00    +0.039 C 
ENDROOT
BRANCH   8  12
ATOM     12  C   UNL     1      -0.452  -2.235   2.298  0.00  0.00    -0.013 C 
ATOM     17  C   UNL     1      -0.835  -1.090   3.231  0.00  0.00    +0.007 C 
ATOM     18  C   UNL     1      -1.133  -3.531   2.724  0.00  0.00    +0.007 C 
ENDBRANCH   8  12
BRANCH   9  15
ATOM     15  C   UNL     1       1.474  -2.112  -0.231  0.00  0.00    +0.113 C 
BRANCH  15   6
ATOM      6  N   UNL     1       1.425  -0.747  -0.778  0.00  0.00    -0.194 NA
ATOM     32  H   UNL     1       1.153  -0.707  -1.769  0.00  0.00    +0.148 HD
BRANCH   6   1
ATOM      1  S   UNL     1       2.603   0.391  -0.291  0.00  0.00    +0.033 S 
ATOM      4  O   UNL     1       2.540   0.579   1.145  0.00  0.00    -0.158 OA
ATOM      5  O   UNL     1       2.547   1.527  -1.191  0.00  0.00    -0.158 OA
BRANCH   1  23
ATOM     23  C   UNL     1       4.093  -0.506  -0.661  0.00  0.00    +0.220 C 
BRANCH  23  26
ATOM     26  C   UNL     1       5.254   0.364  -0.287  0.00  0.00    -0.025 A 
ATOM     27  C   UNL     1       5.575   0.559   1.056  0.00  0.00    +0.005 A 
ATOM     28  C   UNL     1       6.013   0.979  -1.283  0.00  0.00    +0.005 A 
ATOM     29  C   UNL     1       6.656   1.370   1.404  0.00  0.00    +0.000 A 
ATOM     30  C   UNL     1       7.094   1.789  -0.935  0.00  0.00    +0.000 A 
ATOM     31  C   UNL     1       7.415   1.985   0.409  0.00  0.00    +0.000 A 
ENDBRANCH  23  26
ENDBRANCH   1  23
ENDBRANCH   6   1
ENDBRANCH  15   6
ENDBRANCH   9  15
BRANCH  11  16
ATOM     16  C   UNL     1      -2.935  -0.261  -0.940  0.00  0.00    +0.103 C 
BRANCH  16  20
ATOM      2  O   UNL     1      -4.914  -0.695   0.292  0.00  0.00    -0.276 OA
ATOM      3  O   UNL     1      -4.791   4.249   0.368  0.00  0.00    -0.377 OA
ATOM      7  N   UNL     1      -4.509   1.520  -0.275  0.00  0.00    -0.297 N 
ATOM     20  C   UNL     1      -4.210   0.159  -0.252  0.00  0.00    +0.216 C 
ATOM     21  C   UNL     1      -3.764   2.542  -1.017  0.00  0.00    +0.136 C 
ATOM     22  C   UNL     1      -5.723   2.014   0.373  0.00  0.00    +0.136 C 
ATOM     24  C   UNL     1      -3.544   3.772  -0.145  0.00  0.00    +0.179 C 
ATOM     25  C   UNL     1      -5.419   3.261   1.190  0.00  0.00    +0.179 C 
ENDBRANCH  16  20
ENDBRANCH  11  16
TORSDOF 8
