REMARK  Name = 7663180
REMARK  5 active torsions:
REMARK  status: ('A' for Active; 'I' for Inactive)
REMARK    1  A    between atoms: O_1  and  C_12
REMARK    2  A    between atoms: O_1  and  C_19
REMARK    3  A    between atoms: C_8  and  C_12
REMARK    4  A    between atoms: C_13  and  C_16
REMARK    5  A    between atoms: C_14  and  C_15
REMARK                            x       y       z     vdW  Elec       q    Type
REMARK                         _______ _______ _______ _____ _____    ______ ____
ROOT
ATOM      3  O   UNL     1       3.448   2.837  -0.725  0.00  0.00    -0.276 OA
ATOM      4  O   UNL     1      -1.521  -1.966   1.182  0.00  0.00    -0.270 OA
ATOM      5  N   UNL     1       2.198   1.055   0.097  0.00  0.00    -0.285 N 
ATOM      6  N   UNL     1      -0.315   0.020   0.931  0.00  0.00    -0.294 N 
ATOM      8  C   UNL     1       2.130  -0.292   0.691  0.00  0.00    +0.202 C 
ATOM      9  C   UNL     1       0.894  -0.496   1.570  0.00  0.00    +0.142 C 
ATOM     10  C   UNL     1       0.946   1.587  -0.462  0.00  0.00    +0.127 C 
ATOM     11  C   UNL     1      -0.217   1.418   0.505  0.00  0.00    +0.127 C 
ATOM     13  C   UNL     1       3.381   1.773  -0.104  0.00  0.00    +0.213 C 
ATOM     14  C   UNL     1      -1.445  -0.792   0.822  0.00  0.00    +0.248 C 
ATOM     16  C   UNL     1       4.637   1.192   0.498  0.00  0.00    +0.109 C 
ENDROOT
BRANCH  14  15
ATOM      7  N   UNL     1      -4.732   0.971   0.494  0.00  0.00    -0.263 NA
ATOM     15  C   UNL     1      -2.653  -0.219   0.214  0.00  0.00    +0.055 A 
ATOM     17  C   UNL     1      -2.871  -0.308  -1.153  0.00  0.00    +0.016 A 
ATOM     18  C   UNL     1      -3.601   0.422   0.989  0.00  0.00    +0.123 A 
ATOM     20  C   UNL     1      -4.023   0.244  -1.700  0.00  0.00    +0.020 A 
ATOM     21  C   UNL     1      -4.915   0.867  -0.842  0.00  0.00    +0.111 A 
ENDBRANCH  14  15
BRANCH   8  12
ATOM      2  O   UNL     1       2.179  -0.935  -1.631  0.00  0.00    -0.249 OA
ATOM     12  C   UNL     1       2.157  -1.264  -0.453  0.00  0.00    +0.329 C 
BRANCH  12   1
ATOM      1  O   UNL     1       2.150  -2.539   0.032  0.00  0.00    -0.467 OA
ATOM     19  C   UNL     1       2.173  -3.573  -0.958  0.00  0.00    +0.280 C 
ENDBRANCH  12   1
ENDBRANCH   8  12
TORSDOF 3
