REMARK  Name = 38028751
REMARK  11 active torsions:
REMARK  status: ('A' for Active; 'I' for Inactive)
REMARK    1  A    between atoms: S_1  and  N_6
REMARK    2  A    between atoms: S_1  and  C_24
REMARK    3  A    between atoms: N_6  and  C_14
REMARK    4  A    between atoms: C_7  and  C_11
REMARK    5  A    between atoms: C_8  and  C_14
REMARK    6  A    between atoms: C_10  and  C_15
REMARK    7  A    between atoms: C_11  and  C_16
REMARK    8  A    between atoms: C_11  and  C_17
REMARK    9  A    between atoms: C_12  and  C_18
REMARK   10  A    between atoms: C_15  and  C_19
REMARK   11  A    between atoms: C_24  and  C_25
REMARK                            x       y       z     vdW  Elec       q    Type
REMARK                         _______ _______ _______ _____ _____    ______ ____
ROOT
ATOM      7  C   UNL     1       0.996  -1.823  -0.719  0.00  0.00    +0.000 C 
ATOM      8  C   UNL     1       0.186  -2.512   0.408  0.00  0.00    +0.030 C 
ATOM      9  C   UNL     1       2.503  -2.011  -0.488  0.00  0.00    +0.012 C 
ATOM     10  C   UNL     1       2.962  -1.434   0.865  0.00  0.00    +0.023 C 
ATOM     12  C   UNL     1       2.046  -1.856   1.996  0.00  0.00    -0.073 C 
ATOM     13  C   UNL     1       0.815  -2.348   1.772  0.00  0.00    -0.023 C 
ATOM     18  C   UNL     1       2.596  -1.742   3.390  0.00  0.00    +0.039 C 
ENDROOT
BRANCH   7  11
ATOM     11  C   UNL     1       0.613  -2.358  -2.103  0.00  0.00    -0.013 C 
ATOM     16  C   UNL     1       0.928  -1.324  -3.179  0.00  0.00    +0.007 C 
ATOM     17  C   UNL     1       1.338  -3.670  -2.385  0.00  0.00    +0.007 C 
ENDBRANCH   7  11
BRANCH   8  14
ATOM     14  C   UNL     1      -1.257  -1.998   0.445  0.00  0.00    +0.113 C 
BRANCH  14   6
ATOM      6  N   UNL     1      -1.252  -0.575   0.820  0.00  0.00    -0.194 NA
ATOM     31  H   UNL     1      -0.959  -0.403   1.791  0.00  0.00    +0.148 HD
BRANCH   6   1
ATOM      1  S   UNL     1      -2.486   0.449   0.231  0.00  0.00    +0.033 S 
ATOM      3  O   UNL     1      -2.464   0.460  -1.218  0.00  0.00    -0.158 OA
ATOM      4  O   UNL     1      -2.457   1.688   0.984  0.00  0.00    -0.158 OA
BRANCH   1  24
ATOM     24  C   UNL     1      -3.930  -0.452   0.749  0.00  0.00    +0.220 C 
BRANCH  24  25
ATOM     25  C   UNL     1      -5.133   0.321   0.304  0.00  0.00    -0.025 A 
ATOM     26  C   UNL     1      -5.493   0.337  -1.043  0.00  0.00    +0.005 A 
ATOM     27  C   UNL     1      -5.894   1.024   1.238  0.00  0.00    +0.005 A 
ATOM     28  C   UNL     1      -6.614   1.056  -1.457  0.00  0.00    +0.000 A 
ATOM     29  C   UNL     1      -7.015   1.744   0.824  0.00  0.00    +0.000 A 
ATOM     30  C   UNL     1      -7.375   1.760  -0.524  0.00  0.00    +0.000 A 
ENDBRANCH  24  25
ENDBRANCH   1  24
ENDBRANCH   6   1
ENDBRANCH  14   6
ENDBRANCH   8  14
BRANCH  10  15
ATOM     15  C   UNL     1       3.087   0.092   0.800  0.00  0.00    +0.103 C 
BRANCH  15  19
ATOM      2  O   UNL     1       5.071  -0.398  -0.424  0.00  0.00    -0.276 OA
ATOM      5  N   UNL     1       4.549   1.830  -0.108  0.00  0.00    -0.301 N 
ATOM     19  C   UNL     1       4.327   0.472   0.031  0.00  0.00    +0.216 C 
ATOM     20  C   UNL     1       3.708   2.909   0.402  0.00  0.00    +0.108 C 
ATOM     21  C   UNL     1       5.705   2.360  -0.817  0.00  0.00    +0.108 C 
ATOM     22  C   UNL     1       4.548   4.165   0.216  0.00  0.00    +0.020 C 
ATOM     23  C   UNL     1       5.389   3.835  -1.010  0.00  0.00    +0.020 C 
ENDBRANCH  15  19
ENDBRANCH  10  15
TORSDOF 8
