REMARK  Name = 28962512
REMARK  5 active torsions:
REMARK  status: ('A' for Active; 'I' for Inactive)
REMARK    1  A    between atoms: N_4  and  C_13
REMARK    2  A    between atoms: C_6  and  C_16
REMARK    3  A    between atoms: C_9  and  C_17
REMARK    4  A    between atoms: C_15  and  C_19
REMARK    5  A    between atoms: C_20  and  C_21
REMARK                            x       y       z     vdW  Elec       q    Type
REMARK                         _______ _______ _______ _____ _____    ______ ____
ROOT
ATOM      1  O   UNL     1      -1.920   1.630   0.138  0.00  0.00    -0.461 OA
ATOM      2  O   UNL     1      -3.902   2.789   0.011  0.00  0.00    -0.251 OA
ATOM      5  C   UNL     1      -0.213  -0.219  -0.087  0.00  0.00    +0.041 C 
ATOM      6  C   UNL     1      -0.096  -1.770   0.161  0.00  0.00    -0.025 C 
ATOM      7  C   UNL     1      -1.587   0.267   0.411  0.00  0.00    +0.184 C 
ATOM      8  C   UNL     1      -2.694  -0.464  -0.329  0.00  0.00    +0.044 C 
ATOM      9  C   UNL     1       1.025   0.551   0.468  0.00  0.00    +0.013 C 
ATOM     10  C   UNL     1      -1.311  -2.518  -0.469  0.00  0.00    +0.007 C 
ATOM     11  C   UNL     1       1.196  -2.272  -0.521  0.00  0.00    +0.009 C 
ATOM     12  C   UNL     1      -2.675  -1.952  -0.047  0.00  0.00    +0.008 C 
ATOM     13  C   UNL     1       2.327  -0.022  -0.157  0.00  0.00    +0.076 C 
ATOM     14  C   UNL     1       2.444  -1.544  -0.035  0.00  0.00    +0.023 C 
ATOM     15  C   UNL     1      -3.902   0.344   0.105  0.00  0.00    +0.101 C 
ATOM     16  C   UNL     1      -0.048  -2.134   1.667  0.00  0.00    +0.011 C 
ATOM     17  C   UNL     1       0.946   2.064   0.209  0.00  0.00    +0.010 C 
ATOM     18  C   UNL     1      -3.293   1.733   0.074  0.00  0.00    +0.311 C 
ATOM     19  C   UNL     1      -5.087   0.205  -0.833  0.00  0.00    +0.019 C 
ENDROOT
BRANCH  13   4
ATOM      3  O   UNL     1       4.870   0.492  -1.460  0.00  0.00    -0.276 OA
ATOM      4  N   UNL     1       3.507   0.582   0.425  0.00  0.00    -0.312 N 
ATOM     20  C   UNL     1       4.678   0.786  -0.283  0.00  0.00    +0.210 C 
ATOM     21  C   UNL     1       5.737   1.453   0.552  0.00  0.00    +0.109 C 
ATOM     22  H   UNL     1       3.485   0.814   1.414  0.00  0.00    +0.149 HD
ENDBRANCH  13   4
TORSDOF 1
