REMARK  Name = 51136625
REMARK  12 active torsions:
REMARK  status: ('A' for Active; 'I' for Inactive)
REMARK    1  A    between atoms: O_1  and  C_20
REMARK    2  A    between atoms: O_4  and  C_26
REMARK    3  A    between atoms: O_4  and  C_33
REMARK    4  A    between atoms: O_5  and  C_27
REMARK    5  A    between atoms: O_5  and  C_34
REMARK    6  A    between atoms: O_6  and  C_31
REMARK    7  A    between atoms: O_6  and  C_36
REMARK    8  A    between atoms: N_9  and  C_28
REMARK    9  A    between atoms: C_10  and  C_15
REMARK   10  A    between atoms: C_11  and  C_16
REMARK   11  A    between atoms: C_15  and  C_17
REMARK   12  A    between atoms: C_16  and  C_20
REMARK                            x       y       z     vdW  Elec       q    Type
REMARK                         _______ _______ _______ _____ _____    ______ ____
ROOT
ATOM      2  O   UNL     1      -1.055   3.745  -0.442  0.00  0.00    -0.252 OA
ATOM      7  N   UNL     1      -2.254   2.111   0.669  0.00  0.00    -0.285 N 
ATOM      9  N   UNL     1       0.085   2.265   0.934  0.00  0.00    -0.269 N 
ATOM     10  C   UNL     1      -2.990  -0.245   0.896  0.00  0.00    +0.016 C 
ATOM     11  C   UNL     1      -4.336   0.149   0.231  0.00  0.00    +0.006 C 
ATOM     12  C   UNL     1      -4.188   1.391  -0.666  0.00  0.00    +0.023 C 
ATOM     13  C   UNL     1      -2.386   0.981   1.601  0.00  0.00    +0.113 C 
ATOM     14  C   UNL     1      -3.521   2.546   0.080  0.00  0.00    +0.109 C 
ATOM     18  C   UNL     1      -1.062   2.788   0.337  0.00  0.00    +0.306 C 
ATOM     37  H   UNL     1      -0.005   1.805   1.833  0.00  0.00    +0.156 HD
ENDROOT
BRANCH   9  28
ATOM     28  C   UNL     1       1.405   2.280   0.420  0.00  0.00    +0.038 A 
ATOM     29  C   UNL     1       2.445   1.708   1.153  0.00  0.00    +0.069 A 
ATOM     30  C   UNL     1       1.665   2.867  -0.818  0.00  0.00    +0.023 A 
ATOM     31  C   UNL     1       3.745   1.723   0.647  0.00  0.00    +0.122 A 
ATOM     32  C   UNL     1       2.965   2.882  -1.324  0.00  0.00    +0.005 A 
ATOM     35  C   UNL     1       4.005   2.310  -0.592  0.00  0.00    +0.046 A 
BRANCH  31   6
ATOM      6  O   UNL     1       4.760   1.166   1.363  0.00  0.00    -0.495 OA
ATOM     36  C   UNL     1       6.064   1.217   0.788  0.00  0.00    +0.277 C 
ENDBRANCH  31   6
ENDBRANCH   9  28
BRANCH  10  15
ATOM     15  C   UNL     1      -1.973  -0.863  -0.071  0.00  0.00    +0.061 C 
BRANCH  15  17
ATOM      8  N   UNL     1      -1.316  -2.192   1.818  0.00  0.00    -0.287 NA
ATOM     17  C   UNL     1      -0.947  -1.657   0.701  0.00  0.00    +0.044 C 
ATOM     19  C   UNL     1       0.426  -1.778   0.150  0.00  0.00    +0.003 A 
ATOM     21  C   UNL     1       1.432  -2.171   1.042  0.00  0.00    -0.033 A 
ATOM     22  C   UNL     1       1.066  -2.424   2.474  0.00  0.00    +0.059 C 
ATOM     23  C   UNL     1      -0.337  -3.014   2.538  0.00  0.00    +0.146 C 
ATOM     24  C   UNL     1       0.731  -1.506  -1.185  0.00  0.00    +0.059 A 
ATOM     25  C   UNL     1       2.753  -2.265   0.595  0.00  0.00    +0.053 A 
ATOM     26  C   UNL     1       2.050  -1.618  -1.626  0.00  0.00    +0.162 A 
ATOM     27  C   UNL     1       3.059  -1.994  -0.738  0.00  0.00    +0.162 A 
BRANCH  26   4
ATOM      4  O   UNL     1       2.343  -1.354  -2.931  0.00  0.00    -0.491 OA
ATOM     33  C   UNL     1       1.257  -0.977  -3.775  0.00  0.00    +0.277 C 
ENDBRANCH  26   4
BRANCH  27   5
ATOM      5  O   UNL     1       4.350  -2.096  -1.162  0.00  0.00    -0.491 OA
ATOM     34  C   UNL     1       5.321  -2.486  -0.192  0.00  0.00    +0.277 C 
ENDBRANCH  27   5
ENDBRANCH  15  17
ENDBRANCH  10  15
BRANCH  11  16
ATOM     16  C   UNL     1      -4.983  -1.000  -0.542  0.00  0.00    +0.124 C 
BRANCH  16  20
ATOM      3  O   UNL     1      -7.117   0.149  -0.287  0.00  0.00    -0.251 OA
ATOM     20  C   UNL     1      -6.464  -0.798  -0.700  0.00  0.00    +0.305 C 
BRANCH  20   1
ATOM      1  O   UNL     1      -6.998  -1.841  -1.385  0.00  0.00    -0.481 OA
ATOM     38  H   UNL     1      -7.966  -1.742  -1.507  0.00  0.00    +0.295 HD
ENDBRANCH  20   1
ENDBRANCH  16  20
ENDBRANCH  11  16
TORSDOF 9
