REMARK  Name = 28959933
REMARK  8 active torsions:
REMARK  status: ('A' for Active; 'I' for Inactive)
REMARK    1  A    between atoms: O_3  and  C_27
REMARK    2  A    between atoms: N_6  and  C_16
REMARK    3  A    between atoms: N_7  and  C_28
REMARK    4  A    between atoms: C_8  and  C_12
REMARK    5  A    between atoms: C_9  and  C_15
REMARK    6  A    between atoms: C_12  and  C_16
REMARK    7  A    between atoms: C_14  and  C_17
REMARK    8  A    between atoms: C_15  and  C_27
REMARK                            x       y       z     vdW  Elec       q    Type
REMARK                         _______ _______ _______ _____ _____    ______ ____
ROOT
ATOM      2  O   UNL     1       3.014  -2.864  -1.972  0.00  0.00    -0.275 OA
ATOM      5  N   UNL     1       3.543  -1.326  -0.313  0.00  0.00    -0.301 N 
ATOM      8  C   UNL     1       3.127   0.795   0.912  0.00  0.00    +0.011 C 
ATOM      9  C   UNL     1       4.314   1.429   0.142  0.00  0.00    +0.006 C 
ATOM     10  C   UNL     1       3.322  -0.729   1.010  0.00  0.00    +0.111 C 
ATOM     11  C   UNL     1       4.541   0.740  -1.214  0.00  0.00    +0.023 C 
ATOM     13  C   UNL     1       4.677  -0.772  -1.052  0.00  0.00    +0.108 C 
ATOM     17  C   UNL     1       2.791  -2.361  -0.868  0.00  0.00    +0.219 C 
ENDROOT
BRANCH  17  14
ATOM     14  C   UNL     1       1.645  -2.872  -0.050  0.00  0.00    +0.075 C 
ATOM     18  C   UNL     1       0.528  -3.365  -0.970  0.00  0.00    +0.013 C 
ATOM     19  C   UNL     1       2.142  -3.985   0.874  0.00  0.00    +0.013 C 
ATOM     20  C   UNL     1      -0.617  -3.989  -0.176  0.00  0.00    +0.001 C 
ATOM     21  C   UNL     1       0.996  -4.612   1.664  0.00  0.00    +0.001 C 
ATOM     22  C   UNL     1      -0.120  -5.100   0.745  0.00  0.00    +0.000 C 
ENDBRANCH  17  14
BRANCH   8  12
ATOM     12  C   UNL     1       1.752   1.118   0.313  0.00  0.00    +0.020 C 
BRANCH  12  16
ATOM     16  C   UNL     1       0.665   1.042   1.376  0.00  0.00    +0.085 C 
BRANCH  16   6
ATOM      6  N   UNL     1      -0.636   1.337   0.778  0.00  0.00    -0.299 NA
ATOM      7  N   UNL     1      -3.435   0.992   0.322  0.00  0.00    -0.327 N 
ATOM     23  C   UNL     1      -1.608   1.703   1.815  0.00  0.00    +0.103 C 
ATOM     24  C   UNL     1      -1.127   0.181   0.018  0.00  0.00    +0.103 C 
ATOM     25  C   UNL     1      -2.961   2.068   1.197  0.00  0.00    +0.120 C 
ATOM     26  C   UNL     1      -2.462   0.497  -0.660  0.00  0.00    +0.120 C 
BRANCH   7  28
ATOM      1  F   UNL     1      -8.806   0.650  -0.941  0.00  0.00    -0.205 F 
ATOM     28  C   UNL     1      -4.794   0.905   0.003  0.00  0.00    +0.030 A 
ATOM     29  C   UNL     1      -5.572   2.062  -0.056  0.00  0.00    +0.026 A 
ATOM     30  C   UNL     1      -5.372  -0.338  -0.256  0.00  0.00    +0.026 A 
ATOM     31  C   UNL     1      -6.927   1.975  -0.375  0.00  0.00    +0.040 A 
ATOM     32  C   UNL     1      -6.728  -0.424  -0.575  0.00  0.00    +0.040 A 
ATOM     33  C   UNL     1      -7.505   0.733  -0.634  0.00  0.00    +0.124 A 
ENDBRANCH   7  28
ENDBRANCH  16   6
ENDBRANCH  12  16
ENDBRANCH   8  12
BRANCH   9  15
ATOM     15  C   UNL     1       4.174   2.940  -0.038  0.00  0.00    +0.124 C 
BRANCH  15  27
ATOM      4  O   UNL     1       6.593   3.039  -0.326  0.00  0.00    -0.251 OA
ATOM     27  C   UNL     1       5.507   3.596  -0.272  0.00  0.00    +0.305 C 
BRANCH  27   3
ATOM      3  O   UNL     1       5.338   4.936  -0.421  0.00  0.00    -0.481 OA
ATOM     34  H   UNL     1       6.190   5.397  -0.576  0.00  0.00    +0.295 HD
ENDBRANCH  27   3
ENDBRANCH  15  27
ENDBRANCH   9  15
TORSDOF 8
