REMARK  Name = 56775724
REMARK  7 active torsions:
REMARK  status: ('A' for Active; 'I' for Inactive)
REMARK    1  A    between atoms: O_4  and  C_25
REMARK    2  A    between atoms: N_5  and  C_8
REMARK    3  A    between atoms: N_5  and  C_9
REMARK    4  A    between atoms: C_8  and  C_12
REMARK    5  A    between atoms: C_12  and  C_17
REMARK    6  A    between atoms: C_18  and  C_21
REMARK    7  A    between atoms: C_20  and  C_22
REMARK                            x       y       z     vdW  Elec       q    Type
REMARK                         _______ _______ _______ _____ _____    ______ ____
ROOT
ATOM      1  O   UNL     1       0.157  -1.860  -2.451  0.00  0.00    -0.376 OA
ATOM      8  C   UNL     1       1.016  -1.574  -0.518  0.00  0.00    +0.072 C 
ATOM     10  C   UNL     1       0.765  -0.740  -1.769  0.00  0.00    +0.184 C 
ATOM     11  C   UNL     1       0.279  -2.679  -1.266  0.00  0.00    +0.184 C 
ENDROOT
BRANCH   8   5
ATOM      5  N   UNL     1       2.441  -1.915  -0.456  0.00  0.00    -0.304 NA
ATOM     28  H   UNL     1       2.889  -2.071  -1.359  0.00  0.00    +0.123 HD
BRANCH   5   9
ATOM      3  O   UNL     1       6.198   2.951  -0.549  0.00  0.00    -0.276 OA
ATOM      6  N   UNL     1       5.272   1.082   0.473  0.00  0.00    -0.302 N 
ATOM      9  C   UNL     1       3.152  -0.881   0.292  0.00  0.00    +0.057 C 
ATOM     13  C   UNL     1       3.075   0.456  -0.455  0.00  0.00    +0.037 C 
ATOM     14  C   UNL     1       4.614  -1.295   0.503  0.00  0.00    +0.037 C 
ATOM     15  C   UNL     1       3.893   1.529   0.262  0.00  0.00    +0.109 C 
ATOM     16  C   UNL     1       5.402  -0.187   1.200  0.00  0.00    +0.109 C 
ATOM     18  C   UNL     1       6.333   1.870   0.029  0.00  0.00    +0.212 C 
ATOM     21  C   UNL     1       7.721   1.339   0.282  0.00  0.00    +0.109 C 
ENDBRANCH   5   9
ENDBRANCH   8   5
BRANCH   8  12
ATOM     12  C   UNL     1       0.472  -1.099   0.794  0.00  0.00    +0.085 C 
BRANCH  12  17
ATOM      2  O   UNL     1      -3.096  -1.649   0.944  0.00  0.00    -0.354 OA
ATOM      7  N   UNL     1      -1.779  -2.067   1.097  0.00  0.00    -0.083 NA
ATOM     17  C   UNL     1      -1.039  -1.010   0.750  0.00  0.00    +0.086 A 
ATOM     19  C   UNL     1      -1.825   0.092   0.374  0.00  0.00    +0.076 A 
ATOM     20  C   UNL     1      -3.110  -0.362   0.513  0.00  0.00    +0.168 A 
BRANCH  20  22
ATOM     22  C   UNL     1      -4.409   0.212   0.311  0.00  0.00    +0.023 A 
ATOM     23  C   UNL     1      -4.529   1.531  -0.126  0.00  0.00    +0.057 A 
ATOM     24  C   UNL     1      -5.553  -0.549   0.554  0.00  0.00    +0.012 A 
ATOM     25  C   UNL     1      -5.792   2.089  -0.321  0.00  0.00    +0.118 A 
ATOM     26  C   UNL     1      -6.816   0.010   0.359  0.00  0.00    +0.004 A 
ATOM     27  C   UNL     1      -6.936   1.329  -0.078  0.00  0.00    +0.045 A 
BRANCH  25   4
ATOM      4  O   UNL     1      -5.909   3.377  -0.747  0.00  0.00    -0.507 OA
ATOM     29  H   UNL     1      -6.852   3.598  -0.827  0.00  0.00    +0.292 HD
ENDBRANCH  25   4
ENDBRANCH  20  22
ENDBRANCH  12  17
ENDBRANCH   8  12
TORSDOF 6
