REMARK  Name = 38027539
REMARK  13 active torsions:
REMARK  status: ('A' for Active; 'I' for Inactive)
REMARK    1  A    between atoms: N_4  and  C_14
REMARK    2  A    between atoms: N_5  and  C_21
REMARK    3  A    between atoms: N_6  and  C_22
REMARK    4  A    between atoms: C_7  and  C_11
REMARK    5  A    between atoms: C_8  and  C_14
REMARK    6  A    between atoms: C_10  and  C_15
REMARK    7  A    between atoms: C_11  and  C_16
REMARK    8  A    between atoms: C_11  and  C_17
REMARK    9  A    between atoms: C_12  and  C_18
REMARK   10  A    between atoms: C_15  and  C_19
REMARK   11  A    between atoms: C_21  and  C_23
REMARK   12  A    between atoms: C_22  and  C_24
REMARK   13  A    between atoms: C_22  and  C_25
REMARK                            x       y       z     vdW  Elec       q    Type
REMARK                         _______ _______ _______ _____ _____    ______ ____
ROOT
ATOM      7  C   UNL     1      -2.146  -0.375  -1.174  0.00  0.00    +0.000 C 
ATOM      8  C   UNL     1      -3.395   0.527  -1.008  0.00  0.00    +0.032 C 
ATOM      9  C   UNL     1      -2.415  -1.775  -0.602  0.00  0.00    +0.012 C 
ATOM     10  C   UNL     1      -2.790  -1.731   0.891  0.00  0.00    +0.023 C 
ATOM     12  C   UNL     1      -3.833  -0.670   1.179  0.00  0.00    -0.073 C 
ATOM     13  C   UNL     1      -4.099   0.323   0.312  0.00  0.00    -0.022 C 
ATOM     18  C   UNL     1      -4.597  -0.804   2.467  0.00  0.00    +0.039 C 
ENDROOT
BRANCH   7  11
ATOM     11  C   UNL     1      -1.717  -0.488  -2.641  0.00  0.00    -0.013 C 
ATOM     16  C   UNL     1      -0.234  -0.834  -2.736  0.00  0.00    +0.007 C 
ATOM     17  C   UNL     1      -2.564  -1.530  -3.364  0.00  0.00    +0.007 C 
ENDBRANCH   7  11
BRANCH   8  14
ATOM     14  C   UNL     1      -3.034   2.007  -1.172  0.00  0.00    +0.113 C 
BRANCH  14   4
ATOM      3  O   UNL     1      -0.369   3.083  -1.430  0.00  0.00    -0.253 OA
ATOM      4  N   UNL     1      -2.174   2.440  -0.115  0.00  0.00    -0.299 N 
ATOM      6  N   UNL     1      -0.269   3.296   0.879  0.00  0.00    -0.297 N 
ATOM     20  C   UNL     1      -0.887   2.953  -0.321  0.00  0.00    +0.300 C 
ATOM     31  H   UNL     1      -2.534   2.439   0.834  0.00  0.00    +0.150 HD
ATOM     33  H   UNL     1      -0.748   3.078   1.747  0.00  0.00    +0.150 HD
BRANCH   6  22
ATOM     22  C   UNL     1       1.064   3.848   0.943  0.00  0.00    +0.068 C 
ATOM     24  C   UNL     1       2.096   2.731   1.022  0.00  0.00    +0.027 C 
ATOM     25  C   UNL     1       1.191   4.803   2.124  0.00  0.00    +0.027 C 
ENDBRANCH   6  22
ENDBRANCH  14   4
ENDBRANCH   8  14
BRANCH  10  15
ATOM     15  C   UNL     1      -1.549  -1.532   1.768  0.00  0.00    +0.103 C 
BRANCH  15  19
ATOM      2  O   UNL     1      -0.649  -3.773   1.635  0.00  0.00    -0.276 OA
ATOM      5  N   UNL     1       0.689  -1.966   1.046  0.00  0.00    -0.311 N 
ATOM     19  C   UNL     1      -0.482  -2.566   1.486  0.00  0.00    +0.214 C 
ATOM     32  H   UNL     1       0.721  -0.956   0.945  0.00  0.00    +0.149 HD
BRANCH   5  21
ATOM     21  C   UNL     1       1.877  -2.713   0.704  0.00  0.00    +0.139 C 
BRANCH  21  23
ATOM      1  F   UNL     1       6.074   0.648  -0.966  0.00  0.00    -0.205 F 
ATOM     23  C   UNL     1       2.996  -1.816   0.259  0.00  0.00    -0.030 A 
ATOM     26  C   UNL     1       3.132  -1.488  -1.090  0.00  0.00    +0.008 A 
ATOM     27  C   UNL     1       3.900  -1.312   1.194  0.00  0.00    +0.008 A 
ATOM     28  C   UNL     1       4.172  -0.655  -1.504  0.00  0.00    +0.038 A 
ATOM     29  C   UNL     1       4.939  -0.479   0.780  0.00  0.00    +0.038 A 
ATOM     30  C   UNL     1       5.075  -0.150  -0.568  0.00  0.00    +0.123 A 
ENDBRANCH  21  23
ENDBRANCH   5  21
ENDBRANCH  15  19
ENDBRANCH  10  15
TORSDOF 8
