REMARK  Name = 45360387
REMARK  8 active torsions:
REMARK  status: ('A' for Active; 'I' for Inactive)
REMARK    1  A    between atoms: O_4  and  C_12
REMARK    2  A    between atoms: O_7  and  C_27
REMARK    3  A    between atoms: O_7  and  C_32
REMARK    4  A    between atoms: N_9  and  C_11
REMARK    5  A    between atoms: N_10  and  C_20
REMARK    6  A    between atoms: C_18  and  C_19
REMARK    7  A    between atoms: C_28  and  C_31
REMARK    8  A    between atoms: C_32  and  C_33
REMARK                            x       y       z     vdW  Elec       q    Type
REMARK                         _______ _______ _______ _____ _____    ______ ____
ROOT
ATOM      5  O   UNL     1      -4.724   2.268   0.916  0.00  0.00    -0.252 OA
ATOM      8  N   UNL     1      -5.096   0.353  -0.325  0.00  0.00    -0.284 N 
ATOM     10  N   UNL     1      -2.959   1.363  -0.292  0.00  0.00    -0.269 N 
ATOM     11  C   UNL     1      -4.088  -1.955  -0.363  0.00  0.00    +0.119 C 
ATOM     12  C   UNL     1      -4.780  -2.278   0.974  0.00  0.00    +0.136 C 
ATOM     13  C   UNL     1      -6.301  -2.094   0.998  0.00  0.00    +0.035 C 
ATOM     14  C   UNL     1      -4.655  -0.773  -1.159  0.00  0.00    +0.134 C 
ATOM     15  C   UNL     1      -6.731  -0.648   1.260  0.00  0.00    +0.022 C 
ATOM     16  C   UNL     1      -6.498   0.302   0.092  0.00  0.00    +0.109 C 
ATOM     17  C   UNL     1      -4.278   1.403   0.158  0.00  0.00    +0.307 C 
ATOM     41  H   UNL     1      -2.679   0.598  -0.895  0.00  0.00    +0.156 HD
ENDROOT
BRANCH  10  20
ATOM     20  C   UNL     1      -1.907   2.265   0.010  0.00  0.00    +0.035 A 
ATOM     23  C   UNL     1      -0.639   2.066  -0.536  0.00  0.00    +0.035 A 
ATOM     24  C   UNL     1      -2.141   3.351   0.854  0.00  0.00    +0.023 A 
ATOM     28  C   UNL     1       0.395   2.954  -0.239  0.00  0.00    +0.057 A 
ATOM     29  C   UNL     1      -1.107   4.238   1.151  0.00  0.00    +0.002 A 
ATOM     30  C   UNL     1       0.161   4.040   0.605  0.00  0.00    +0.012 A 
BRANCH  28  31
ATOM      1  F   UNL     1       2.316   1.548  -0.476  0.00  0.00    -0.166 F 
ATOM      2  F   UNL     1       2.645   3.696  -0.432  0.00  0.00    -0.166 F 
ATOM      3  F   UNL     1       1.768   2.761  -2.188  0.00  0.00    -0.166 F 
ATOM     31  C   UNL     1       1.751   2.742  -0.822  0.00  0.00    +0.417 C 
ENDBRANCH  28  31
ENDBRANCH  10  20
BRANCH  11   9
ATOM      6  O   UNL     1      -1.952  -2.666  -2.144  0.00  0.00    -0.270 OA
ATOM      9  N   UNL     1      -2.668  -1.777  -0.127  0.00  0.00    -0.305 N 
ATOM     18  C   UNL     1      -1.714  -2.154  -1.053  0.00  0.00    +0.244 C 
ATOM     39  H   UNL     1      -2.398  -1.257   0.702  0.00  0.00    +0.149 HD
BRANCH  18  19
ATOM     19  C   UNL     1      -0.302  -1.929  -0.650  0.00  0.00    +0.037 A 
ATOM     21  C   UNL     1       0.677  -1.728  -1.622  0.00  0.00    +0.016 A 
ATOM     22  C   UNL     1       0.044  -1.921   0.702  0.00  0.00    +0.016 A 
ATOM     25  C   UNL     1       2.003  -1.519  -1.243  0.00  0.00    +0.046 A 
ATOM     26  C   UNL     1       1.370  -1.712   1.080  0.00  0.00    +0.046 A 
ATOM     27  C   UNL     1       2.350  -1.510   0.108  0.00  0.00    +0.121 A 
BRANCH  27   7
ATOM      7  O   UNL     1       3.644  -1.306   0.478  0.00  0.00    -0.487 OA
BRANCH   7  32
ATOM     32  C   UNL     1       4.594  -1.107  -0.568  0.00  0.00    +0.264 C 
BRANCH  32  33
ATOM     33  C   UNL     1       5.957  -0.932   0.035  0.00  0.00    -0.010 A 
ATOM     34  C   UNL     1       6.410   0.342   0.379  0.00  0.00    +0.007 A 
ATOM     35  C   UNL     1       6.771  -2.043   0.252  0.00  0.00    +0.007 A 
ATOM     36  C   UNL     1       7.677   0.504   0.939  0.00  0.00    +0.000 A 
ATOM     37  C   UNL     1       8.037  -1.881   0.813  0.00  0.00    +0.000 A 
ATOM     38  C   UNL     1       8.491  -0.608   1.156  0.00  0.00    +0.000 A 
ENDBRANCH  32  33
ENDBRANCH   7  32
ENDBRANCH  27   7
ENDBRANCH  18  19
ENDBRANCH  11   9
BRANCH  12   4
ATOM      4  O   UNL     1      -4.520  -3.655   1.279  0.00  0.00    -0.390 OA
ATOM     40  H   UNL     1      -4.844  -3.824   2.180  0.00  0.00    +0.210 HD
ENDBRANCH  12   4
TORSDOF 8
