REMARK  Name = 11911966
REMARK  2 active torsions:
REMARK  status: ('A' for Active; 'I' for Inactive)
REMARK    1  A    between atoms: C_17  and  C_20
REMARK    2  A    between atoms: C_18  and  C_21
REMARK                            x       y       z     vdW  Elec       q    Type
REMARK                         _______ _______ _______ _____ _____    ______ ____
ROOT
ATOM      2  O   UNL     1      -0.894   1.903  -1.443  0.00  0.00    -0.267 OA
ATOM      3  O   UNL     1       3.210  -0.794  -2.494  0.00  0.00    -0.268 OA
ATOM      4  N   UNL     1       0.974   1.819  -0.047  0.00  0.00    -0.311 N 
ATOM      5  N   UNL     1       3.725   0.360  -0.551  0.00  0.00    -0.295 N 
ATOM      8  C   UNL     1       3.245   2.794  -0.724  0.00  0.00    +0.027 C 
ATOM      9  C   UNL     1       2.998   1.650   1.442  0.00  0.00    +0.054 C 
ATOM     10  C   UNL     1       3.471   2.942   0.777  0.00  0.00    +0.018 C 
ATOM     11  C   UNL     1       1.739   2.654  -0.984  0.00  0.00    +0.130 C 
ATOM     12  C   UNL     1       4.042   1.595  -1.271  0.00  0.00    +0.113 C 
ATOM     13  C   UNL     1       3.831   0.462   0.915  0.00  0.00    +0.117 C 
ATOM     14  C   UNL     1       1.528   1.399   1.166  0.00  0.00    +0.027 A 
ATOM     15  C   UNL     1       0.777   0.735   2.059  0.00  0.00    +0.022 A 
ATOM     16  C   UNL     1      -0.366   1.546  -0.389  0.00  0.00    +0.260 A 
ATOM     17  C   UNL     1       3.277  -0.768  -1.265  0.00  0.00    +0.266 C 
ATOM     18  C   UNL     1      -1.168   0.772   0.620  0.00  0.00    +0.053 A 
ATOM     19  C   UNL     1      -0.595   0.417   1.779  0.00  0.00    +0.016 A 
ENDROOT
BRANCH  18  21
ATOM      1  S   UNL     1      -2.891  -1.058  -0.408  0.00  0.00    -0.088 S 
ATOM     21  C   UNL     1      -2.528   0.425   0.357  0.00  0.00    +0.026 A 
ATOM     22  C   UNL     1      -3.672   1.142   0.641  0.00  0.00    +0.024 A 
ATOM     24  C   UNL     1      -4.873   0.474   0.228  0.00  0.00    -0.010 A 
ATOM     25  C   UNL     1      -4.588  -0.757  -0.369  0.00  0.00    +0.020 A 
ATOM     26  C   UNL     1      -6.229   0.868   0.336  0.00  0.00    +0.009 A 
ATOM     28  C   UNL     1      -5.611  -1.595  -0.855  0.00  0.00    +0.015 A 
ATOM     30  C   UNL     1      -7.247   0.039  -0.145  0.00  0.00    +0.001 A 
ATOM     31  C   UNL     1      -6.938  -1.179  -0.734  0.00  0.00    +0.001 A 
ENDBRANCH  18  21
BRANCH  17  20
ATOM      6  N   UNL     1       1.558  -1.966  -0.138  0.00  0.00    -0.247 NA
ATOM      7  N   UNL     1       3.370  -3.979   0.590  0.00  0.00    -0.259 NA
ATOM     20  C   UNL     1       2.856  -1.923  -0.485  0.00  0.00    +0.144 A 
ATOM     23  C   UNL     1       3.748  -2.906  -0.132  0.00  0.00    +0.143 A 
ATOM     27  C   UNL     1       1.180  -3.040   0.584  0.00  0.00    +0.131 A 
ATOM     29  C   UNL     1       2.070  -4.029   0.941  0.00  0.00    +0.130 A 
ENDBRANCH  17  20
TORSDOF 2
