REMARK  Name = 56774421
REMARK  3 active torsions:
REMARK  status: ('A' for Active; 'I' for Inactive)
REMARK    1  A    between atoms: N_3  and  C_13
REMARK    2  A    between atoms: C_5  and  C_9
REMARK    3  A    between atoms: C_10  and  C_15
REMARK                            x       y       z     vdW  Elec       q    Type
REMARK                         _______ _______ _______ _____ _____    ______ ____
ROOT
ATOM      3  N   UNL     1      -1.482  -1.310   0.209  0.00  0.00    -0.330 N 
ATOM      4  N   UNL     1      -0.418   0.641   0.150  0.00  0.00    -0.232 NA
ATOM      9  C   UNL     1      -0.279  -0.662   0.254  0.00  0.00    +0.115 A 
ATOM     11  C   UNL     1      -2.463  -0.362   0.067  0.00  0.00    +0.069 A 
ATOM     12  C   UNL     1      -1.773   0.847   0.032  0.00  0.00    +0.089 A 
ATOM     13  C   UNL     1      -1.689  -2.738   0.296  0.00  0.00    +0.150 C 
ATOM     14  C   UNL     1      -3.851  -0.455  -0.032  0.00  0.00    +0.028 A 
ATOM     16  C   UNL     1      -2.496   2.044  -0.109  0.00  0.00    +0.030 A 
ATOM     17  C   UNL     1      -4.555   0.746  -0.172  0.00  0.00    +0.002 A 
ATOM     18  C   UNL     1      -3.891   1.974  -0.210  0.00  0.00    +0.002 A 
ENDROOT
BRANCH   9   5
ATOM      1  O   UNL     1       4.488   1.399  -0.976  0.00  0.00    -0.276 OA
ATOM      2  N   UNL     1       2.923  -0.039  -0.070  0.00  0.00    -0.301 N 
ATOM      5  C   UNL     1       1.036  -1.408   0.408  0.00  0.00    +0.074 C 
ATOM      6  C   UNL     1       1.627  -1.798  -0.956  0.00  0.00    +0.032 C 
ATOM      7  C   UNL     1       2.193  -0.631   1.050  0.00  0.00    +0.119 C 
ATOM      8  C   UNL     1       2.487  -0.601  -1.339  0.00  0.00    +0.108 C 
ATOM     10  C   UNL     1       3.905   0.932   0.004  0.00  0.00    +0.212 C 
ATOM     15  C   UNL     1       4.237   1.418   1.392  0.00  0.00    +0.109 C 
ENDBRANCH   9   5
TORSDOF 1
