REMARK  Name = 51136924
REMARK  4 active torsions:
REMARK  status: ('A' for Active; 'I' for Inactive)
REMARK    1  A    between atoms: N_5  and  C_13
REMARK    2  A    between atoms: C_9  and  C_14
REMARK    3  A    between atoms: C_13  and  C_15
REMARK    4  A    between atoms: C_18  and  C_21
REMARK                            x       y       z     vdW  Elec       q    Type
REMARK                         _______ _______ _______ _____ _____    ______ ____
ROOT
ATOM      5  N   UNL     1      -3.070  -0.976  -0.610  0.00  0.00    -0.287 NA
ATOM      9  C   UNL     1      -2.487  -1.732   0.516  0.00  0.00    +0.146 C 
ATOM     10  C   UNL     1      -2.670  -3.212   0.130  0.00  0.00    +0.030 C 
ATOM     11  C   UNL     1      -3.418  -3.187  -1.196  0.00  0.00    +0.017 C 
ATOM     12  C   UNL     1      -4.100  -1.834  -1.196  0.00  0.00    +0.085 C 
ENDROOT
BRANCH   9  14
ATOM      4  O   UNL     1      -0.740  -0.920   2.020  0.00  0.00    -0.336 OA
ATOM      6  N   UNL     1      -0.013  -1.425  -0.038  0.00  0.00    -0.189 NA
ATOM      7  N   UNL     1       0.635  -0.654   2.016  0.00  0.00    -0.054 NA
ATOM     14  C   UNL     1      -1.039  -1.371   0.773  0.00  0.00    +0.245 A 
ATOM     18  C   UNL     1       0.991  -0.976   0.769  0.00  0.00    +0.220 A 
BRANCH  18  21
ATOM      3  F   UNL     1       6.217  -0.480  -0.870  0.00  0.00    -0.204 F 
ATOM      8  N   UNL     1       3.239  -0.404   1.200  0.00  0.00    -0.249 NA
ATOM     21  C   UNL     1       2.342  -0.862   0.299  0.00  0.00    +0.111 A 
ATOM     23  C   UNL     1       2.659  -1.210  -1.004  0.00  0.00    +0.034 A 
ATOM     24  C   UNL     1       3.984  -1.081  -1.408  0.00  0.00    +0.042 A 
ATOM     25  C   UNL     1       4.516  -0.291   0.771  0.00  0.00    +0.149 A 
ATOM     26  C   UNL     1       4.936  -0.613  -0.510  0.00  0.00    +0.141 A 
ENDBRANCH  18  21
ENDBRANCH   9  14
BRANCH   5  13
ATOM     13  C   UNL     1      -3.598   0.324  -0.217  0.00  0.00    +0.120 C 
BRANCH  13  15
ATOM      1  F   UNL     1       0.111   2.893  -2.078  0.00  0.00    -0.202 F 
ATOM      2  F   UNL     1       0.484   4.174   0.309  0.00  0.00    -0.202 F 
ATOM     15  C   UNL     1      -2.507   1.353  -0.076  0.00  0.00    -0.030 A 
ATOM     16  C   UNL     1      -1.687   1.652  -1.164  0.00  0.00    +0.046 A 
ATOM     17  C   UNL     1      -2.317   2.006   1.142  0.00  0.00    +0.008 A 
ATOM     19  C   UNL     1      -0.676   2.606  -1.034  0.00  0.00    +0.159 A 
ATOM     20  C   UNL     1      -1.307   2.959   1.272  0.00  0.00    +0.041 A 
ATOM     22  C   UNL     1      -0.487   3.259   0.184  0.00  0.00    +0.158 A 
ENDBRANCH  13  15
ENDBRANCH   5  13
TORSDOF 4
