REMARK  Name = 45783846
REMARK  6 active torsions:
REMARK  status: ('A' for Active; 'I' for Inactive)
REMARK    1  A    between atoms: O_3  and  C_23
REMARK    2  A    between atoms: C_10  and  C_15
REMARK    3  A    between atoms: C_16  and  C_17
REMARK    4  A    between atoms: C_17  and  C_19
REMARK    5  A    between atoms: C_19  and  C_23
REMARK    6  A    between atoms: C_20  and  C_21
REMARK                            x       y       z     vdW  Elec       q    Type
REMARK                         _______ _______ _______ _____ _____    ______ ____
ROOT
ATOM      2  O   UNL     1      -4.003  -1.093  -1.614  0.00  0.00    -0.276 OA
ATOM      5  N   UNL     1      -2.635   0.393  -0.452  0.00  0.00    -0.284 N 
ATOM      6  N   UNL     1      -1.495   3.464   1.334  0.00  0.00    -0.347 N 
ATOM      7  N   UNL     1      -0.889   4.158  -0.702  0.00  0.00    -0.240 NA
ATOM     10  C   UNL     1      -1.687   0.552  -1.608  0.00  0.00    +0.171 C 
ATOM     11  C   UNL     1      -1.488   2.054  -1.978  0.00  0.00    +0.089 C 
ATOM     12  C   UNL     1      -2.310   1.105   0.816  0.00  0.00    +0.163 C 
ATOM     13  C   UNL     1      -1.755   2.431   0.483  0.00  0.00    +0.056 A 
ATOM     14  C   UNL     1      -1.372   2.881  -0.757  0.00  0.00    +0.066 A 
ATOM     16  C   UNL     1      -3.715  -0.491  -0.576  0.00  0.00    +0.217 C 
ATOM     18  C   UNL     1      -0.975   4.481   0.573  0.00  0.00    +0.197 A 
ATOM     32  H   UNL     1      -1.651   3.481   2.333  0.00  0.00    +0.167 HD
ENDROOT
BRANCH  10  15
ATOM      1  O   UNL     1      -0.469  -1.576  -1.744  0.00  0.00    -0.336 OA
ATOM      8  N   UNL     1       0.733   0.105  -0.880  0.00  0.00    -0.190 NA
ATOM      9  N   UNL     1       0.791  -2.111  -1.445  0.00  0.00    -0.056 NA
ATOM     15  C   UNL     1      -0.418  -0.268  -1.381  0.00  0.00    +0.249 A 
ATOM     20  C   UNL     1       1.442  -1.059  -0.939  0.00  0.00    +0.202 A 
BRANCH  20  21
ATOM     21  C   UNL     1       2.801  -1.137  -0.486  0.00  0.00    +0.023 A 
ATOM     22  C   UNL     1       3.429  -0.005   0.032  0.00  0.00    +0.020 A 
ATOM     24  C   UNL     1       4.759  -0.065   0.480  0.00  0.00    -0.017 A 
ATOM     25  C   UNL     1       3.491  -2.344  -0.563  0.00  0.00    +0.012 A 
ATOM     26  C   UNL     1       5.461  -1.292   0.402  0.00  0.00    -0.018 A 
ATOM     27  C   UNL     1       4.812  -2.422  -0.122  0.00  0.00    +0.009 A 
ATOM     28  C   UNL     1       5.407   1.065   1.004  0.00  0.00    +0.008 A 
ATOM     29  C   UNL     1       6.790  -1.352   0.850  0.00  0.00    +0.008 A 
ATOM     30  C   UNL     1       6.729   0.987   1.445  0.00  0.00    +0.001 A 
ATOM     31  C   UNL     1       7.419  -0.219   1.368  0.00  0.00    +0.001 A 
ENDBRANCH  20  21
ENDBRANCH  10  15
BRANCH  16  17
ATOM     17  C   UNL     1      -4.562  -0.698   0.654  0.00  0.00    +0.107 C 
BRANCH  17  19
ATOM     19  C   UNL     1      -5.679  -1.676   0.350  0.00  0.00    +0.129 C 
BRANCH  19  23
ATOM      4  O   UNL     1      -6.423  -1.294   2.617  0.00  0.00    -0.251 OA
ATOM     23  C   UNL     1      -6.588  -1.853   1.541  0.00  0.00    +0.305 C 
BRANCH  23   3
ATOM      3  O   UNL     1      -7.602  -2.721   1.300  0.00  0.00    -0.481 OA
ATOM     33  H   UNL     1      -8.180  -2.837   2.083  0.00  0.00    +0.295 HD
ENDBRANCH  23   3
ENDBRANCH  19  23
ENDBRANCH  17  19
ENDBRANCH  16  17
TORSDOF 6
