REMARK  Name = 11884188
REMARK  4 active torsions:
REMARK  status: ('A' for Active; 'I' for Inactive)
REMARK    1  A    between atoms: O_5  and  C_26
REMARK    2  A    between atoms: O_5  and  C_31
REMARK    3  A    between atoms: C_9  and  C_12
REMARK    4  A    between atoms: C_23  and  C_25
REMARK                            x       y       z     vdW  Elec       q    Type
REMARK                         _______ _______ _______ _____ _____    ______ ____
ROOT
ATOM      2  O   UNL     1      -6.185  -1.850  -0.506  0.00  0.00    -0.275 OA
ATOM      3  O   UNL     1      -3.261  -0.664   1.913  0.00  0.00    -0.273 OA
ATOM      4  O   UNL     1       0.045   1.910  -1.308  0.00  0.00    -0.270 OA
ATOM      6  N   UNL     1      -4.481  -0.288  -0.795  0.00  0.00    -0.298 N 
ATOM      7  N   UNL     1      -1.685   0.481  -0.744  0.00  0.00    -0.283 N 
ATOM      8  N   UNL     1      -0.994  -0.466   1.973  0.00  0.00    -0.283 N 
ATOM     12  C   UNL     1      -5.813  -0.687  -0.642  0.00  0.00    +0.219 C 
ATOM     13  C   UNL     1      -3.423  -1.300  -0.812  0.00  0.00    +0.139 C 
ATOM     14  C   UNL     1      -2.106  -0.804  -0.202  0.00  0.00    +0.180 C 
ATOM     15  C   UNL     1      -4.069   1.108  -0.955  0.00  0.00    +0.127 C 
ATOM     16  C   UNL     1      -2.665   1.234  -1.528  0.00  0.00    +0.128 C 
ATOM     17  C   UNL     1      -2.191  -0.611   1.304  0.00  0.00    +0.239 C 
ATOM     18  C   UNL     1      -0.366   0.924  -0.694  0.00  0.00    +0.249 C 
ATOM     19  C   UNL     1       0.606   0.197   0.166  0.00  0.00    +0.059 A 
ATOM     20  C   UNL     1       0.300  -0.338   1.428  0.00  0.00    +0.046 A 
ATOM     21  C   UNL     1       1.945   0.225  -0.265  0.00  0.00    +0.023 A 
ATOM     22  C   UNL     1       1.351  -0.769   2.256  0.00  0.00    +0.024 A 
ATOM     23  C   UNL     1       2.970  -0.252   0.551  0.00  0.00    -0.014 A 
ATOM     24  C   UNL     1       2.675  -0.737   1.818  0.00  0.00    +0.010 A 
ATOM     32  H   UNL     1      -1.045  -0.561   2.984  0.00  0.00    +0.155 HD
ENDROOT
BRANCH  23  25
ATOM      1 CL   UNL     1       6.814  -2.678  -1.876  0.00  0.00    -0.084 Cl
ATOM     25  C   UNL     1       4.341  -0.220   0.089  0.00  0.00    +0.025 A 
ATOM     26  C   UNL     1       5.147   0.898   0.310  0.00  0.00    +0.128 A 
ATOM     27  C   UNL     1       4.858  -1.326  -0.588  0.00  0.00    +0.032 A 
ATOM     28  C   UNL     1       6.466   0.910  -0.144  0.00  0.00    +0.047 A 
ATOM     29  C   UNL     1       6.177  -1.314  -1.042  0.00  0.00    +0.042 A 
ATOM     30  C   UNL     1       6.981  -0.196  -0.820  0.00  0.00    +0.023 A 
BRANCH  26   5
ATOM      5  O   UNL     1       4.669   1.993   0.967  0.00  0.00    -0.495 OA
ATOM     31  C   UNL     1       4.058   3.008   0.174  0.00  0.00    +0.277 C 
ENDBRANCH  26   5
ENDBRANCH  23  25
BRANCH  12   9
ATOM      9  C   UNL     1      -6.852   0.389  -0.662  0.00  0.00    +0.075 C 
ATOM     10  C   UNL     1      -7.163   1.093   0.613  0.00  0.00    +0.013 C 
ATOM     11  C   UNL     1      -8.150   0.131   0.020  0.00  0.00    +0.013 C 
ENDBRANCH  12   9
TORSDOF 3
