REMARK  Name = 11865736
REMARK  11 active torsions:
REMARK  status: ('A' for Active; 'I' for Inactive)
REMARK    1  A    between atoms: N_6  and  C_11
REMARK    2  A    between atoms: N_7  and  C_17
REMARK    3  A    between atoms: N_8  and  C_27
REMARK    4  A    between atoms: C_12  and  C_15
REMARK    5  A    between atoms: C_16  and  C_20
REMARK    6  A    between atoms: C_17  and  C_19
REMARK    7  A    between atoms: C_17  and  C_22
REMARK    8  A    between atoms: C_19  and  C_21
REMARK    9  A    between atoms: C_24  and  C_29
REMARK   10  A    between atoms: C_24  and  C_30
REMARK   11  A    between atoms: C_27  and  C_34
REMARK                            x       y       z     vdW  Elec       q    Type
REMARK                         _______ _______ _______ _____ _____    ______ ____
ROOT
ATOM      1  O   UNL     1       1.498   1.071   1.136  0.00  0.00    -0.274 OA
ATOM      7  N   UNL     1       0.456   1.893  -0.776  0.00  0.00    -0.302 N 
ATOM     15  C   UNL     1       1.406   1.160  -0.085  0.00  0.00    +0.234 C 
ATOM     37  H   UNL     1       0.530   1.963  -1.787  0.00  0.00    +0.150 HD
ENDROOT
BRANCH  15  12
ATOM      2  O   UNL     1       4.542   1.479   0.489  0.00  0.00    -0.271 OA
ATOM      5  N   UNL     1       3.282  -0.339  -0.204  0.00  0.00    -0.285 N 
ATOM     11  C   UNL     1       1.677  -1.889  -1.034  0.00  0.00    +0.094 C 
ATOM     12  C   UNL     1       2.340   0.432  -1.004  0.00  0.00    +0.164 C 
ATOM     13  C   UNL     1       1.601  -0.600  -1.853  0.00  0.00    +0.056 C 
ATOM     14  C   UNL     1       3.018  -1.776  -0.313  0.00  0.00    +0.131 C 
ATOM     16  C   UNL     1       4.361   0.263   0.422  0.00  0.00    +0.240 C 
BRANCH  11   6
ATOM      3  O   UNL     1      -0.855  -3.194  -1.494  0.00  0.00    -0.253 OA
ATOM      6  N   UNL     1       0.578  -2.002  -0.108  0.00  0.00    -0.295 N 
ATOM      8  N   UNL     1      -1.504  -2.614   0.657  0.00  0.00    -0.296 N 
ATOM     18  C   UNL     1      -0.615  -2.653  -0.415  0.00  0.00    +0.300 C 
ATOM     36  H   UNL     1       0.651  -1.533   0.789  0.00  0.00    +0.151 HD
ATOM     38  H   UNL     1      -1.211  -2.159   1.517  0.00  0.00    +0.151 HD
BRANCH   8  27
ATOM     27  C   UNL     1      -2.816  -3.213   0.608  0.00  0.00    +0.132 C 
BRANCH  27  34
ATOM     34  C   UNL     1      -2.725  -4.627   1.079  0.00  0.00    -0.016 C 
ATOM     35  C   UNL     1      -3.085  -5.683   0.341  0.00  0.00    +0.005 C 
ENDBRANCH  27  34
ENDBRANCH   8  27
ENDBRANCH  11   6
BRANCH  16  20
ATOM     20  C   UNL     1       5.351  -0.635   1.048  0.00  0.00    +0.066 C 
ATOM     24  C   UNL     1       6.652  -0.694   0.716  0.00  0.00    -0.071 C 
ATOM     29  C   UNL     1       7.187   0.203  -0.370  0.00  0.00    +0.039 C 
ATOM     30  C   UNL     1       7.689  -1.593   1.330  0.00  0.00    +0.039 C 
ENDBRANCH  16  20
ENDBRANCH  15  12
BRANCH   7  17
ATOM     17  C   UNL     1      -0.575   2.667  -0.122  0.00  0.00    +0.163 C 
BRANCH  17  22
ATOM      4  O   UNL     1       0.818   4.609  -0.560  0.00  0.00    -0.274 OA
ATOM     10  N   UNL     1      -0.488   4.598   1.329  0.00  0.00    -0.328 N 
ATOM     22  C   UNL     1       0.015   4.038   0.173  0.00  0.00    +0.231 C 
ATOM     40  H   UNL     1      -1.170   4.124   1.913  0.00  0.00    +0.145 HD
ATOM     41  H   UNL     1      -0.188   5.517   1.635  0.00  0.00    +0.145 HD
ENDBRANCH  17  22
BRANCH  17  19
ATOM     19  C   UNL     1      -1.836   2.800  -0.985  0.00  0.00    +0.069 C 
BRANCH  19  21
ATOM      9  N   UNL     1      -3.587  -0.401  -1.437  0.00  0.00    -0.360 N 
ATOM     21  C   UNL     1      -2.709   1.578  -0.945  0.00  0.00    -0.020 A 
ATOM     23  C   UNL     1      -3.767   1.321  -0.029  0.00  0.00    +0.003 A 
ATOM     25  C   UNL     1      -2.622   0.501  -1.798  0.00  0.00    +0.087 A 
ATOM     26  C   UNL     1      -4.301   0.074  -0.359  0.00  0.00    +0.047 A 
ATOM     28  C   UNL     1      -4.323   2.033   1.052  0.00  0.00    +0.010 A 
ATOM     31  C   UNL     1      -5.368  -0.500   0.341  0.00  0.00    +0.026 A 
ATOM     32  C   UNL     1      -5.391   1.471   1.762  0.00  0.00    +0.001 A 
ATOM     33  C   UNL     1      -5.904   0.224   1.410  0.00  0.00    +0.002 A 
ATOM     39  H   UNL     1      -3.753  -1.285  -1.896  0.00  0.00    +0.165 HD
ENDBRANCH  19  21
ENDBRANCH  17  19
ENDBRANCH   7  17
TORSDOF 9
