REMARK  Name = 26744403
REMARK  4 active torsions:
REMARK  status: ('A' for Active; 'I' for Inactive)
REMARK    1  A    between atoms: O_3  and  C_12
REMARK    2  A    between atoms: N_5  and  C_8
REMARK    3  A    between atoms: C_9  and  C_15
REMARK    4  A    between atoms: C_18  and  C_19
REMARK                            x       y       z     vdW  Elec       q    Type
REMARK                         _______ _______ _______ _____ _____    ______ ____
ROOT
ATOM      5  N   UNL     1      -2.514  -0.332  -0.401  0.00  0.00    -0.286 NA
ATOM      9  C   UNL     1      -1.954  -1.240   0.621  0.00  0.00    +0.149 C 
ATOM     10  C   UNL     1      -3.658  -1.025  -0.989  0.00  0.00    +0.116 C 
ATOM     11  C   UNL     1      -2.321  -2.654   0.134  0.00  0.00    +0.061 C 
ATOM     12  C   UNL     1      -3.124  -2.436  -1.142  0.00  0.00    +0.130 C 
ENDROOT
BRANCH   5   8
ATOM      2  O   UNL     1      -2.538   3.837   0.090  0.00  0.00    -0.380 OA
ATOM      8  C   UNL     1      -2.878   0.979   0.131  0.00  0.00    +0.062 C 
ATOM     13  C   UNL     1      -3.493   1.864  -0.958  0.00  0.00    +0.047 C 
ATOM     14  C   UNL     1      -1.652   1.668   0.735  0.00  0.00    +0.047 C 
ATOM     16  C   UNL     1      -3.744   3.268  -0.421  0.00  0.00    +0.161 C 
ATOM     17  C   UNL     1      -2.005   3.084   1.179  0.00  0.00    +0.161 C 
ENDBRANCH   5   8
BRANCH   9  15
ATOM      4  O   UNL     1       0.033  -1.370   2.037  0.00  0.00    -0.336 OA
ATOM      6  N   UNL     1       0.436  -0.628  -0.037  0.00  0.00    -0.190 NA
ATOM      7  N   UNL     1       1.410  -1.120   1.973  0.00  0.00    -0.056 NA
ATOM     15  C   UNL     1      -0.464  -1.055   0.813  0.00  0.00    +0.245 A 
ATOM     18  C   UNL     1       1.569  -0.685   0.720  0.00  0.00    +0.202 A 
BRANCH  18  19
ATOM      1  F   UNL     1       6.526   0.802  -1.323  0.00  0.00    -0.205 F 
ATOM     19  C   UNL     1       2.847  -0.302   0.193  0.00  0.00    +0.023 A 
ATOM     20  C   UNL     1       2.953   0.144  -1.124  0.00  0.00    +0.014 A 
ATOM     21  C   UNL     1       3.984  -0.374   0.999  0.00  0.00    +0.014 A 
ATOM     22  C   UNL     1       4.196   0.517  -1.637  0.00  0.00    +0.039 A 
ATOM     23  C   UNL     1       5.226  -0.001   0.486  0.00  0.00    +0.039 A 
ATOM     24  C   UNL     1       5.332   0.444  -0.832  0.00  0.00    +0.123 A 
ENDBRANCH  18  19
ENDBRANCH   9  15
BRANCH  12   3
ATOM      3  O   UNL     1      -4.167  -3.385  -1.247  0.00  0.00    -0.390 OA
ATOM     25  H   UNL     1      -3.759  -4.268  -1.265  0.00  0.00    +0.210 HD
ENDBRANCH  12   3
TORSDOF 4
