REMARK  Name = 75368610
REMARK  6 active torsions:
REMARK  status: ('A' for Active; 'I' for Inactive)
REMARK    1  A    between atoms: S_1  and  C_25
REMARK    2  A    between atoms: S_1  and  C_29
REMARK    3  A    between atoms: N_7  and  C_15
REMARK    4  A    between atoms: N_8  and  C_16
REMARK    5  A    between atoms: C_15  and  C_17
REMARK    6  A    between atoms: C_16  and  C_18
REMARK                            x       y       z     vdW  Elec       q    Type
REMARK                         _______ _______ _______ _____ _____    ______ ____
ROOT
ATOM      3  O   UNL     1       3.670   2.862  -0.581  0.00  0.00    -0.252 OA
ATOM      6  N   UNL     1       1.443   2.147  -0.370  0.00  0.00    -0.278 N 
ATOM      7  N   UNL     1      -1.058   1.664   0.824  0.00  0.00    -0.295 NA
ATOM      8  N   UNL     1       2.903   0.788  -1.402  0.00  0.00    -0.279 N 
ATOM      9  C   UNL     1       0.636   1.044  -0.850  0.00  0.00    +0.109 C 
ATOM     10  C   UNL     1      -0.287   0.538   0.258  0.00  0.00    +0.109 C 
ATOM     11  C   UNL     1       1.666   0.028  -1.341  0.00  0.00    +0.133 C 
ATOM     12  C   UNL     1       0.803   3.238   0.335  0.00  0.00    +0.125 C 
ATOM     13  C   UNL     1      -0.156   2.686   1.393  0.00  0.00    +0.104 C 
ATOM     14  C   UNL     1       2.783   2.039  -0.765  0.00  0.00    +0.305 C 
ENDROOT
BRANCH   7  15
ATOM     15  C   UNL     1      -1.988   1.181   1.844  0.00  0.00    +0.119 C 
BRANCH  15  17
ATOM     17  C   UNL     1      -3.198   0.531   1.238  0.00  0.00    -0.033 A 
ATOM     19  C   UNL     1      -4.199   1.317   0.667  0.00  0.00    +0.007 A 
ATOM     20  C   UNL     1      -3.321  -0.858   1.247  0.00  0.00    +0.007 A 
ATOM     23  C   UNL     1      -5.324   0.713   0.104  0.00  0.00    +0.027 A 
ATOM     24  C   UNL     1      -4.446  -1.462   0.684  0.00  0.00    +0.027 A 
ATOM     25  C   UNL     1      -5.447  -0.677   0.113  0.00  0.00    +0.088 A 
BRANCH  25   1
ATOM      1  S   UNL     1      -6.852  -1.433  -0.595  0.00  0.00    -0.006 S 
ATOM      4  O   UNL     1      -7.038  -2.745   0.009  0.00  0.00    -0.170 OA
ATOM      5  O   UNL     1      -7.941  -0.466  -0.572  0.00  0.00    -0.170 OA
ATOM     29  C   UNL     1      -6.400  -1.705  -2.294  0.00  0.00    +0.200 C 
ENDBRANCH  25   1
ENDBRANCH  15  17
ENDBRANCH   7  15
BRANCH   8  16
ATOM     16  C   UNL     1       4.125   0.221  -1.929  0.00  0.00    +0.144 C 
BRANCH  16  18
ATOM      2  F   UNL     1       6.755  -3.009   1.860  0.00  0.00    -0.205 F 
ATOM     18  C   UNL     1       4.827  -0.640  -0.918  0.00  0.00    -0.030 A 
ATOM     21  C   UNL     1       5.768  -0.078  -0.056  0.00  0.00    +0.008 A 
ATOM     22  C   UNL     1       4.537  -2.003  -0.842  0.00  0.00    +0.008 A 
ATOM     26  C   UNL     1       6.419  -0.878   0.883  0.00  0.00    +0.038 A 
ATOM     27  C   UNL     1       5.189  -2.803   0.096  0.00  0.00    +0.038 A 
ATOM     28  C   UNL     1       6.130  -2.240   0.959  0.00  0.00    +0.123 A 
ENDBRANCH  16  18
ENDBRANCH   8  16
TORSDOF 5
