REMARK  Name = 51137021
REMARK  4 active torsions:
REMARK  status: ('A' for Active; 'I' for Inactive)
REMARK    1  A    between atoms: O_3  and  C_18
REMARK    2  A    between atoms: O_3  and  C_26
REMARK    3  A    between atoms: N_7  and  C_20
REMARK    4  A    between atoms: C_8  and  C_12
REMARK                            x       y       z     vdW  Elec       q    Type
REMARK                         _______ _______ _______ _____ _____    ______ ____
ROOT
ATOM      2  O   UNL     1       2.536  -0.990   1.760  0.00  0.00    -0.252 OA
ATOM      4  N   UNL     1       1.091  -1.620   0.091  0.00  0.00    -0.285 N 
ATOM      7  N   UNL     1       3.074  -0.506  -0.458  0.00  0.00    -0.269 N 
ATOM      8  C   UNL     1      -1.153  -2.406   0.167  0.00  0.00    +0.074 C 
ATOM      9  C   UNL     1      -0.574  -2.651  -1.234  0.00  0.00    +0.032 C 
ATOM     10  C   UNL     1       0.117  -2.209   1.004  0.00  0.00    +0.120 C 
ATOM     11  C   UNL     1       0.646  -1.740  -1.295  0.00  0.00    +0.110 C 
ATOM     13  C   UNL     1       2.272  -1.029   0.557  0.00  0.00    +0.306 C 
ATOM     28  H   UNL     1       2.735  -0.576  -1.413  0.00  0.00    +0.156 HD
ENDROOT
BRANCH   8  12
ATOM      5  N   UNL     1      -3.482  -1.482  -0.070  0.00  0.00    -0.341 N 
ATOM      6  N   UNL     1      -1.894   0.008   0.377  0.00  0.00    -0.232 NA
ATOM     12  C   UNL     1      -2.153  -1.263   0.166  0.00  0.00    +0.113 A 
ATOM     14  C   UNL     1      -4.123  -0.271  -0.007  0.00  0.00    +0.070 A 
ATOM     15  C   UNL     1      -3.110   0.642   0.273  0.00  0.00    +0.089 A 
ATOM     16  C   UNL     1      -5.460   0.092  -0.166  0.00  0.00    +0.073 A 
ATOM     17  C   UNL     1      -3.433   2.003   0.406  0.00  0.00    +0.033 A 
ATOM     18  C   UNL     1      -5.764   1.451  -0.031  0.00  0.00    +0.122 A 
ATOM     19  C   UNL     1      -4.770   2.391   0.250  0.00  0.00    +0.048 A 
ATOM     27  H   UNL     1      -3.916  -2.375  -0.259  0.00  0.00    +0.167 HD
BRANCH  18   3
ATOM      3  O   UNL     1      -7.056   1.863  -0.176  0.00  0.00    -0.495 OA
ATOM     26  C   UNL     1      -8.027   0.859  -0.462  0.00  0.00    +0.277 C 
ENDBRANCH  18   3
ENDBRANCH   8  12
BRANCH   7  20
ATOM      1  F   UNL     1       7.959   2.068   0.050  0.00  0.00    -0.205 F 
ATOM     20  C   UNL     1       4.322   0.151  -0.329  0.00  0.00    +0.035 A 
ATOM     21  C   UNL     1       4.977   0.634  -1.461  0.00  0.00    +0.026 A 
ATOM     22  C   UNL     1       4.896   0.315   0.932  0.00  0.00    +0.026 A 
ATOM     23  C   UNL     1       6.206   1.281  -1.333  0.00  0.00    +0.040 A 
ATOM     24  C   UNL     1       6.125   0.963   1.060  0.00  0.00    +0.040 A 
ATOM     25  C   UNL     1       6.780   1.446  -0.073  0.00  0.00    +0.124 A 
ENDBRANCH   7  20
TORSDOF 3
