REMARK  Name = 11886737
REMARK  6 active torsions:
REMARK  status: ('A' for Active; 'I' for Inactive)
REMARK    1  A    between atoms: O_4  and  C_30
REMARK    2  A    between atoms: O_4  and  C_31
REMARK    3  A    between atoms: N_5  and  C_12
REMARK    4  A    between atoms: N_6  and  C_13
REMARK    5  A    between atoms: N_9  and  C_20
REMARK    6  A    between atoms: C_18  and  C_19
REMARK                            x       y       z     vdW  Elec       q    Type
REMARK                         _______ _______ _______ _____ _____    ______ ____
ROOT
ATOM      3  O   UNL     1      -1.936  -2.053   1.176  0.00  0.00    -0.252 OA
ATOM      6  N   UNL     1      -0.364  -2.614  -0.425  0.00  0.00    -0.292 N 
ATOM      9  N   UNL     1      -2.361  -1.706  -1.107  0.00  0.00    -0.269 N 
ATOM     17  C   UNL     1      -1.602  -2.112  -0.005  0.00  0.00    +0.304 C 
ATOM     37  H   UNL     1      -0.135  -2.566  -1.413  0.00  0.00    +0.151 HD
ATOM     38  H   UNL     1      -1.934  -1.825  -2.022  0.00  0.00    +0.156 HD
ENDROOT
BRANCH   6  13
ATOM      1  O   UNL     1       2.262  -2.323   2.099  0.00  0.00    -0.370 OA
ATOM      2  O   UNL     1       2.583  -3.469  -0.812  0.00  0.00    -0.370 OA
ATOM     10  C   UNL     1       2.706  -2.155  -0.237  0.00  0.00    +0.175 C 
ATOM     11  C   UNL     1       1.642  -2.035   0.836  0.00  0.00    +0.171 C 
ATOM     12  C   UNL     1       4.021  -2.039   0.509  0.00  0.00    +0.166 C 
ATOM     13  C   UNL     1       0.637  -3.110   0.489  0.00  0.00    +0.131 C 
ATOM     14  C   UNL     1       3.667  -2.537   1.906  0.00  0.00    +0.190 C 
ATOM     15  C   UNL     1       1.506  -4.165  -0.169  0.00  0.00    +0.185 C 
BRANCH  12   5
ATOM      5  N   UNL     1       4.581  -0.686   0.455  0.00  0.00    -0.243 N 
ATOM      7  N   UNL     1       3.876   0.357   0.912  0.00  0.00    -0.065 NA
ATOM      8  N   UNL     1       4.626   1.439   0.736  0.00  0.00    -0.129 NA
ATOM     16  C   UNL     1       5.794  -0.313  -0.024  0.00  0.00    +0.139 A 
ATOM     18  C   UNL     1       5.804   1.046   0.164  0.00  0.00    +0.113 A 
BRANCH  18  19
ATOM     19  C   UNL     1       6.874   1.926  -0.181  0.00  0.00    +0.004 A 
ATOM     21  C   UNL     1       6.764   3.300   0.061  0.00  0.00    +0.010 A 
ATOM     22  C   UNL     1       8.041   1.423  -0.765  0.00  0.00    +0.010 A 
ATOM     25  C   UNL     1       7.809   4.159  -0.276  0.00  0.00    +0.001 A 
ATOM     26  C   UNL     1       9.087   2.283  -1.102  0.00  0.00    +0.001 A 
ATOM     27  C   UNL     1       8.971   3.651  -0.858  0.00  0.00    +0.000 A 
ENDBRANCH  18  19
ENDBRANCH  12   5
ENDBRANCH   6  13
BRANCH   9  20
ATOM     20  C   UNL     1      -3.660  -1.147  -1.107  0.00  0.00    +0.035 A 
ATOM     23  C   UNL     1      -4.252  -0.807  -2.313  0.00  0.00    +0.027 A 
ATOM     24  C   UNL     1      -4.314  -0.950   0.098  0.00  0.00    +0.027 A 
ATOM     28  C   UNL     1      -5.533  -0.255  -2.312  0.00  0.00    +0.048 A 
ATOM     29  C   UNL     1      -5.595  -0.398   0.099  0.00  0.00    +0.048 A 
ATOM     30  C   UNL     1      -6.204  -0.050  -1.107  0.00  0.00    +0.129 A 
BRANCH  30   4
ATOM      4  O   UNL     1      -7.455   0.487  -1.107  0.00  0.00    -0.456 OA
BRANCH   4  31
ATOM     31  C   UNL     1      -7.727   1.485  -0.186  0.00  0.00    +0.128 A 
ATOM     32  C   UNL     1      -8.910   1.438   0.528  0.00  0.00    +0.046 A 
ATOM     33  C   UNL     1      -6.808   2.502  -0.005  0.00  0.00    +0.046 A 
ATOM     34  C   UNL     1      -9.184   2.443   1.455  0.00  0.00    +0.004 A 
ATOM     35  C   UNL     1      -7.081   3.508   0.923  0.00  0.00    +0.004 A 
ATOM     36  C   UNL     1      -8.269   3.478   1.653  0.00  0.00    +0.000 A 
ENDBRANCH   4  31
ENDBRANCH  30   4
ENDBRANCH   9  20
TORSDOF 6
