REMARK  Name = 40780906
REMARK  13 active torsions:
REMARK  status: ('A' for Active; 'I' for Inactive)
REMARK    1  A    between atoms: O_4  and  C_24
REMARK    2  A    between atoms: N_6  and  C_13
REMARK    3  A    between atoms: N_7  and  C_14
REMARK    4  A    between atoms: N_10  and  C_33
REMARK    5  A    between atoms: N_10  and  C_34
REMARK    6  A    between atoms: N_10  and  C_35
REMARK    7  A    between atoms: C_17  and  C_18
REMARK    8  A    between atoms: C_18  and  C_19
REMARK    9  A    between atoms: C_19  and  C_21
REMARK   10  A    between atoms: C_19  and  C_22
REMARK   11  A    between atoms: C_19  and  C_23
REMARK   12  A    between atoms: C_21  and  C_24
REMARK   13  A    between atoms: C_25  and  C_28
REMARK                            x       y       z     vdW  Elec       q    Type
REMARK                         _______ _______ _______ _____ _____    ______ ____
ROOT
ATOM      1  O   UNL     1      -0.239   0.652   2.384  0.00  0.00    -0.370 OA
ATOM      2  O   UNL     1      -1.917   3.139   1.527  0.00  0.00    -0.370 OA
ATOM     11  C   UNL     1      -1.937   1.756   1.137  0.00  0.00    +0.171 C 
ATOM     12  C   UNL     1      -0.500   1.272   1.114  0.00  0.00    +0.171 C 
ATOM     13  C   UNL     1      -2.591   0.917   2.211  0.00  0.00    +0.130 C 
ATOM     14  C   UNL     1       0.313   2.537   0.971  0.00  0.00    +0.130 C 
ATOM     15  C   UNL     1      -1.441   0.661   3.169  0.00  0.00    +0.185 C 
ATOM     16  C   UNL     1      -0.555   3.571   1.665  0.00  0.00    +0.185 C 
ENDROOT
BRANCH  14   7
ATOM      7  N   UNL     1       0.468   2.871  -0.428  0.00  0.00    -0.306 N 
ATOM      8  N   UNL     1       2.313   1.479  -0.655  0.00  0.00    -0.214 NA
ATOM      9  N   UNL     1       1.473   2.756  -2.518  0.00  0.00    -0.223 NA
ATOM     20  C   UNL     1       1.462   2.347  -1.235  0.00  0.00    +0.216 A 
ATOM     25  C   UNL     1       3.267   0.985  -1.471  0.00  0.00    +0.076 A 
ATOM     26  C   UNL     1       2.453   2.223  -3.277  0.00  0.00    +0.116 A 
ATOM     27  C   UNL     1       3.387   1.324  -2.804  0.00  0.00    +0.048 A 
ATOM     37  H   UNL     1      -0.208   3.482  -0.872  0.00  0.00    +0.149 HD
BRANCH  25  28
ATOM     28  C   UNL     1       4.181   0.055  -0.853  0.00  0.00    +0.001 A 
ATOM     29  C   UNL     1       5.547   0.336  -0.821  0.00  0.00    +0.012 A 
ATOM     30  C   UNL     1       3.699  -1.126  -0.288  0.00  0.00    +0.012 A 
ATOM     31  C   UNL     1       6.430  -0.563  -0.224  0.00  0.00    +0.024 A 
ATOM     32  C   UNL     1       4.582  -2.025   0.310  0.00  0.00    +0.024 A 
ATOM     33  C   UNL     1       5.948  -1.744   0.342  0.00  0.00    +0.029 A 
BRANCH  33  10
ATOM     10  N   UNL     1       6.840  -2.653   0.946  0.00  0.00    -0.336 N 
ATOM     34  C   UNL     1       8.262  -2.371   0.984  0.00  0.00    +0.129 C 
ATOM     35  C   UNL     1       6.348  -3.878   1.543  0.00  0.00    +0.129 C 
ENDBRANCH  33  10
ENDBRANCH  25  28
ENDBRANCH  14   7
BRANCH  13   6
ATOM      3  O   UNL     1      -5.276   0.415   1.307  0.00  0.00    -0.276 OA
ATOM      6  N   UNL     1      -3.104  -0.318   1.669  0.00  0.00    -0.308 N 
ATOM     17  C   UNL     1      -4.418  -0.465   1.258  0.00  0.00    +0.214 C 
ATOM     36  H   UNL     1      -2.455  -1.089   1.538  0.00  0.00    +0.149 HD
BRANCH  17  18
ATOM     18  C   UNL     1      -4.724  -1.853   0.718  0.00  0.00    +0.102 C 
BRANCH  18  19
ATOM     19  C   UNL     1      -4.575  -2.000  -0.818  0.00  0.00    -0.017 C 
ATOM     22  C   UNL     1      -3.129  -1.677  -1.252  0.00  0.00    +0.012 C 
ATOM     23  C   UNL     1      -4.848  -3.474  -1.182  0.00  0.00    +0.012 C 
BRANCH  19  21
ATOM     21  C   UNL     1      -5.528  -1.071  -1.606  0.00  0.00    +0.127 C 
BRANCH  21  24
ATOM      5  O   UNL     1      -7.580  -0.704  -0.374  0.00  0.00    -0.251 OA
ATOM     24  C   UNL     1      -6.997  -1.258  -1.298  0.00  0.00    +0.305 C 
BRANCH  24   4
ATOM      4  O   UNL     1      -7.610  -2.116  -2.150  0.00  0.00    -0.481 OA
ATOM     38  H   UNL     1      -8.560  -2.232  -1.934  0.00  0.00    +0.295 HD
ENDBRANCH  24   4
ENDBRANCH  21  24
ENDBRANCH  19  21
ENDBRANCH  18  19
ENDBRANCH  17  18
ENDBRANCH  13   6
TORSDOF 9
