REMARK  Name = 75536914
REMARK  5 active torsions:
REMARK  status: ('A' for Active; 'I' for Inactive)
REMARK    1  A    between atoms: O_2  and  C_6
REMARK    2  A    between atoms: O_2  and  C_18
REMARK    3  A    between atoms: N_3  and  C_7
REMARK    4  A    between atoms: N_4  and  C_17
REMARK    5  A    between atoms: C_7  and  C_9
REMARK                            x       y       z     vdW  Elec       q    Type
REMARK                         _______ _______ _______ _____ _____    ______ ____
ROOT
ATOM      1  O   UNL     1       3.796  -1.445  -1.123  0.00  0.00    -0.375 OA
ATOM      3  N   UNL     1       1.525  -1.751   0.619  0.00  0.00    -0.292 NA
ATOM      5  C   UNL     1       1.911  -0.384   0.965  0.00  0.00    +0.131 C 
ATOM      6  C   UNL     1       2.376   0.387  -0.278  0.00  0.00    +0.213 C 
ATOM      8  C   UNL     1       2.634  -2.712   0.611  0.00  0.00    +0.113 C 
ATOM     10  C   UNL     1       3.720  -0.049  -0.857  0.00  0.00    +0.205 C 
ATOM     11  C   UNL     1       3.968  -2.211   0.064  0.00  0.00    +0.175 C 
ENDROOT
BRANCH   6   2
ATOM      2  O   UNL     1       2.460   1.770   0.068  0.00  0.00    -0.485 OA
BRANCH   2  18
ATOM     18  C   UNL     1       1.312   2.502  -0.061  0.00  0.00    +0.121 A 
ATOM     21  C   UNL     1       0.692   2.615  -1.305  0.00  0.00    +0.045 A 
ATOM     22  C   UNL     1       0.761   3.137   1.053  0.00  0.00    +0.045 A 
ATOM     23  C   UNL     1      -0.478   3.362  -1.437  0.00  0.00    +0.004 A 
ATOM     24  C   UNL     1      -0.409   3.884   0.921  0.00  0.00    +0.004 A 
ATOM     25  C   UNL     1      -1.029   3.997  -0.323  0.00  0.00    +0.000 A 
ENDBRANCH   2  18
ENDBRANCH   6   2
BRANCH   3   7
ATOM      7  C   UNL     1       0.447  -2.238   1.480  0.00  0.00    +0.122 C 
BRANCH   7   9
ATOM      4  N   UNL     1      -2.745  -0.410   1.375  0.00  0.00    -0.349 N 
ATOM      9  C   UNL     1      -0.867  -1.575   1.163  0.00  0.00    -0.008 A 
ATOM     12  C   UNL     1      -1.541  -1.586  -0.090  0.00  0.00    +0.004 A 
ATOM     13  C   UNL     1      -2.716  -0.848   0.070  0.00  0.00    +0.049 A 
ATOM     14  C   UNL     1      -1.632  -0.844   2.043  0.00  0.00    +0.091 A 
ATOM     15  C   UNL     1      -1.263  -2.155  -1.349  0.00  0.00    +0.010 A 
ATOM     16  C   UNL     1      -3.630  -0.650  -0.971  0.00  0.00    +0.026 A 
ATOM     17  C   UNL     1      -3.792   0.393   1.969  0.00  0.00    +0.149 C 
ATOM     19  C   UNL     1      -2.168  -1.965  -2.399  0.00  0.00    +0.001 A 
ATOM     20  C   UNL     1      -3.334  -1.224  -2.210  0.00  0.00    +0.002 A 
ENDBRANCH   7   9
ENDBRANCH   3   7
TORSDOF 4
