REMARK  Name = 51137765
REMARK  7 active torsions:
REMARK  status: ('A' for Active; 'I' for Inactive)
REMARK    1  A    between atoms: O_4  and  C_20
REMARK    2  A    between atoms: O_4  and  C_28
REMARK    3  A    between atoms: O_5  and  C_22
REMARK    4  A    between atoms: O_5  and  C_29
REMARK    5  A    between atoms: C_9  and  C_13
REMARK    6  A    between atoms: C_14  and  C_15
REMARK    7  A    between atoms: C_16  and  C_19
REMARK                            x       y       z     vdW  Elec       q    Type
REMARK                         _______ _______ _______ _____ _____    ______ ____
ROOT
ATOM      3  O   UNL     1       1.805   1.485   2.753  0.00  0.00    -0.270 OA
ATOM      6  N   UNL     1       0.895   2.271   0.766  0.00  0.00    -0.297 N 
ATOM      9  C   UNL     1      -0.601   2.972  -0.946  0.00  0.00    +0.095 C 
ATOM     10  C   UNL     1      -0.660   3.962   0.228  0.00  0.00    +0.033 C 
ATOM     11  C   UNL     1       0.730   2.252  -0.688  0.00  0.00    +0.121 C 
ATOM     12  C   UNL     1      -0.045   3.190   1.388  0.00  0.00    +0.109 C 
ATOM     14  C   UNL     1       1.751   1.488   1.525  0.00  0.00    +0.247 C 
ENDROOT
BRANCH  14  15
ATOM     15  C   UNL     1       2.656   0.578   0.806  0.00  0.00    +0.041 A 
ATOM     17  C   UNL     1       2.248  -0.723   0.512  0.00  0.00    +0.062 A 
ATOM     18  C   UNL     1       3.923   1.016   0.419  0.00  0.00    +0.017 A 
ATOM     20  C   UNL     1       3.106  -1.586  -0.169  0.00  0.00    +0.162 A 
ATOM     21  C   UNL     1       4.781   0.153  -0.263  0.00  0.00    +0.050 A 
ATOM     22  C   UNL     1       4.373  -1.148  -0.557  0.00  0.00    +0.162 A 
BRANCH  20   4
ATOM      4  O   UNL     1       2.696  -2.854  -0.451  0.00  0.00    -0.491 OA
ATOM     28  C   UNL     1       1.388  -3.223  -0.020  0.00  0.00    +0.277 C 
ENDBRANCH  20   4
BRANCH  22   5
ATOM      5  O   UNL     1       5.221  -1.981  -1.222  0.00  0.00    -0.491 OA
ATOM     29  C   UNL     1       6.497  -1.455  -1.582  0.00  0.00    +0.277 C 
ENDBRANCH  22   5
ENDBRANCH  14  15
BRANCH   9  13
ATOM      2  O   UNL     1      -1.804   0.925  -0.323  0.00  0.00    -0.420 OA
ATOM      7  N   UNL     1      -2.979   2.307  -1.633  0.00  0.00    -0.112 NA
ATOM      8  N   UNL     1      -3.767   1.204  -1.360  0.00  0.00    -0.107 NA
ATOM     13  C   UNL     1      -1.843   2.100  -1.008  0.00  0.00    +0.222 A 
ATOM     16  C   UNL     1      -3.041   0.424  -0.593  0.00  0.00    +0.251 A 
BRANCH  16  19
ATOM      1  F   UNL     1      -5.514  -0.838  -0.982  0.00  0.00    -0.205 F 
ATOM     19  C   UNL     1      -3.345  -0.849  -0.007  0.00  0.00    +0.074 A 
ATOM     23  C   UNL     1      -4.588  -1.443  -0.224  0.00  0.00    +0.136 A 
ATOM     24  C   UNL     1      -2.393  -1.492   0.784  0.00  0.00    +0.016 A 
ATOM     25  C   UNL     1      -4.879  -2.681   0.349  0.00  0.00    +0.039 A 
ATOM     26  C   UNL     1      -2.684  -2.730   1.358  0.00  0.00    +0.001 A 
ATOM     27  C   UNL     1      -3.927  -3.324   1.140  0.00  0.00    +0.003 A 
ENDBRANCH  16  19
ENDBRANCH   9  13
TORSDOF 5
