REMARK  Name = 38029183
REMARK  12 active torsions:
REMARK  status: ('A' for Active; 'I' for Inactive)
REMARK    1  A    between atoms: N_4  and  C_15
REMARK    2  A    between atoms: N_5  and  C_22
REMARK    3  A    between atoms: N_5  and  C_23
REMARK    4  A    between atoms: N_6  and  C_25
REMARK    5  A    between atoms: C_8  and  C_12
REMARK    6  A    between atoms: C_9  and  C_15
REMARK    7  A    between atoms: C_11  and  C_16
REMARK    8  A    between atoms: C_12  and  C_17
REMARK    9  A    between atoms: C_12  and  C_18
REMARK   10  A    between atoms: C_13  and  C_19
REMARK   11  A    between atoms: C_16  and  C_20
REMARK   12  A    between atoms: C_22  and  C_24
REMARK                            x       y       z     vdW  Elec       q    Type
REMARK                         _______ _______ _______ _____ _____    ______ ____
ROOT
ATOM      8  C   UNL     1      -0.378   2.699  -0.975  0.00  0.00    +0.000 C 
ATOM      9  C   UNL     1       0.503   3.836  -0.400  0.00  0.00    +0.032 C 
ATOM     10  C   UNL     1      -1.781   2.739  -0.349  0.00  0.00    +0.012 C 
ATOM     11  C   UNL     1      -1.739   2.595   1.184  0.00  0.00    +0.023 C 
ATOM     13  C   UNL     1      -0.695   3.500   1.806  0.00  0.00    -0.073 C 
ATOM     14  C   UNL     1       0.292   4.056   1.080  0.00  0.00    -0.022 C 
ATOM     19  C   UNL     1      -0.836   3.788   3.274  0.00  0.00    +0.039 C 
ENDROOT
BRANCH   8  12
ATOM     12  C   UNL     1      -0.489   2.782  -2.501  0.00  0.00    -0.013 C 
ATOM     17  C   UNL     1      -1.547   3.804  -2.903  0.00  0.00    +0.007 C 
ATOM     18  C   UNL     1      -0.811   1.411  -3.086  0.00  0.00    +0.007 C 
ENDBRANCH   8  12
BRANCH   9  15
ATOM     15  C   UNL     1       1.989   3.575  -0.670  0.00  0.00    +0.113 C 
BRANCH  15   4
ATOM      3  O   UNL     1       3.097   1.191  -1.807  0.00  0.00    -0.253 OA
ATOM      4  N   UNL     1       2.438   2.419   0.040  0.00  0.00    -0.299 N 
ATOM      6  N   UNL     1       3.326   0.311   0.357  0.00  0.00    -0.269 N 
ATOM     21  C   UNL     1       2.974   1.279  -0.588  0.00  0.00    +0.304 C 
ATOM     35  H   UNL     1       2.434   2.442   1.055  0.00  0.00    +0.150 HD
ATOM     36  H   UNL     1       3.156   0.543   1.333  0.00  0.00    +0.156 HD
BRANCH   6  25
ATOM      1  F   UNL     1       5.017  -3.870   2.002  0.00  0.00    -0.205 F 
ATOM     25  C   UNL     1       3.893  -0.964   0.125  0.00  0.00    +0.037 A 
ATOM     28  C   UNL     1       4.181  -1.805   1.199  0.00  0.00    +0.061 A 
ATOM     29  C   UNL     1       4.164  -1.379  -1.179  0.00  0.00    +0.023 A 
ATOM     32  C   UNL     1       4.741  -3.062   0.971  0.00  0.00    +0.125 A 
ATOM     33  C   UNL     1       4.724  -2.636  -1.407  0.00  0.00    +0.005 A 
ATOM     34  C   UNL     1       5.012  -3.478  -0.333  0.00  0.00    +0.038 A 
ENDBRANCH   6  25
ENDBRANCH  15   4
ENDBRANCH   9  15
BRANCH  11  16
ATOM     16  C   UNL     1      -1.516   1.136   1.596  0.00  0.00    +0.103 C 
BRANCH  16  20
ATOM      2  O   UNL     1      -3.799   0.781   0.957  0.00  0.00    -0.276 OA
ATOM      5  N   UNL     1      -2.636  -1.060   1.757  0.00  0.00    -0.300 N 
ATOM     20  C   UNL     1      -2.759   0.287   1.402  0.00  0.00    +0.216 C 
ATOM     23  C   UNL     1      -1.397  -1.621   2.281  0.00  0.00    +0.132 C 
BRANCH   5  22
ATOM     22  C   UNL     1      -3.741  -2.007   1.630  0.00  0.00    +0.144 C 
BRANCH  22  24
ATOM      7  N   UNL     1      -3.268  -4.717  -0.966  0.00  0.00    -0.263 NA
ATOM     24  C   UNL     1      -3.728  -2.711   0.304  0.00  0.00    -0.012 A 
ATOM     26  C   UNL     1      -4.138  -2.062  -0.856  0.00  0.00    +0.008 A 
ATOM     27  C   UNL     1      -3.306  -4.027   0.196  0.00  0.00    +0.115 A 
ATOM     30  C   UNL     1      -4.113  -2.739  -2.070  0.00  0.00    +0.020 A 
ATOM     31  C   UNL     1      -3.674  -4.053  -2.071  0.00  0.00    +0.111 A 
ENDBRANCH  22  24
ENDBRANCH   5  22
ENDBRANCH  16  20
ENDBRANCH  11  16
TORSDOF 8
