REMARK  Name = 51137781
REMARK  6 active torsions:
REMARK  status: ('A' for Active; 'I' for Inactive)
REMARK    1  A    between atoms: N_7  and  C_20
REMARK    2  A    between atoms: N_7  and  C_26
REMARK    3  A    between atoms: N_7  and  C_27
REMARK    4  A    between atoms: C_8  and  C_12
REMARK    5  A    between atoms: C_13  and  C_14
REMARK    6  A    between atoms: C_15  and  C_16
REMARK                            x       y       z     vdW  Elec       q    Type
REMARK                         _______ _______ _______ _____ _____    ______ ____
ROOT
ATOM      1  O   UNL     1      -0.099   1.570  -0.250  0.00  0.00    -0.420 OA
ATOM      4  N   UNL     1      -0.175   3.685  -0.974  0.00  0.00    -0.112 NA
ATOM      5  N   UNL     1      -1.467   3.194  -0.953  0.00  0.00    -0.107 NA
ATOM     12  C   UNL     1       0.589   2.703  -0.555  0.00  0.00    +0.222 A 
ATOM     15  C   UNL     1      -1.375   1.957  -0.525  0.00  0.00    +0.248 A 
ENDROOT
BRANCH  12   8
ATOM      2  O   UNL     1       2.926  -0.934   2.469  0.00  0.00    -0.268 OA
ATOM      3  N   UNL     1       2.788   0.773   0.900  0.00  0.00    -0.296 N 
ATOM      8  C   UNL     1       2.096   2.662  -0.372  0.00  0.00    +0.095 C 
ATOM      9  C   UNL     1       2.508   3.112   1.039  0.00  0.00    +0.033 C 
ATOM     10  C   UNL     1       2.762   1.282  -0.472  0.00  0.00    +0.121 C 
ATOM     11  C   UNL     1       2.481   1.827   1.855  0.00  0.00    +0.109 C 
ATOM     13  C   UNL     1       2.985  -0.537   1.306  0.00  0.00    +0.265 C 
BRANCH  13  14
ATOM      6  N   UNL     1       4.387  -1.311  -0.469  0.00  0.00    -0.250 NA
ATOM     14  C   UNL     1       3.275  -1.536   0.265  0.00  0.00    +0.126 A 
ATOM     17  C   UNL     1       2.433  -2.621   0.086  0.00  0.00    +0.033 A 
ATOM     23  C   UNL     1       2.753  -3.535  -0.913  0.00  0.00    +0.004 A 
ATOM     24  C   UNL     1       4.666  -2.220  -1.430  0.00  0.00    +0.111 A 
ATOM     25  C   UNL     1       3.889  -3.338  -1.689  0.00  0.00    +0.020 A 
ENDBRANCH  13  14
ENDBRANCH  12   8
BRANCH  15  16
ATOM     16  C   UNL     1      -2.391   0.969  -0.305  0.00  0.00    +0.039 A 
ATOM     18  C   UNL     1      -3.728   1.276  -0.559  0.00  0.00    +0.015 A 
ATOM     19  C   UNL     1      -2.043  -0.298   0.162  0.00  0.00    +0.015 A 
ATOM     20  C   UNL     1      -4.368  -0.952   0.122  0.00  0.00    +0.029 A 
ATOM     21  C   UNL     1      -4.717   0.315  -0.345  0.00  0.00    +0.024 A 
ATOM     22  C   UNL     1      -3.031  -1.259   0.375  0.00  0.00    +0.024 A 
BRANCH  20   7
ATOM      7  N   UNL     1      -5.368  -1.923   0.339  0.00  0.00    -0.336 N 
ATOM     26  C   UNL     1      -5.016  -3.245   0.816  0.00  0.00    +0.129 C 
ATOM     27  C   UNL     1      -6.760  -1.614   0.079  0.00  0.00    +0.129 C 
ENDBRANCH  20   7
ENDBRANCH  15  16
TORSDOF 4
