REMARK  Name = 11912182
REMARK  8 active torsions:
REMARK  status: ('A' for Active; 'I' for Inactive)
REMARK    1  A    between atoms: O_4  and  C_30
REMARK    2  A    between atoms: O_4  and  C_34
REMARK    3  A    between atoms: O_5  and  C_33
REMARK    4  A    between atoms: O_5  and  C_35
REMARK    5  A    between atoms: N_6  and  C_13
REMARK    6  A    between atoms: N_7  and  C_14
REMARK    7  A    between atoms: N_8  and  C_20
REMARK    8  A    between atoms: C_19  and  C_23
REMARK                            x       y       z     vdW  Elec       q    Type
REMARK                         _______ _______ _______ _____ _____    ______ ____
ROOT
ATOM      1  O   UNL     1       0.427  -3.647   1.136  0.00  0.00    -0.370 OA
ATOM      2  O   UNL     1      -0.725  -0.960   2.226  0.00  0.00    -0.370 OA
ATOM     11  C   UNL     1      -0.618  -1.522   0.907  0.00  0.00    +0.171 C 
ATOM     12  C   UNL     1       0.701  -2.267   0.842  0.00  0.00    +0.171 C 
ATOM     13  C   UNL     1      -1.660  -2.597   0.709  0.00  0.00    +0.130 C 
ATOM     14  C   UNL     1       1.529  -1.648   1.945  0.00  0.00    +0.131 C 
ATOM     15  C   UNL     1      -0.988  -3.824   1.296  0.00  0.00    +0.185 C 
ATOM     16  C   UNL     1       0.472  -1.254   2.962  0.00  0.00    +0.185 C 
ENDROOT
BRANCH  13   6
ATOM      6  N   UNL     1      -1.910  -2.790  -0.702  0.00  0.00    -0.306 N 
ATOM      9  N   UNL     1      -3.461  -1.063  -0.760  0.00  0.00    -0.214 NA
ATOM     10  N   UNL     1      -2.925  -2.329  -2.740  0.00  0.00    -0.223 NA
ATOM     17  C   UNL     1      -2.804  -2.027  -1.433  0.00  0.00    +0.216 A 
ATOM     19  C   UNL     1      -4.325  -0.339  -1.503  0.00  0.00    +0.076 A 
ATOM     21  C   UNL     1      -3.804  -1.566  -3.421  0.00  0.00    +0.116 A 
ATOM     22  C   UNL     1      -4.539  -0.547  -2.850  0.00  0.00    +0.048 A 
ATOM     36  H   UNL     1      -1.374  -3.482  -1.213  0.00  0.00    +0.149 HD
BRANCH  19  23
ATOM     23  C   UNL     1      -5.030   0.696  -0.786  0.00  0.00    +0.001 A 
ATOM     26  C   UNL     1      -6.423   0.673  -0.722  0.00  0.00    +0.013 A 
ATOM     27  C   UNL     1      -4.320   1.720  -0.159  0.00  0.00    +0.013 A 
ATOM     31  C   UNL     1      -7.107   1.674  -0.031  0.00  0.00    +0.046 A 
ATOM     32  C   UNL     1      -5.003   2.721   0.531  0.00  0.00    +0.046 A 
ATOM     33  C   UNL     1      -6.397   2.698   0.596  0.00  0.00    +0.120 A 
BRANCH  33   5
ATOM      5  O   UNL     1      -7.064   3.673   1.271  0.00  0.00    -0.495 OA
ATOM     35  C   UNL     1      -6.276   4.690   1.889  0.00  0.00    +0.277 C 
ENDBRANCH  33   5
ENDBRANCH  19  23
ENDBRANCH  13   6
BRANCH  14   7
ATOM      3  O   UNL     1       4.229  -1.597   0.990  0.00  0.00    -0.252 OA
ATOM      7  N   UNL     1       2.254  -0.495   1.470  0.00  0.00    -0.292 N 
ATOM      8  N   UNL     1       4.014   0.712   0.621  0.00  0.00    -0.269 N 
ATOM     18  C   UNL     1       3.577  -0.555   1.018  0.00  0.00    +0.304 C 
ATOM     37  H   UNL     1       1.761   0.390   1.399  0.00  0.00    +0.151 HD
ATOM     38  H   UNL     1       3.347   1.473   0.710  0.00  0.00    +0.156 HD
BRANCH   8  20
ATOM     20  C   UNL     1       5.283   1.071   0.108  0.00  0.00    +0.035 A 
ATOM     24  C   UNL     1       5.545   2.397  -0.237  0.00  0.00    +0.027 A 
ATOM     25  C   UNL     1       6.271   0.100  -0.051  0.00  0.00    +0.027 A 
ATOM     28  C   UNL     1       6.796   2.752  -0.742  0.00  0.00    +0.047 A 
ATOM     29  C   UNL     1       7.522   0.455  -0.556  0.00  0.00    +0.047 A 
ATOM     30  C   UNL     1       7.784   1.781  -0.902  0.00  0.00    +0.120 A 
BRANCH  30   4
ATOM      4  O   UNL     1       9.006   2.127  -1.392  0.00  0.00    -0.495 OA
ATOM     34  C   UNL     1       9.970   1.085  -1.530  0.00  0.00    +0.277 C 
ENDBRANCH  30   4
ENDBRANCH   8  20
ENDBRANCH  14   7
TORSDOF 6
