REMARK  Name = 11911795
REMARK  9 active torsions:
REMARK  status: ('A' for Active; 'I' for Inactive)
REMARK    1  A    between atoms: O_3  and  C_14
REMARK    2  A    between atoms: O_3  and  C_18
REMARK    3  A    between atoms: N_5  and  C_13
REMARK    4  A    between atoms: N_8  and  C_22
REMARK    5  A    between atoms: N_9  and  C_28
REMARK    6  A    between atoms: N_9  and  C_34
REMARK    7  A    between atoms: N_9  and  C_35
REMARK    8  A    between atoms: C_19  and  C_23
REMARK    9  A    between atoms: C_31  and  C_36
REMARK                            x       y       z     vdW  Elec       q    Type
REMARK                         _______ _______ _______ _____ _____    ______ ____
ROOT
ATOM      1  O   UNL     1       1.581  -0.414   1.500  0.00  0.00    -0.368 OA
ATOM      2  O   UNL     1      -0.489   1.690   0.663  0.00  0.00    -0.368 OA
ATOM     11  C   UNL     1      -0.338   0.300   0.305  0.00  0.00    +0.173 C 
ATOM     12  C   UNL     1       1.150   0.032   0.204  0.00  0.00    +0.192 C 
ATOM     13  C   UNL     1      -0.792  -0.580   1.445  0.00  0.00    +0.130 C 
ATOM     14  C   UNL     1       1.706   1.395  -0.132  0.00  0.00    +0.235 C 
ATOM     15  C   UNL     1       0.433  -0.606   2.342  0.00  0.00    +0.185 C 
ATOM     16  C   UNL     1       0.804   2.312   0.663  0.00  0.00    +0.207 C 
ENDROOT
BRANCH  13   5
ATOM      5  N   UNL     1      -1.091  -1.912   0.964  0.00  0.00    -0.306 N 
ATOM      6  N   UNL     1      -3.282  -1.324   0.365  0.00  0.00    -0.214 NA
ATOM      7  N   UNL     1      -2.461  -3.563   0.015  0.00  0.00    -0.223 NA
ATOM     17  C   UNL     1      -2.314  -2.277   0.432  0.00  0.00    +0.216 A 
ATOM     19  C   UNL     1      -4.463  -1.715  -0.158  0.00  0.00    +0.076 A 
ATOM     20  C   UNL     1      -3.667  -3.885  -0.498  0.00  0.00    +0.116 A 
ATOM     21  C   UNL     1      -4.715  -2.994  -0.611  0.00  0.00    +0.048 A 
ATOM     37  H   UNL     1      -0.361  -2.615   0.961  0.00  0.00    +0.149 HD
BRANCH  19  23
ATOM     23  C   UNL     1      -5.475  -0.688  -0.221  0.00  0.00    +0.001 A 
ATOM     26  C   UNL     1      -6.826  -1.030  -0.129  0.00  0.00    +0.012 A 
ATOM     27  C   UNL     1      -5.107   0.650  -0.372  0.00  0.00    +0.012 A 
ATOM     28  C   UNL     1      -7.434   1.299  -0.340  0.00  0.00    +0.029 A 
ATOM     29  C   UNL     1      -7.804  -0.037  -0.188  0.00  0.00    +0.024 A 
ATOM     30  C   UNL     1      -6.086   1.643  -0.432  0.00  0.00    +0.024 A 
BRANCH  28   9
ATOM      9  N   UNL     1      -8.422   2.304  -0.399  0.00  0.00    -0.336 N 
ATOM     34  C   UNL     1      -8.187   3.521  -1.149  0.00  0.00    +0.129 C 
ATOM     35  C   UNL     1      -9.681   2.138   0.301  0.00  0.00    +0.129 C 
ENDBRANCH  28   9
ENDBRANCH  19  23
ENDBRANCH  13   5
BRANCH  14   3
ATOM      3  O   UNL     1       3.063   1.551   0.219  0.00  0.00    -0.442 OA
BRANCH   3  18
ATOM      4  O   UNL     1       3.638  -0.101  -1.255  0.00  0.00    -0.226 OA
ATOM      8  N   UNL     1       5.245   1.011   0.034  0.00  0.00    -0.251 N 
ATOM     18  C   UNL     1       3.970   0.731  -0.420  0.00  0.00    +0.405 C 
ATOM     38  H   UNL     1       5.321   1.743   0.736  0.00  0.00    +0.158 HD
BRANCH   8  22
ATOM     22  C   UNL     1       6.461   0.405  -0.358  0.00  0.00    +0.038 A 
ATOM     24  C   UNL     1       7.648   0.830   0.217  0.00  0.00    +0.042 A 
ATOM     25  C   UNL     1       6.441  -0.602  -1.310  0.00  0.00    +0.023 A 
ATOM     31  C   UNL     1       8.847   0.232  -0.171  0.00  0.00    +0.054 A 
ATOM     32  C   UNL     1       7.641  -1.199  -1.698  0.00  0.00    +0.003 A 
ATOM     33  C   UNL     1       8.844  -0.782  -1.128  0.00  0.00    +0.019 A 
BRANCH  31  36
ATOM     10  N   UNL     1      11.082   1.006   0.887  0.00  0.00    -0.191 NA
ATOM     36  C   UNL     1      10.080   0.659   0.413  0.00  0.00    +0.099 C 
ENDBRANCH  31  36
ENDBRANCH   8  22
ENDBRANCH   3  18
ENDBRANCH  14   3
TORSDOF 7
