REMARK  Name = 11913087
REMARK  6 active torsions:
REMARK  status: ('A' for Active; 'I' for Inactive)
REMARK    1  A    between atoms: O_4  and  C_13
REMARK    2  A    between atoms: O_4  and  C_17
REMARK    3  A    between atoms: N_6  and  C_12
REMARK    4  A    between atoms: N_9  and  C_20
REMARK    5  A    between atoms: C_18  and  C_22
REMARK    6  A    between atoms: C_20  and  C_23
REMARK                            x       y       z     vdW  Elec       q    Type
REMARK                         _______ _______ _______ _____ _____    ______ ____
ROOT
ATOM      2  O   UNL     1       1.915   0.430  -1.642  0.00  0.00    -0.368 OA
ATOM      3  O   UNL     1       0.270  -1.953  -0.628  0.00  0.00    -0.368 OA
ATOM     10  C   UNL     1       0.212  -0.546  -0.312  0.00  0.00    +0.173 C 
ATOM     11  C   UNL     1       1.639  -0.037  -0.311  0.00  0.00    +0.192 C 
ATOM     12  C   UNL     1      -0.446   0.211  -1.442  0.00  0.00    +0.130 C 
ATOM     13  C   UNL     1       2.430  -1.280   0.020  0.00  0.00    +0.235 C 
ATOM     14  C   UNL     1       0.704   0.406  -2.414  0.00  0.00    +0.185 C 
ATOM     15  C   UNL     1       1.646  -2.356  -0.695  0.00  0.00    +0.207 C 
ENDROOT
BRANCH  12   6
ATOM      6  N   UNL     1      -0.930   1.492  -0.973  0.00  0.00    -0.306 N 
ATOM      7  N   UNL     1      -2.957   0.576  -0.224  0.00  0.00    -0.214 NA
ATOM      8  N   UNL     1      -2.495   2.929   0.022  0.00  0.00    -0.223 NA
ATOM     16  C   UNL     1      -2.165   1.671  -0.374  0.00  0.00    +0.216 A 
ATOM     18  C   UNL     1      -4.153   0.787   0.364  0.00  0.00    +0.083 A 
ATOM     19  C   UNL     1      -3.705   3.067   0.603  0.00  0.00    +0.116 A 
ATOM     21  C   UNL     1      -4.584   2.023   0.802  0.00  0.00    +0.049 A 
ATOM     28  H   UNL     1      -0.327   2.304  -1.032  0.00  0.00    +0.149 HD
BRANCH  18  22
ATOM      1  S   UNL     1      -4.208  -1.913   0.699  0.00  0.00    -0.095 S 
ATOM     22  C   UNL     1      -4.969  -0.388   0.508  0.00  0.00    +0.038 A 
ATOM     24  C   UNL     1      -6.346  -0.500   0.518  0.00  0.00    +0.017 A 
ATOM     25  C   UNL     1      -6.776  -1.848   0.684  0.00  0.00    +0.008 A 
ATOM     26  C   UNL     1      -5.715  -2.720   0.796  0.00  0.00    +0.046 A 
ENDBRANCH  18  22
ENDBRANCH  12   6
BRANCH  13   4
ATOM      4  O   UNL     1       3.771  -1.225  -0.411  0.00  0.00    -0.442 OA
BRANCH   4  17
ATOM      5  O   UNL     1       4.162   0.554   0.989  0.00  0.00    -0.226 OA
ATOM      9  N   UNL     1       5.842  -0.310  -0.358  0.00  0.00    -0.278 N 
ATOM     17  C   UNL     1       4.562  -0.249   0.152  0.00  0.00    +0.401 C 
ATOM     29  H   UNL     1       6.049  -1.033  -1.041  0.00  0.00    +0.152 HD
BRANCH   9  20
ATOM     20  C   UNL     1       6.906   0.584   0.037  0.00  0.00    +0.134 C 
BRANCH  20  23
ATOM     23  C   UNL     1       7.632  -0.006   1.200  0.00  0.00    -0.016 C 
ATOM     27  C   UNL     1       7.758   0.600   2.386  0.00  0.00    +0.005 C 
ENDBRANCH  20  23
ENDBRANCH   9  20
ENDBRANCH   4  17
ENDBRANCH  13   4
TORSDOF 6
