REMARK  Name = 40780321
REMARK  10 active torsions:
REMARK  status: ('A' for Active; 'I' for Inactive)
REMARK    1  A    between atoms: O_4  and  C_23
REMARK    2  A    between atoms: O_4  and  C_35
REMARK    3  A    between atoms: N_8  and  C_14
REMARK    4  A    between atoms: N_8  and  C_24
REMARK    5  A    between atoms: N_10  and  C_29
REMARK    6  A    between atoms: C_12  and  C_20
REMARK    7  A    between atoms: C_16  and  C_23
REMARK    8  A    between atoms: C_24  and  C_29
REMARK    9  A    between atoms: C_34  and  C_36
REMARK   10  A    between atoms: C_37  and  C_38
REMARK                            x       y       z     vdW  Elec       q    Type
REMARK                         _______ _______ _______ _____ _____    ______ ____
ROOT
ATOM      7  N   UNL     1      -0.656   0.236  -0.368  0.00  0.00    -0.274 NA
ATOM      9  N   UNL     1      -3.960  -1.514  -0.725  0.00  0.00    -0.356 N 
ATOM     11  C   UNL     1      -1.469  -1.019  -0.398  0.00  0.00    +0.106 C 
ATOM     12  C   UNL     1       0.801  -0.044  -0.319  0.00  0.00    +0.090 C 
ATOM     13  C   UNL     1      -1.078  -1.888  -1.606  0.00  0.00    +0.044 C 
ATOM     14  C   UNL     1       0.411  -2.238  -1.605  0.00  0.00    +0.057 C 
ATOM     15  C   UNL     1       1.230  -0.952  -1.499  0.00  0.00    +0.042 C 
ATOM     16  C   UNL     1      -1.139   1.216   0.643  0.00  0.00    +0.172 C 
ATOM     17  C   UNL     1      -2.928  -0.672  -0.417  0.00  0.00    +0.038 A 
ATOM     18  C   UNL     1      -2.595   1.677   0.375  0.00  0.00    +0.068 C 
ATOM     19  C   UNL     1      -3.462   0.544  -0.050  0.00  0.00    -0.016 A 
ATOM     21  C   UNL     1      -4.875   0.453  -0.173  0.00  0.00    +0.003 A 
ATOM     22  C   UNL     1      -5.160  -0.848  -0.599  0.00  0.00    +0.047 A 
ATOM     27  C   UNL     1      -5.944   1.346   0.040  0.00  0.00    +0.010 A 
ATOM     28  C   UNL     1      -6.467  -1.298  -0.823  0.00  0.00    +0.026 A 
ATOM     32  C   UNL     1      -7.255   0.909  -0.182  0.00  0.00    +0.001 A 
ATOM     33  C   UNL     1      -7.510  -0.393  -0.607  0.00  0.00    +0.002 A 
ATOM     40  H   UNL     1      -3.865  -2.480  -1.006  0.00  0.00    +0.166 HD
ENDROOT
BRANCH  12  20
ATOM     20  C   UNL     1       1.678   1.206  -0.358  0.00  0.00    -0.030 A 
ATOM     25  C   UNL     1       2.556   1.474   0.692  0.00  0.00    +0.006 A 
ATOM     26  C   UNL     1       1.601   2.078  -1.444  0.00  0.00    +0.006 A 
ATOM     30  C   UNL     1       3.358   2.615   0.657  0.00  0.00    +0.013 A 
ATOM     31  C   UNL     1       2.403   3.219  -1.479  0.00  0.00    +0.013 A 
ATOM     34  C   UNL     1       3.281   3.488  -0.429  0.00  0.00    +0.055 A 
BRANCH  34  36
ATOM      1  F   UNL     1       4.983   4.747  -1.542  0.00  0.00    -0.166 F 
ATOM      2  F   UNL     1       4.941   4.819   0.631  0.00  0.00    -0.166 F 
ATOM      3  F   UNL     1       3.433   5.873  -0.527  0.00  0.00    -0.166 F 
ATOM     36  C   UNL     1       4.140   4.706  -0.468  0.00  0.00    +0.417 C 
ENDBRANCH  34  36
ENDBRANCH  12  20
BRANCH  16  23
ATOM      5  O   UNL     1      -0.559  -0.461   2.275  0.00  0.00    -0.249 OA
ATOM     23  C   UNL     1      -1.001   0.653   2.029  0.00  0.00    +0.325 C 
BRANCH  23   4
ATOM      4  O   UNL     1      -1.440   1.569   2.939  0.00  0.00    -0.467 OA
ATOM     35  C   UNL     1      -1.364   1.161   4.308  0.00  0.00    +0.280 C 
ENDBRANCH  23   4
ENDBRANCH  16  23
BRANCH  14   8
ATOM      8  N   UNL     1       0.733  -3.144  -0.501  0.00  0.00    -0.312 NA
ATOM     39  H   UNL     1      -0.018  -3.826  -0.388  0.00  0.00    +0.122 HD
BRANCH   8  24
ATOM     24  C   UNL     1       1.975  -3.853  -0.763  0.00  0.00    +0.100 C 
BRANCH  24  29
ATOM     29  C   UNL     1       2.280  -4.821   0.370  0.00  0.00    +0.119 C 
BRANCH  29  10
ATOM      6  O   UNL     1       4.982  -4.080   1.133  0.00  0.00    -0.276 OA
ATOM     10  N   UNL     1       3.491  -5.554   0.117  0.00  0.00    -0.314 N 
ATOM     37  C   UNL     1       4.746  -5.119   0.522  0.00  0.00    +0.210 C 
ATOM     38  C   UNL     1       5.838  -6.087   0.151  0.00  0.00    +0.109 C 
ATOM     41  H   UNL     1       3.414  -6.433  -0.386  0.00  0.00    +0.149 HD
ENDBRANCH  29  10
ENDBRANCH  24  29
ENDBRANCH   8  24
ENDBRANCH  14   8
TORSDOF 8
