REMARK  Name = 86769005
REMARK  7 active torsions:
REMARK  status: ('A' for Active; 'I' for Inactive)
REMARK    1  A    between atoms: O_3  and  C_10
REMARK    2  A    between atoms: N_5  and  C_9
REMARK    3  A    between atoms: N_5  and  C_14
REMARK    4  A    between atoms: N_6  and  C_13
REMARK    5  A    between atoms: C_11  and  C_13
REMARK    6  A    between atoms: C_14  and  C_15
REMARK    7  A    between atoms: C_16  and  C_18
REMARK                            x       y       z     vdW  Elec       q    Type
REMARK                         _______ _______ _______ _____ _____    ______ ____
ROOT
ATOM      2  O   UNL     1      -0.242  -0.809   0.259  0.00  0.00    -0.371 OA
ATOM      9  C   UNL     1      -2.328   0.169  -0.319  0.00  0.00    +0.111 C 
ATOM     10  C   UNL     1      -1.458   1.218   0.349  0.00  0.00    +0.164 C 
ATOM     11  C   UNL     1      -0.073   0.614   0.158  0.00  0.00    +0.165 C 
ATOM     12  C   UNL     1      -1.641  -1.115   0.117  0.00  0.00    +0.181 C 
ENDROOT
BRANCH  10   3
ATOM      3  O   UNL     1      -1.568   2.489  -0.261  0.00  0.00    -0.388 OA
ATOM     26  H   UNL     1      -1.351   2.395  -1.204  0.00  0.00    +0.210 HD
ENDBRANCH  10   3
BRANCH   9   5
ATOM      5  N   UNL     1      -3.724   0.228   0.082  0.00  0.00    -0.304 NA
ATOM     25  H   UNL     1      -4.034   1.200   0.064  0.00  0.00    +0.123 HD
BRANCH   5  14
ATOM     14  C   UNL     1      -4.563  -0.554  -0.818  0.00  0.00    +0.136 C 
BRANCH  14  15
ATOM      7  N   UNL     1      -6.723  -1.646  -0.110  0.00  0.00    -0.347 N 
ATOM      8  N   UNL     1      -8.133   0.049   0.149  0.00  0.00    -0.244 NA
ATOM     15  C   UNL     1      -6.011  -0.519  -0.408  0.00  0.00    +0.049 A 
ATOM     17  C   UNL     1      -6.902   0.515  -0.241  0.00  0.00    +0.134 A 
ATOM     19  C   UNL     1      -7.991  -1.256   0.219  0.00  0.00    +0.196 A 
ATOM     28  H   UNL     1      -6.378  -2.597  -0.128  0.00  0.00    +0.167 HD
ENDBRANCH  14  15
ENDBRANCH   5  14
ENDBRANCH   9   5
BRANCH  11  13
ATOM     13  C   UNL     1       0.935   1.086   1.190  0.00  0.00    +0.138 C 
BRANCH  13   6
ATOM      4  O   UNL     1       3.056   2.131  -0.440  0.00  0.00    -0.270 OA
ATOM      6  N   UNL     1       2.222   0.490   0.974  0.00  0.00    -0.309 N 
ATOM     16  C   UNL     1       3.194   1.069   0.163  0.00  0.00    +0.244 C 
ATOM     27  H   UNL     1       2.375  -0.423   1.387  0.00  0.00    +0.149 HD
BRANCH  16  18
ATOM      1  F   UNL     1       7.998  -1.785  -0.377  0.00  0.00    -0.205 F 
ATOM     18  C   UNL     1       4.465   0.314   0.020  0.00  0.00    +0.037 A 
ATOM     20  C   UNL     1       5.241   0.465  -1.129  0.00  0.00    +0.016 A 
ATOM     21  C   UNL     1       4.883  -0.547   1.035  0.00  0.00    +0.016 A 
ATOM     22  C   UNL     1       6.434  -0.244  -1.264  0.00  0.00    +0.039 A 
ATOM     23  C   UNL     1       6.077  -1.256   0.901  0.00  0.00    +0.039 A 
ATOM     24  C   UNL     1       6.852  -1.105  -0.249  0.00  0.00    +0.123 A 
ENDBRANCH  16  18
ENDBRANCH  13   6
ENDBRANCH  11  13
TORSDOF 7
