REMARK  Name = 40724278
REMARK  3 active torsions:
REMARK  status: ('A' for Active; 'I' for Inactive)
REMARK    1  A    between atoms: C_12  and  C_13
REMARK    2  A    between atoms: C_21  and  C_23
REMARK    3  A    between atoms: C_24  and  C_27
REMARK                            x       y       z     vdW  Elec       q    Type
REMARK                         _______ _______ _______ _____ _____    ______ ____
ROOT
ATOM      1  O   UNL     1      -3.058  -0.496   2.115  0.00  0.00    -0.275 OA
ATOM      2  O   UNL     1       1.861   1.558   1.660  0.00  0.00    -0.267 OA
ATOM      3  N   UNL     1      -2.932   0.943   0.295  0.00  0.00    -0.300 N 
ATOM      4  N   UNL     1       0.114   1.891   0.150  0.00  0.00    -0.311 N 
ATOM      5  C   UNL     1      -1.995   3.212   0.753  0.00  0.00    +0.027 C 
ATOM      6  C   UNL     1      -1.768   2.228  -1.489  0.00  0.00    +0.054 C 
ATOM      7  C   UNL     1      -2.055   3.526  -0.737  0.00  0.00    +0.018 C 
ATOM      8  C   UNL     1      -3.041   2.146   1.123  0.00  0.00    +0.113 C 
ATOM      9  C   UNL     1      -2.852   1.185  -1.153  0.00  0.00    +0.117 C 
ATOM     10  C   UNL     1      -0.570   2.770   1.108  0.00  0.00    +0.130 C 
ATOM     11  C   UNL     1      -0.400   1.680  -1.131  0.00  0.00    +0.027 A 
ATOM     13  C   UNL     1      -2.991  -0.315   0.897  0.00  0.00    +0.219 C 
ATOM     16  C   UNL     1       0.302   0.972  -2.030  0.00  0.00    +0.022 A 
ATOM     19  C   UNL     1       1.359   1.367   0.551  0.00  0.00    +0.259 A 
ATOM     21  C   UNL     1       2.106   0.547  -0.467  0.00  0.00    +0.047 A 
ATOM     22  C   UNL     1       1.571   0.394  -1.687  0.00  0.00    +0.015 A 
ENDROOT
BRANCH  21  23
ATOM     23  C   UNL     1       3.395  -0.087  -0.139  0.00  0.00    -0.010 A 
ATOM     24  C   UNL     1       3.454  -1.375   0.395  0.00  0.00    -0.043 A 
ATOM     25  C   UNL     1       4.570   0.626  -0.374  0.00  0.00    +0.009 A 
ATOM     26  C   UNL     1       4.690  -1.948   0.694  0.00  0.00    +0.004 A 
ATOM     27  C   UNL     1       2.215  -2.168   0.659  0.00  0.00    +0.044 C 
ATOM     28  C   UNL     1       5.806   0.052  -0.074  0.00  0.00    +0.001 A 
ATOM     29  C   UNL     1       5.866  -1.235   0.460  0.00  0.00    +0.000 A 
ENDBRANCH  21  23
BRANCH  13  12
ATOM     12  C   UNL     1      -2.962  -1.499  -0.020  0.00  0.00    +0.075 C 
ATOM     14  C   UNL     1      -1.515  -1.919  -0.282  0.00  0.00    +0.013 C 
ATOM     15  C   UNL     1      -3.773  -2.637   0.602  0.00  0.00    +0.013 C 
ATOM     17  C   UNL     1      -1.445  -3.187  -1.129  0.00  0.00    +0.001 C 
ATOM     18  C   UNL     1      -3.698  -3.906  -0.244  0.00  0.00    +0.001 C 
ATOM     20  C   UNL     1      -2.254  -4.323  -0.508  0.00  0.00    +0.000 C 
ENDBRANCH  13  12
TORSDOF 2
