REMARK  Name = 75536744
REMARK  7 active torsions:
REMARK  status: ('A' for Active; 'I' for Inactive)
REMARK    1  A    between atoms: O_2  and  C_9
REMARK    2  A    between atoms: N_5  and  C_8
REMARK    3  A    between atoms: N_5  and  C_13
REMARK    4  A    between atoms: N_6  and  C_12
REMARK    5  A    between atoms: C_10  and  C_12
REMARK    6  A    between atoms: C_13  and  C_14
REMARK    7  A    between atoms: C_13  and  C_15
REMARK                            x       y       z     vdW  Elec       q    Type
REMARK                         _______ _______ _______ _____ _____    ______ ____
ROOT
ATOM      1  O   UNL     1      -1.119   1.123  -0.095  0.00  0.00    -0.371 OA
ATOM      8  C   UNL     1      -3.225   0.042   0.108  0.00  0.00    +0.111 C 
ATOM      9  C   UNL     1      -2.288  -0.845  -0.692  0.00  0.00    +0.164 C 
ATOM     10  C   UNL     1      -0.932  -0.291  -0.275  0.00  0.00    +0.165 C 
ATOM     11  C   UNL     1      -2.530   1.389  -0.001  0.00  0.00    +0.181 C 
ENDROOT
BRANCH   9   2
ATOM      2  O   UNL     1      -2.421  -2.214  -0.366  0.00  0.00    -0.388 OA
ATOM     22  H   UNL     1      -2.277  -2.317   0.590  0.00  0.00    +0.210 HD
ENDBRANCH   9   2
BRANCH   8   5
ATOM      5  N   UNL     1      -4.586   0.064  -0.403  0.00  0.00    -0.307 NA
ATOM     21  H   UNL     1      -4.885  -0.881  -0.644  0.00  0.00    +0.123 HD
BRANCH   5  13
ATOM     13  C   UNL     1      -5.503   0.641   0.572  0.00  0.00    +0.048 C 
ATOM     14  C   UNL     1      -6.755   1.140  -0.142  0.00  0.00    +0.023 C 
ATOM     15  C   UNL     1      -5.856  -0.388   1.642  0.00  0.00    +0.023 C 
ENDBRANCH   5  13
ENDBRANCH   8   5
BRANCH  10  12
ATOM     12  C   UNL     1       0.159  -0.537  -1.302  0.00  0.00    +0.140 C 
BRANCH  12   6
ATOM      3  O   UNL     1       6.158   0.922   0.451  0.00  0.00    -0.377 OA
ATOM      4  O   UNL     1       2.103  -1.904   0.204  0.00  0.00    -0.253 OA
ATOM      6  N   UNL     1       1.426   0.008  -0.869  0.00  0.00    -0.297 N 
ATOM      7  N   UNL     1       3.519  -0.067   0.226  0.00  0.00    -0.281 N 
ATOM     16  C   UNL     1       2.335  -0.736  -0.125  0.00  0.00    +0.302 C 
ATOM     17  C   UNL     1       4.531  -0.773   1.016  0.00  0.00    +0.137 C 
ATOM     18  C   UNL     1       3.807   1.358   0.009  0.00  0.00    +0.137 C 
ATOM     19  C   UNL     1       5.929  -0.488   0.492  0.00  0.00    +0.179 C 
ATOM     20  C   UNL     1       5.248   1.556  -0.449  0.00  0.00    +0.179 C 
ATOM     23  H   UNL     1       1.605   0.968  -1.123  0.00  0.00    +0.150 HD
ENDBRANCH  12   6
ENDBRANCH  10  12
TORSDOF 5
