REMARK  Name = 86769013
REMARK  6 active torsions:
REMARK  status: ('A' for Active; 'I' for Inactive)
REMARK    1  A    between atoms: O_3  and  C_18
REMARK    2  A    between atoms: O_3  and  C_22
REMARK    3  A    between atoms: N_5  and  C_15
REMARK    4  A    between atoms: N_7  and  C_20
REMARK    5  A    between atoms: C_15  and  C_17
REMARK    6  A    between atoms: C_16  and  C_18
REMARK                            x       y       z     vdW  Elec       q    Type
REMARK                         _______ _______ _______ _____ _____    ______ ____
ROOT
ATOM      1  O   UNL     1       1.616  -2.715   0.414  0.00  0.00    -0.252 OA
ATOM      2  O   UNL     1      -4.994  -0.855  -0.724  0.00  0.00    -0.273 OA
ATOM      4  N   UNL     1      -0.335  -1.405   0.430  0.00  0.00    -0.278 N 
ATOM      5  N   UNL     1       1.611  -0.427   0.986  0.00  0.00    -0.276 N 
ATOM      6  N   UNL     1      -2.734  -0.363  -0.518  0.00  0.00    -0.296 N 
ATOM      9  C   UNL     1      -0.703  -0.058   0.831  0.00  0.00    +0.112 C 
ATOM     10  C   UNL     1       0.638   0.652   0.997  0.00  0.00    +0.134 C 
ATOM     11  C   UNL     1      -1.635   0.569  -0.203  0.00  0.00    +0.132 C 
ATOM     12  C   UNL     1      -1.365  -2.345   0.029  0.00  0.00    +0.128 C 
ATOM     13  C   UNL     1      -2.301  -1.689  -0.983  0.00  0.00    +0.127 C 
ATOM     14  C   UNL     1       1.036  -1.651   0.591  0.00  0.00    +0.306 C 
ATOM     16  C   UNL     1      -4.093  -0.066  -0.431  0.00  0.00    +0.241 C 
ENDROOT
BRANCH   5  15
ATOM     15  C   UNL     1       3.018  -0.191   1.224  0.00  0.00    +0.183 C 
BRANCH  15  17
ATOM      7  N   UNL     1       4.802   1.133   0.053  0.00  0.00    -0.336 N 
ATOM      8  N   UNL     1       3.405   0.002  -1.250  0.00  0.00    -0.239 NA
ATOM     17  C   UNL     1       3.722   0.298  -0.009  0.00  0.00    +0.127 A 
ATOM     19  C   UNL     1       5.200   1.385  -1.230  0.00  0.00    +0.106 A 
ATOM     20  C   UNL     1       5.423   1.662   1.245  0.00  0.00    +0.150 C 
ATOM     21  C   UNL     1       4.322   0.676  -2.016  0.00  0.00    +0.130 A 
ENDBRANCH  15  17
ENDBRANCH   5  15
BRANCH  16  18
ATOM     18  C   UNL     1      -4.451   1.315   0.058  0.00  0.00    +0.255 C 
BRANCH  18   3
ATOM      3  O   UNL     1      -5.855   1.400   0.030  0.00  0.00    -0.374 OA
ATOM     22  C   UNL     1      -6.324   2.672   0.475  0.00  0.00    +0.194 C 
ENDBRANCH  18   3
ENDBRANCH  16  18
TORSDOF 4
