REMARK  Name = 26743822
REMARK  8 active torsions:
REMARK  status: ('A' for Active; 'I' for Inactive)
REMARK    1  A    between atoms: S_1  and  C_22
REMARK    2  A    between atoms: S_1  and  C_26
REMARK    3  A    between atoms: O_3  and  C_12
REMARK    4  A    between atoms: N_7  and  C_14
REMARK    5  A    between atoms: C_10  and  C_15
REMARK    6  A    between atoms: C_14  and  C_16
REMARK    7  A    between atoms: C_19  and  C_23
REMARK    8  A    between atoms: C_29  and  C_30
REMARK                            x       y       z     vdW  Elec       q    Type
REMARK                         _______ _______ _______ _____ _____    ______ ____
ROOT
ATOM      7  N   UNL     1       3.716   0.104  -0.059  0.00  0.00    -0.285 NA
ATOM     10  C   UNL     1       3.079  -1.122  -0.583  0.00  0.00    +0.149 C 
ATOM     11  C   UNL     1       4.007  -2.268  -0.138  0.00  0.00    +0.061 C 
ATOM     12  C   UNL     1       5.159  -1.584   0.588  0.00  0.00    +0.130 C 
ATOM     13  C   UNL     1       5.148  -0.176   0.024  0.00  0.00    +0.116 C 
ENDROOT
BRANCH  10  15
ATOM      4  O   UNL     1       1.482  -1.332   1.255  0.00  0.00    -0.336 OA
ATOM      8  N   UNL     1       0.551  -1.419  -0.781  0.00  0.00    -0.190 NA
ATOM      9  N   UNL     1       0.106  -1.498   1.462  0.00  0.00    -0.056 NA
ATOM     15  C   UNL     1       1.657  -1.295  -0.092  0.00  0.00    +0.245 A 
ATOM     19  C   UNL     1      -0.374  -1.540   0.216  0.00  0.00    +0.202 A 
BRANCH  19  23
ATOM      2  F   UNL     1      -4.916  -2.093   1.713  0.00  0.00    -0.205 F 
ATOM     23  C   UNL     1      -1.770  -1.702  -0.068  0.00  0.00    +0.025 A 
ATOM     24  C   UNL     1      -2.685  -1.822   0.978  0.00  0.00    +0.050 A 
ATOM     25  C   UNL     1      -2.213  -1.738  -1.390  0.00  0.00    +0.012 A 
ATOM     27  C   UNL     1      -4.044  -1.978   0.701  0.00  0.00    +0.127 A 
ATOM     28  C   UNL     1      -3.572  -1.894  -1.667  0.00  0.00    +0.007 A 
ATOM     29  C   UNL     1      -4.487  -2.014  -0.621  0.00  0.00    -0.015 A 
ATOM     30  C   UNL     1      -5.939  -2.181  -0.920  0.00  0.00    +0.047 C 
ENDBRANCH  19  23
ENDBRANCH  10  15
BRANCH  12   3
ATOM      3  O   UNL     1       6.381  -2.246   0.326  0.00  0.00    -0.390 OA
ATOM     31  H   UNL     1       6.292  -3.160   0.644  0.00  0.00    +0.210 HD
ENDBRANCH  12   3
BRANCH   7  14
ATOM     14  C   UNL     1       3.434   1.286  -0.863  0.00  0.00    +0.120 C 
BRANCH  14  16
ATOM     16  C   UNL     1       2.071   1.853  -0.567  0.00  0.00    -0.033 A 
ATOM     17  C   UNL     1       1.129   1.973  -1.589  0.00  0.00    +0.007 A 
ATOM     18  C   UNL     1       1.750   2.260   0.728  0.00  0.00    +0.007 A 
ATOM     20  C   UNL     1      -0.134   2.499  -1.315  0.00  0.00    +0.027 A 
ATOM     21  C   UNL     1       0.488   2.786   1.002  0.00  0.00    +0.027 A 
ATOM     22  C   UNL     1      -0.454   2.906  -0.019  0.00  0.00    +0.088 A 
BRANCH  22   1
ATOM      1  S   UNL     1      -2.034   3.565   0.323  0.00  0.00    -0.006 S 
ATOM      5  O   UNL     1      -1.948   4.406   1.509  0.00  0.00    -0.170 OA
ATOM      6  O   UNL     1      -2.568   4.115  -0.915  0.00  0.00    -0.170 OA
ATOM     26  C   UNL     1      -3.018   2.150   0.762  0.00  0.00    +0.200 C 
ENDBRANCH  22   1
ENDBRANCH  14  16
ENDBRANCH   7  14
TORSDOF 6
