REMARK  Name = 44716705
REMARK  9 active torsions:
REMARK  status: ('A' for Active; 'I' for Inactive)
REMARK    1  A    between atoms: O_2  and  C_11
REMARK    2  A    between atoms: O_5  and  C_35
REMARK    3  A    between atoms: O_5  and  C_36
REMARK    4  A    between atoms: C_9  and  C_17
REMARK    5  A    between atoms: C_12  and  C_18
REMARK    6  A    between atoms: C_14  and  C_21
REMARK    7  A    between atoms: C_18  and  C_22
REMARK    8  A    between atoms: C_18  and  C_23
REMARK    9  A    between atoms: C_29  and  C_30
REMARK                            x       y       z     vdW  Elec       q    Type
REMARK                         _______ _______ _______ _____ _____    ______ ____
ROOT
ATOM      1  S   UNL     1      -2.110  -1.794   1.162  0.00  0.00    -0.057 S 
ATOM      4  O   UNL     1      -4.644   1.553  -0.907  0.00  0.00    -0.270 OA
ATOM      6  N   UNL     1      -1.958   0.328  -0.308  0.00  0.00    -0.229 NA
ATOM      8  N   UNL     1      -4.163  -0.367   0.374  0.00  0.00    -0.261 N 
ATOM      9  C   UNL     1       1.830  -1.575   0.001  0.00  0.00    -0.022 C 
ATOM     10  C   UNL     1       1.873  -0.002  -0.135  0.00  0.00    +0.033 C 
ATOM     11  C   UNL     1       3.132   0.465  -0.918  0.00  0.00    +0.123 C 
ATOM     12  C   UNL     1       4.441  -0.125  -0.350  0.00  0.00    +0.029 C 
ATOM     13  C   UNL     1       3.165  -2.083   0.596  0.00  0.00    +0.008 C 
ATOM     14  C   UNL     1       0.518   0.579  -0.715  0.00  0.00    +0.042 C 
ATOM     15  C   UNL     1       4.382  -1.646  -0.207  0.00  0.00    +0.007 C 
ATOM     16  C   UNL     1       0.693  -1.989   0.986  0.00  0.00    +0.051 C 
ATOM     17  C   UNL     1       1.590  -2.271  -1.364  0.00  0.00    +0.012 C 
ATOM     19  C   UNL     1      -0.667  -0.123  -0.098  0.00  0.00    +0.057 A 
ATOM     20  C   UNL     1      -0.570  -1.277   0.653  0.00  0.00    +0.015 A 
ATOM     21  C   UNL     1       0.382   2.097  -0.530  0.00  0.00    +0.014 C 
ATOM     24  C   UNL     1      -2.799  -0.467   0.318  0.00  0.00    +0.165 A 
ATOM     29  C   UNL     1      -5.008   0.605  -0.219  0.00  0.00    +0.250 C 
ATOM     38  H   UNL     1      -4.593  -1.129   0.890  0.00  0.00    +0.157 HD
ENDROOT
BRANCH  29  30
ATOM     30  C   UNL     1      -6.467   0.429   0.002  0.00  0.00    +0.037 A 
ATOM     31  C   UNL     1      -7.378   0.928  -0.928  0.00  0.00    +0.016 A 
ATOM     32  C   UNL     1      -6.925  -0.233   1.141  0.00  0.00    +0.016 A 
ATOM     33  C   UNL     1      -8.748   0.765  -0.720  0.00  0.00    +0.046 A 
ATOM     34  C   UNL     1      -8.294  -0.396   1.350  0.00  0.00    +0.046 A 
ATOM     35  C   UNL     1      -9.206   0.103   0.419  0.00  0.00    +0.120 A 
BRANCH  35   5
ATOM      5  O   UNL     1     -10.542  -0.057   0.623  0.00  0.00    -0.495 OA
ATOM     36  C   UNL     1     -11.418   0.478  -0.368  0.00  0.00    +0.277 C 
ENDBRANCH  35   5
ENDBRANCH  29  30
BRANCH  11   2
ATOM      2  O   UNL     1       3.240   1.886  -0.839  0.00  0.00    -0.391 OA
ATOM     37  H   UNL     1       3.331   2.129   0.098  0.00  0.00    +0.210 HD
ENDBRANCH  11   2
BRANCH  12  18
ATOM     18  C   UNL     1       5.657   0.263  -1.201  0.00  0.00    +0.078 C 
ATOM     22  C   UNL     1       5.523  -0.260  -2.619  0.00  0.00    +0.017 C 
BRANCH  18  23
ATOM      3  O   UNL     1       7.320  -1.412  -0.882  0.00  0.00    -0.275 OA
ATOM      7  N   UNL     1       7.489   0.501   0.403  0.00  0.00    -0.301 N 
ATOM     23  C   UNL     1       6.897  -0.302  -0.555  0.00  0.00    +0.219 C 
ATOM     25  C   UNL     1       7.042   1.822   0.832  0.00  0.00    +0.108 C 
ATOM     26  C   UNL     1       8.688   0.096   1.122  0.00  0.00    +0.108 C 
ATOM     27  C   UNL     1       7.870   2.118   2.074  0.00  0.00    +0.020 C 
ATOM     28  C   UNL     1       9.168   1.367   1.807  0.00  0.00    +0.020 C 
ENDBRANCH  18  23
ENDBRANCH  12  18
TORSDOF 5
