REMARK  Name = 75536854
REMARK  6 active torsions:
REMARK  status: ('A' for Active; 'I' for Inactive)
REMARK    1  A    between atoms: O_2  and  C_8
REMARK    2  A    between atoms: O_2  and  C_16
REMARK    3  A    between atoms: N_5  and  C_18
REMARK    4  A    between atoms: C_13  and  C_14
REMARK    5  A    between atoms: C_17  and  C_20
REMARK    6  A    between atoms: C_21  and  C_24
REMARK                            x       y       z     vdW  Elec       q    Type
REMARK                         _______ _______ _______ _____ _____    ______ ____
ROOT
ATOM      1  O   UNL     1      -1.154  -2.754  -0.574  0.00  0.00    -0.375 OA
ATOM      3  O   UNL     1       3.409  -2.144   0.880  0.00  0.00    -0.268 OA
ATOM      4  N   UNL     1       1.252  -1.238   0.743  0.00  0.00    -0.291 N 
ATOM      8  C   UNL     1      -1.046  -0.391   0.023  0.00  0.00    +0.218 C 
ATOM      9  C   UNL     1       0.395  -0.085   0.443  0.00  0.00    +0.155 C 
ATOM     10  C   UNL     1       0.613  -2.505   1.102  0.00  0.00    +0.136 C 
ATOM     11  C   UNL     1      -1.140  -1.428  -1.094  0.00  0.00    +0.206 C 
ATOM     12  C   UNL     1       0.113  -3.236  -0.137  0.00  0.00    +0.179 C 
ATOM     13  C   UNL     1       2.654  -1.195   0.668  0.00  0.00    +0.265 C 
ENDROOT
BRANCH  13  14
ATOM      5  N   UNL     1       4.098   0.282  -0.777  0.00  0.00    -0.262 N 
ATOM      6  N   UNL     1       4.561   1.539  -0.882  0.00  0.00    -0.176 NA
ATOM     14  C   UNL     1       3.296   0.079   0.307  0.00  0.00    +0.123 A 
ATOM     15  C   UNL     1       3.230   1.287   0.957  0.00  0.00    +0.057 A 
ATOM     17  C   UNL     1       4.027   2.148   0.180  0.00  0.00    +0.061 A 
ATOM     18  C   UNL     1       4.473  -0.694  -1.774  0.00  0.00    +0.173 C 
ATOM     20  C   UNL     1       4.306   3.574   0.422  0.00  0.00    +0.067 C 
ENDBRANCH  13  14
BRANCH   8   2
ATOM      2  O   UNL     1      -1.611   0.838  -0.435  0.00  0.00    -0.469 OA
BRANCH   2  16
ATOM      7  N   UNL     1      -3.718  -0.101  -0.204  0.00  0.00    -0.218 NA
ATOM     16  C   UNL     1      -2.951   1.012  -0.221  0.00  0.00    +0.215 A 
ATOM     19  C   UNL     1      -3.441   2.295  -0.037  0.00  0.00    +0.067 A 
ATOM     21  C   UNL     1      -5.040   0.085   0.007  0.00  0.00    +0.042 A 
ATOM     22  C   UNL     1      -4.806   2.446   0.177  0.00  0.00    +0.007 A 
ATOM     23  C   UNL     1      -5.628   1.324   0.202  0.00  0.00    +0.023 A 
ATOM     24  C   UNL     1      -5.893  -1.140   0.024  0.00  0.00    +0.066 C 
ENDBRANCH   2  16
ENDBRANCH   8   2
TORSDOF 3
