REMARK  Name = 38028580
REMARK  14 active torsions:
REMARK  status: ('A' for Active; 'I' for Inactive)
REMARK    1  A    between atoms: O_3  and  C_26
REMARK    2  A    between atoms: N_5  and  C_15
REMARK    3  A    between atoms: N_6  and  C_23
REMARK    4  A    between atoms: C_8  and  C_12
REMARK    5  A    between atoms: C_9  and  C_15
REMARK    6  A    between atoms: C_11  and  C_16
REMARK    7  A    between atoms: C_12  and  C_17
REMARK    8  A    between atoms: C_12  and  C_18
REMARK    9  A    between atoms: C_13  and  C_19
REMARK   10  A    between atoms: C_16  and  C_20
REMARK   11  A    between atoms: C_21  and  C_22
REMARK   12  A    between atoms: C_22  and  C_24
REMARK   13  A    between atoms: C_23  and  C_25
REMARK   14  A    between atoms: C_24  and  C_26
REMARK                            x       y       z     vdW  Elec       q    Type
REMARK                         _______ _______ _______ _____ _____    ______ ____
ROOT
ATOM      8  C   UNL     1       0.198   1.925  -1.043  0.00  0.00    +0.000 C 
ATOM      9  C   UNL     1       1.506   2.754  -1.105  0.00  0.00    +0.032 C 
ATOM     10  C   UNL     1      -0.824   2.606  -0.120  0.00  0.00    +0.012 C 
ATOM     11  C   UNL     1      -0.289   2.781   1.313  0.00  0.00    +0.023 C 
ATOM     13  C   UNL     1       1.116   3.349   1.325  0.00  0.00    -0.073 C 
ATOM     14  C   UNL     1       1.898   3.340   0.231  0.00  0.00    -0.022 C 
ATOM     19  C   UNL     1       1.585   3.969   2.611  0.00  0.00    +0.039 C 
ENDROOT
BRANCH   8  12
ATOM     12  C   UNL     1      -0.412   1.722  -2.433  0.00  0.00    -0.013 C 
ATOM     17  C   UNL     1      -1.290   0.474  -2.452  0.00  0.00    +0.007 C 
ATOM     18  C   UNL     1      -1.213   2.952  -2.848  0.00  0.00    +0.007 C 
ENDBRANCH   8  12
BRANCH   9  15
ATOM     15  C   UNL     1       2.666   1.916  -1.655  0.00  0.00    +0.112 C 
BRANCH  15   5
ATOM      2  O   UNL     1       2.597  -0.923  -2.210  0.00  0.00    -0.276 OA
ATOM      5  N   UNL     1       2.993   0.852  -0.759  0.00  0.00    -0.315 N 
ATOM     21  C   UNL     1       2.933  -0.499  -1.108  0.00  0.00    +0.214 C 
ATOM     31  H   UNL     1       3.339   1.094   0.165  0.00  0.00    +0.149 HD
BRANCH  21  22
ATOM     22  C   UNL     1       3.333  -1.404   0.043  0.00  0.00    +0.107 C 
BRANCH  22  24
ATOM     24  C   UNL     1       3.271  -2.882  -0.329  0.00  0.00    +0.129 C 
BRANCH  24  26
ATOM      4  O   UNL     1       4.016  -3.386   1.933  0.00  0.00    -0.251 OA
ATOM     26  C   UNL     1       3.664  -3.772   0.827  0.00  0.00    +0.305 C 
BRANCH  26   3
ATOM      3  O   UNL     1       3.581  -5.087   0.492  0.00  0.00    -0.481 OA
ATOM     33  H   UNL     1       3.834  -5.671   1.238  0.00  0.00    +0.295 HD
ENDBRANCH  26   3
ENDBRANCH  24  26
ENDBRANCH  22  24
ENDBRANCH  21  22
ENDBRANCH  15   5
ENDBRANCH   9  15
BRANCH  11  16
ATOM     16  C   UNL     1      -0.354   1.462   2.092  0.00  0.00    +0.103 C 
BRANCH  16  20
ATOM      1  O   UNL     1      -2.772   1.530   2.026  0.00  0.00    -0.276 OA
ATOM      6  N   UNL     1      -1.687  -0.522   2.140  0.00  0.00    -0.311 N 
ATOM     20  C   UNL     1      -1.742   0.863   2.080  0.00  0.00    +0.214 C 
ATOM     32  H   UNL     1      -0.784  -0.986   2.179  0.00  0.00    +0.149 HD
BRANCH   6  23
ATOM     23  C   UNL     1      -2.864  -1.359   2.145  0.00  0.00    +0.141 C 
BRANCH  23  25
ATOM      7  N   UNL     1      -2.752  -2.819  -1.342  0.00  0.00    -0.263 NA
ATOM     25  C   UNL     1      -3.287  -1.744   0.757  0.00  0.00    -0.012 A 
ATOM     27  C   UNL     1      -4.545  -1.406   0.272  0.00  0.00    +0.008 A 
ATOM     28  C   UNL     1      -2.435  -2.444  -0.082  0.00  0.00    +0.115 A 
ATOM     29  C   UNL     1      -4.908  -1.774  -1.019  0.00  0.00    +0.020 A 
ATOM     30  C   UNL     1      -3.984  -2.473  -1.779  0.00  0.00    +0.111 A 
ENDBRANCH  23  25
ENDBRANCH   6  23
ENDBRANCH  16  20
ENDBRANCH  11  16
TORSDOF 11
