REMARK  Name = 11883011
REMARK  11 active torsions:
REMARK  status: ('A' for Active; 'I' for Inactive)
REMARK    1  A    between atoms: O_2  and  C_15
REMARK    2  A    between atoms: O_3  and  C_20
REMARK    3  A    between atoms: C_10  and  C_18
REMARK    4  A    between atoms: C_12  and  C_20
REMARK    5  A    between atoms: C_12  and  C_21
REMARK    6  A    between atoms: C_13  and  C_23
REMARK    7  A    between atoms: C_23  and  C_24
REMARK    8  A    between atoms: C_30  and  C_31
REMARK    9  A    between atoms: C_31  and  C_32
REMARK   10  A    between atoms: C_31  and  C_33
REMARK   11  A    between atoms: C_31  and  C_34
REMARK                            x       y       z     vdW  Elec       q    Type
REMARK                         _______ _______ _______ _____ _____    ______ ____
ROOT
ATOM      1  S   UNL     1      -0.733   2.942   0.635  0.00  0.00    -0.057 S 
ATOM      6  O   UNL     1      -4.266   0.135  -0.451  0.00  0.00    -0.275 OA
ATOM      7  N   UNL     1      -1.369   0.583  -0.216  0.00  0.00    -0.229 NA
ATOM      9  N   UNL     1      -3.186   2.091   0.266  0.00  0.00    -0.264 N 
ATOM     10  C   UNL     1       2.387  -0.086  -0.776  0.00  0.00    -0.019 C 
ATOM     11  C   UNL     1       2.816   0.865   0.428  0.00  0.00    +0.011 C 
ATOM     12  C   UNL     1       4.361   1.103   0.636  0.00  0.00    +0.021 C 
ATOM     13  C   UNL     1       0.872  -0.532  -0.536  0.00  0.00    +0.054 C 
ATOM     14  C   UNL     1       3.277  -1.356  -0.772  0.00  0.00    +0.010 C 
ATOM     15  C   UNL     1       5.105  -0.261   0.565  0.00  0.00    +0.123 C 
ATOM     16  C   UNL     1       1.971   2.172   0.450  0.00  0.00    +0.049 C 
ATOM     17  C   UNL     1       4.768  -1.064  -0.686  0.00  0.00    +0.032 C 
ATOM     18  C   UNL     1       2.509   0.603  -2.157  0.00  0.00    +0.012 C 
ATOM     19  C   UNL     1       0.011   0.649  -0.166  0.00  0.00    +0.058 A 
ATOM     21  C   UNL     1       4.598   1.685   2.059  0.00  0.00    +0.016 C 
ATOM     22  C   UNL     1       0.524   1.846   0.291  0.00  0.00    +0.015 A 
ATOM     25  C   UNL     1      -1.866   1.736   0.177  0.00  0.00    +0.165 A 
ATOM     30  C   UNL     1      -4.305   1.295  -0.044  0.00  0.00    +0.224 C 
ATOM     37  H   UNL     1      -3.341   3.039   0.596  0.00  0.00    +0.157 HD
ENDROOT
BRANCH  30  31
ATOM     31  C   UNL     1      -5.662   2.013   0.170  0.00  0.00    +0.039 C 
ATOM     32  C   UNL     1      -5.802   2.458   1.634  0.00  0.00    +0.020 C 
ATOM     33  C   UNL     1      -6.822   1.081  -0.214  0.00  0.00    +0.020 C 
ATOM     34  C   UNL     1      -5.728   3.263  -0.727  0.00  0.00    +0.020 C 
ENDBRANCH  30  31
BRANCH  15   2
ATOM      2  O   UNL     1       6.518  -0.067   0.621  0.00  0.00    -0.391 OA
ATOM     35  H   UNL     1       6.757   0.140   1.539  0.00  0.00    +0.210 HD
ENDBRANCH  15   2
BRANCH  12  20
ATOM     20  C   UNL     1       4.989   2.123  -0.339  0.00  0.00    +0.165 C 
BRANCH  20   3
ATOM      3  O   UNL     1       6.359   2.236  -0.024  0.00  0.00    -0.394 OA
ATOM     36  H   UNL     1       6.455   2.916   0.664  0.00  0.00    +0.209 HD
ENDBRANCH  20   3
ENDBRANCH  12  20
BRANCH  13  23
ATOM     23  C   UNL     1       0.254  -1.338  -1.686  0.00  0.00    +0.106 C 
BRANCH  23  24
ATOM      4  O   UNL     1      -2.098  -1.507  -1.932  0.00  0.00    -0.276 OA
ATOM      5  O   UNL     1      -1.614  -4.847   1.580  0.00  0.00    -0.377 OA
ATOM      8  N   UNL     1      -1.150  -2.691  -0.174  0.00  0.00    -0.297 N 
ATOM     24  C   UNL     1      -1.106  -1.847  -1.282  0.00  0.00    +0.216 C 
ATOM     26  C   UNL     1      -0.034  -3.503   0.321  0.00  0.00    +0.136 C 
ATOM     27  C   UNL     1      -2.338  -2.719   0.679  0.00  0.00    +0.136 C 
ATOM     28  C   UNL     1      -0.516  -4.907   0.666  0.00  0.00    +0.179 C 
ATOM     29  C   UNL     1      -2.725  -4.154   1.003  0.00  0.00    +0.179 C 
ENDBRANCH  23  24
ENDBRANCH  13  23
TORSDOF 6
