REMARK  Name = 11865718
REMARK  7 active torsions:
REMARK  status: ('A' for Active; 'I' for Inactive)
REMARK    1  A    between atoms: O_2  and  C_11
REMARK    2  A    between atoms: O_3  and  C_13
REMARK    3  A    between atoms: N_7  and  C_12
REMARK    4  A    between atoms: N_8  and  C_19
REMARK    5  A    between atoms: N_9  and  C_20
REMARK    6  A    between atoms: C_15  and  C_17
REMARK    7  A    between atoms: C_19  and  C_21
REMARK                            x       y       z     vdW  Elec       q    Type
REMARK                         _______ _______ _______ _____ _____    ______ ____
ROOT
ATOM     11  C   UNL     1       0.463   2.119   0.973  0.00  0.00    +0.167 C 
ATOM     12  C   UNL     1       0.196   1.234  -0.260  0.00  0.00    +0.129 C 
ATOM     13  C   UNL     1       1.784   2.885   0.839  0.00  0.00    +0.149 C 
ATOM     14  C   UNL     1       2.976   1.945   0.590  0.00  0.00    +0.074 C 
ATOM     15  C   UNL     1       2.651   0.800  -0.326  0.00  0.00    +0.015 C 
ATOM     16  C   UNL     1       1.411   0.475  -0.722  0.00  0.00    +0.006 C 
ENDROOT
BRANCH  12   7
ATOM      5  O   UNL     1      -2.598   1.678  -0.711  0.00  0.00    -0.252 OA
ATOM      7  N   UNL     1      -0.875   0.298  -0.022  0.00  0.00    -0.290 N 
ATOM      9  N   UNL     1      -3.028  -0.499   0.054  0.00  0.00    -0.268 N 
ATOM     18  C   UNL     1      -2.221   0.595  -0.270  0.00  0.00    +0.304 C 
ATOM     27  H   UNL     1      -0.652  -0.601   0.395  0.00  0.00    +0.151 HD
ATOM     31  H   UNL     1      -2.557  -1.327   0.410  0.00  0.00    +0.156 HD
BRANCH   9  20
ATOM      1 BR   UNL     1      -4.180  -3.289   0.975  0.00  0.00    -0.048 Br
ATOM     20  C   UNL     1      -4.435  -0.602  -0.052  0.00  0.00    +0.049 A 
ATOM     22  C   UNL     1      -5.096  -1.764   0.313  0.00  0.00    +0.039 A 
ATOM     23  C   UNL     1      -5.129   0.499  -0.533  0.00  0.00    +0.024 A 
ATOM     24  C   UNL     1      -6.485  -1.829   0.195  0.00  0.00    +0.017 A 
ATOM     25  C   UNL     1      -6.517   0.434  -0.652  0.00  0.00    +0.002 A 
ATOM     26  C   UNL     1      -7.195  -0.729  -0.288  0.00  0.00    +0.001 A 
ENDBRANCH   9  20
ENDBRANCH  12   7
BRANCH  15  17
ATOM      4  O   UNL     1       3.692  -0.544  -1.948  0.00  0.00    -0.271 OA
ATOM      8  N   UNL     1       4.828  -0.082   0.034  0.00  0.00    -0.303 N 
ATOM     17  C   UNL     1       3.759  -0.008  -0.843  0.00  0.00    +0.240 C 
ATOM     30  H   UNL     1       4.782   0.349   0.950  0.00  0.00    +0.150 HD
BRANCH   8  19
ATOM     19  C   UNL     1       6.035  -0.824  -0.252  0.00  0.00    +0.200 C 
BRANCH  19  21
ATOM      6  O   UNL     1       5.204  -2.566   1.209  0.00  0.00    -0.274 OA
ATOM     10  N   UNL     1       6.658  -3.131  -0.479  0.00  0.00    -0.328 N 
ATOM     21  C   UNL     1       5.890  -2.244   0.243  0.00  0.00    +0.228 C 
ATOM     32  H   UNL     1       7.236  -2.842  -1.262  0.00  0.00    +0.145 HD
ATOM     33  H   UNL     1       6.669  -4.119  -0.247  0.00  0.00    +0.145 HD
ENDBRANCH  19  21
ENDBRANCH   8  19
ENDBRANCH  15  17
BRANCH  11   2
ATOM      2  O   UNL     1       0.521   1.303   2.144  0.00  0.00    -0.387 OA
ATOM     28  H   UNL     1       0.662   1.893   2.905  0.00  0.00    +0.210 HD
ENDBRANCH  11   2
BRANCH  13   3
ATOM      3  O   UNL     1       1.691   3.846  -0.211  0.00  0.00    -0.389 OA
ATOM     29  H   UNL     1       0.941   4.431  -0.007  0.00  0.00    +0.210 HD
ENDBRANCH  13   3
TORSDOF 7
