REMARK  Name = 45783788
REMARK  8 active torsions:
REMARK  status: ('A' for Active; 'I' for Inactive)
REMARK    1  A    between atoms: N_3  and  C_13
REMARK    2  A    between atoms: N_6  and  C_21
REMARK    3  A    between atoms: N_8  and  C_26
REMARK    4  A    between atoms: N_8  and  C_29
REMARK    5  A    between atoms: C_9  and  C_14
REMARK    6  A    between atoms: C_13  and  C_15
REMARK    7  A    between atoms: C_18  and  C_22
REMARK    8  A    between atoms: C_27  and  C_28
REMARK                            x       y       z     vdW  Elec       q    Type
REMARK                         _______ _______ _______ _____ _____    ______ ____
ROOT
ATOM      3  N   UNL     1      -3.797  -0.016  -0.720  0.00  0.00    -0.287 NA
ATOM      9  C   UNL     1      -3.621  -1.043   0.327  0.00  0.00    +0.146 C 
ATOM     10  C   UNL     1      -4.381  -2.273  -0.201  0.00  0.00    +0.030 C 
ATOM     11  C   UNL     1      -5.001  -1.824  -1.517  0.00  0.00    +0.017 C 
ATOM     12  C   UNL     1      -5.066  -0.316  -1.384  0.00  0.00    +0.085 C 
ENDROOT
BRANCH   9  14
ATOM      1  O   UNL     1      -1.871  -1.780   1.866  0.00  0.00    -0.336 OA
ATOM      4  N   UNL     1      -1.123  -1.223  -0.170  0.00  0.00    -0.190 NA
ATOM      5  N   UNL     1      -0.485  -1.978   1.893  0.00  0.00    -0.056 NA
ATOM     14  C   UNL     1      -2.163  -1.336   0.615  0.00  0.00    +0.245 A 
ATOM     18  C   UNL     1      -0.116  -1.628   0.657  0.00  0.00    +0.204 A 
BRANCH  18  22
ATOM      7  N   UNL     1       3.565  -2.151   0.719  0.00  0.00    -0.240 NA
ATOM     22  C   UNL     1       1.249  -1.673   0.218  0.00  0.00    +0.041 A 
ATOM     23  C   UNL     1       1.597  -1.303  -1.076  0.00  0.00    +0.016 A 
ATOM     24  C   UNL     1       2.261  -2.086   1.069  0.00  0.00    +0.124 A 
ATOM     25  C   UNL     1       2.929  -1.357  -1.474  0.00  0.00    +0.044 A 
ATOM     26  C   UNL     1       3.866  -1.784  -0.547  0.00  0.00    +0.118 A 
BRANCH  26   8
ATOM      8  N   UNL     1       5.218  -1.834  -0.967  0.00  0.00    -0.332 N 
ATOM     29  C   UNL     1       6.276  -2.256  -0.109  0.00  0.00    +0.127 C 
ATOM     31  H   UNL     1       5.454  -1.345  -1.824  0.00  0.00    +0.147 HD
ENDBRANCH  26   8
ENDBRANCH  18  22
ENDBRANCH   9  14
BRANCH   3  13
ATOM     13  C   UNL     1      -3.758   1.345  -0.202  0.00  0.00    +0.120 C 
BRANCH  13  15
ATOM     15  C   UNL     1      -2.347   1.814   0.036  0.00  0.00    -0.033 A 
ATOM     16  C   UNL     1      -1.953   2.220   1.312  0.00  0.00    +0.007 A 
ATOM     17  C   UNL     1      -1.434   1.844  -1.018  0.00  0.00    +0.007 A 
ATOM     19  C   UNL     1      -0.647   2.655   1.532  0.00  0.00    +0.023 A 
ATOM     20  C   UNL     1      -0.128   2.279  -0.797  0.00  0.00    +0.023 A 
ATOM     21  C   UNL     1       0.266   2.685   0.478  0.00  0.00    +0.033 A 
BRANCH  21   6
ATOM      2  O   UNL     1       2.587   2.942  -1.422  0.00  0.00    -0.276 OA
ATOM      6  N   UNL     1       1.573   3.120   0.699  0.00  0.00    -0.286 N 
ATOM     27  C   UNL     1       2.620   3.219  -0.228  0.00  0.00    +0.214 C 
ATOM     28  C   UNL     1       3.884   3.737   0.411  0.00  0.00    +0.109 C 
ATOM     30  H   UNL     1       1.783   3.398   1.655  0.00  0.00    +0.155 HD
ENDBRANCH  21   6
ENDBRANCH  13  15
ENDBRANCH   3  13
TORSDOF 6
