REMARK  Name = 26743626
REMARK  6 active torsions:
REMARK  status: ('A' for Active; 'I' for Inactive)
REMARK    1  A    between atoms: O_4  and  C_12
REMARK    2  A    between atoms: N_6  and  C_14
REMARK    3  A    between atoms: C_10  and  C_15
REMARK    4  A    between atoms: C_14  and  C_16
REMARK    5  A    between atoms: C_20  and  C_23
REMARK    6  A    between atoms: C_30  and  C_31
REMARK                            x       y       z     vdW  Elec       q    Type
REMARK                         _______ _______ _______ _____ _____    ______ ____
ROOT
ATOM      6  N   UNL     1      -3.654   0.025   0.412  0.00  0.00    -0.285 NA
ATOM     10  C   UNL     1      -3.370   1.244  -0.373  0.00  0.00    +0.149 C 
ATOM     11  C   UNL     1      -3.932   2.399   0.475  0.00  0.00    +0.061 C 
ATOM     12  C   UNL     1      -4.553   1.728   1.694  0.00  0.00    +0.130 C 
ATOM     13  C   UNL     1      -4.840   0.318   1.214  0.00  0.00    +0.116 C 
ENDROOT
BRANCH  10  15
ATOM      5  O   UNL     1      -1.587   2.099  -1.810  0.00  0.00    -0.336 OA
ATOM      7  N   UNL     1      -0.856   0.975  -0.016  0.00  0.00    -0.190 NA
ATOM      9  N   UNL     1      -0.188   2.117  -1.883  0.00  0.00    -0.056 NA
ATOM     15  C   UNL     1      -1.896   1.407  -0.682  0.00  0.00    +0.245 A 
ATOM     20  C   UNL     1       0.169   1.434  -0.791  0.00  0.00    +0.202 A 
BRANCH  20  23
ATOM     23  C   UNL     1       1.541   1.195  -0.445  0.00  0.00    +0.022 A 
ATOM     26  C   UNL     1       1.854   0.476   0.709  0.00  0.00    +0.012 A 
ATOM     27  C   UNL     1       2.561   1.681  -1.263  0.00  0.00    +0.012 A 
ATOM     28  C   UNL     1       3.188   0.243   1.044  0.00  0.00    +0.013 A 
ATOM     29  C   UNL     1       3.895   1.448  -0.927  0.00  0.00    +0.013 A 
ATOM     30  C   UNL     1       4.208   0.729   0.227  0.00  0.00    +0.055 A 
BRANCH  30  31
ATOM      1  F   UNL     1       6.322  -0.222  -0.362  0.00  0.00    -0.166 F 
ATOM      2  F   UNL     1       5.767  -0.236   1.740  0.00  0.00    -0.166 F 
ATOM      3  F   UNL     1       6.357   1.623   0.778  0.00  0.00    -0.166 F 
ATOM     31  C   UNL     1       5.634   0.480   0.586  0.00  0.00    +0.417 C 
ENDBRANCH  30  31
ENDBRANCH  20  23
ENDBRANCH  10  15
BRANCH  12   4
ATOM      4  O   UNL     1      -5.733   2.399   2.090  0.00  0.00    -0.390 OA
ATOM     32  H   UNL     1      -5.489   3.314   2.311  0.00  0.00    +0.210 HD
ENDBRANCH  12   4
BRANCH   6  14
ATOM     14  C   UNL     1      -3.830  -1.162  -0.414  0.00  0.00    +0.122 C 
BRANCH  14  16
ATOM      8  N   UNL     1      -0.853  -2.469  -2.138  0.00  0.00    -0.360 N 
ATOM     16  C   UNL     1      -2.511  -1.739  -0.855  0.00  0.00    -0.008 A 
ATOM     17  C   UNL     1      -1.461  -2.193  -0.009  0.00  0.00    +0.004 A 
ATOM     18  C   UNL     1      -2.108  -1.921  -2.158  0.00  0.00    +0.088 A 
ATOM     19  C   UNL     1      -0.433  -2.645  -0.839  0.00  0.00    +0.047 A 
ATOM     21  C   UNL     1      -1.285  -2.262   1.387  0.00  0.00    +0.010 A 
ATOM     22  C   UNL     1       0.767  -3.166  -0.341  0.00  0.00    +0.026 A 
ATOM     24  C   UNL     1      -0.090  -2.781   1.900  0.00  0.00    +0.001 A 
ATOM     25  C   UNL     1       0.918  -3.225   1.048  0.00  0.00    +0.002 A 
ATOM     33  H   UNL     1      -0.313  -2.707  -2.958  0.00  0.00    +0.165 HD
ENDBRANCH  14  16
ENDBRANCH   6  14
TORSDOF 6
