REMARK  Name = 56775466
REMARK  9 active torsions:
REMARK  status: ('A' for Active; 'I' for Inactive)
REMARK    1  A    between atoms: N_4  and  C_6
REMARK    2  A    between atoms: N_4  and  C_11
REMARK    3  A    between atoms: C_6  and  C_9
REMARK    4  A    between atoms: C_9  and  C_10
REMARK    5  A    between atoms: C_11  and  C_15
REMARK    6  A    between atoms: C_12  and  C_14
REMARK    7  A    between atoms: C_12  and  C_16
REMARK    8  A    between atoms: C_12  and  C_17
REMARK    9  A    between atoms: C_12  and  C_18
REMARK                            x       y       z     vdW  Elec       q    Type
REMARK                         _______ _______ _______ _____ _____    ______ ____
ROOT
ATOM      1  O   UNL     1      -1.052  -3.482  -0.659  0.00  0.00    -0.376 OA
ATOM      6  C   UNL     1      -0.789  -1.552   0.214  0.00  0.00    +0.072 C 
ATOM      7  C   UNL     1      -1.714  -2.750   0.397  0.00  0.00    +0.184 C 
ATOM      8  C   UNL     1      -0.205  -2.347  -0.949  0.00  0.00    +0.184 C 
ENDROOT
BRANCH   6   4
ATOM      4  N   UNL     1      -1.563  -0.440  -0.320  0.00  0.00    -0.300 NA
ATOM     22  H   UNL     1      -1.015   0.270  -0.806  0.00  0.00    +0.123 HD
BRANCH   4  11
ATOM     11  C   UNL     1      -2.335   0.185   0.751  0.00  0.00    +0.156 C 
BRANCH  11  15
ATOM      3  O   UNL     1      -4.441   0.134  -0.468  0.00  0.00    -0.467 OA
ATOM     15  C   UNL     1      -3.553   0.895   0.224  0.00  0.00    +0.119 A 
ATOM     19  C   UNL     1      -3.984   2.200   0.292  0.00  0.00    +0.046 A 
ATOM     20  C   UNL     1      -5.216   2.243  -0.404  0.00  0.00    +0.041 A 
ATOM     21  C   UNL     1      -5.450   0.962  -0.847  0.00  0.00    +0.195 A 
ENDBRANCH  11  15
ENDBRANCH   4  11
ENDBRANCH   6   4
BRANCH   6   9
ATOM      9  C   UNL     1       0.131  -1.140   1.371  0.00  0.00    +0.085 C 
BRANCH   9  10
ATOM      2  O   UNL     1       2.341   1.473   0.350  0.00  0.00    -0.359 OA
ATOM      5  N   UNL     1       1.123   1.014   0.837  0.00  0.00    -0.083 NA
ATOM     10  C   UNL     1       1.251  -0.315   0.890  0.00  0.00    +0.086 A 
ATOM     13  C   UNL     1       2.515  -0.747   0.454  0.00  0.00    +0.071 A 
ATOM     14  C   UNL     1       3.162   0.415   0.126  0.00  0.00    +0.143 A 
BRANCH  14  12
ATOM     12  C   UNL     1       4.564   0.736  -0.418  0.00  0.00    +0.023 C 
ATOM     16  C   UNL     1       4.822   2.246  -0.627  0.00  0.00    +0.019 C 
ATOM     17  C   UNL     1       5.634   0.223   0.569  0.00  0.00    +0.019 C 
ATOM     18  C   UNL     1       4.761   0.046  -1.785  0.00  0.00    +0.019 C 
ENDBRANCH  14  12
ENDBRANCH   9  10
ENDBRANCH   6   9
TORSDOF 6
