REMARK  Name = 11885911
REMARK  5 active torsions:
REMARK  status: ('A' for Active; 'I' for Inactive)
REMARK    1  A    between atoms: S_1  and  C_26
REMARK    2  A    between atoms: S_1  and  C_28
REMARK    3  A    between atoms: N_7  and  C_19
REMARK    4  A    between atoms: C_18  and  C_21
REMARK    5  A    between atoms: C_23  and  C_26
REMARK                            x       y       z     vdW  Elec       q    Type
REMARK                         _______ _______ _______ _____ _____    ______ ____
ROOT
ATOM      2  O   UNL     1      -1.503   2.261  -1.435  0.00  0.00    -0.266 OA
ATOM      3  O   UNL     1       2.468  -0.874  -2.516  0.00  0.00    -0.268 OA
ATOM      5  N   UNL     1       2.987   0.275  -0.545  0.00  0.00    -0.295 N 
ATOM      6  N   UNL     1       0.346   1.956  -0.038  0.00  0.00    -0.310 N 
ATOM      9  C   UNL     1       2.701   2.744  -0.667  0.00  0.00    +0.027 C 
ATOM     10  C   UNL     1       2.330   1.574   1.467  0.00  0.00    +0.054 C 
ATOM     11  C   UNL     1       2.918   2.836   0.839  0.00  0.00    +0.018 C 
ATOM     12  C   UNL     1       3.401   1.496  -1.236  0.00  0.00    +0.113 C 
ATOM     13  C   UNL     1       1.193   2.739  -0.949  0.00  0.00    +0.130 C 
ATOM     14  C   UNL     1       3.068   0.334   0.924  0.00  0.00    +0.117 C 
ATOM     15  C   UNL     1       0.847   1.457   1.168  0.00  0.00    +0.027 A 
ATOM     16  C   UNL     1       0.027   0.845   2.040  0.00  0.00    +0.024 A 
ATOM     17  C   UNL     1      -1.012   1.824  -0.393  0.00  0.00    +0.273 A 
ATOM     18  C   UNL     1       2.538  -0.819  -1.290  0.00  0.00    +0.265 C 
ATOM     19  C   UNL     1      -1.886   1.111   0.592  0.00  0.00    +0.099 A 
ATOM     20  C   UNL     1      -1.366   0.669   1.742  0.00  0.00    +0.030 A 
ENDROOT
BRANCH  18  21
ATOM      8  N   UNL     1       0.777  -2.033  -0.242  0.00  0.00    -0.250 NA
ATOM     21  C   UNL     1       2.088  -2.009  -0.560  0.00  0.00    +0.126 A 
ATOM     22  C   UNL     1       2.989  -3.009  -0.244  0.00  0.00    +0.033 A 
ATOM     24  C   UNL     1       2.510  -4.114   0.450  0.00  0.00    +0.004 A 
ATOM     25  C   UNL     1       0.348  -3.123   0.432  0.00  0.00    +0.111 A 
ATOM     27  C   UNL     1       1.165  -4.180   0.798  0.00  0.00    +0.020 A 
ENDBRANCH  18  21
BRANCH  19   7
ATOM      4  O   UNL     1      -3.573  -1.044   1.430  0.00  0.00    -0.275 OA
ATOM      7  N   UNL     1      -3.203   0.946   0.278  0.00  0.00    -0.281 N 
ATOM     23  C   UNL     1      -3.971  -0.120   0.722  0.00  0.00    +0.227 C 
ATOM     29  H   UNL     1      -3.564   1.507  -0.490  0.00  0.00    +0.155 HD
BRANCH  23  26
ATOM     26  C   UNL     1      -5.397  -0.060   0.227  0.00  0.00    +0.164 C 
BRANCH  26   1
ATOM      1  S   UNL     1      -5.514  -0.965  -1.335  0.00  0.00    -0.155 S 
ATOM     28  C   UNL     1      -7.276  -0.719  -1.659  0.00  0.00    +0.085 C 
ENDBRANCH  26   1
ENDBRANCH  23  26
ENDBRANCH  19   7
TORSDOF 4
