REMARK  Name = 75536283
REMARK  11 active torsions:
REMARK  status: ('A' for Active; 'I' for Inactive)
REMARK    1  A    between atoms: O_2  and  C_12
REMARK    2  A    between atoms: O_5  and  C_21
REMARK    3  A    between atoms: O_5  and  C_27
REMARK    4  A    between atoms: O_6  and  C_23
REMARK    5  A    between atoms: O_6  and  C_29
REMARK    6  A    between atoms: N_7  and  C_16
REMARK    7  A    between atoms: N_9  and  C_22
REMARK    8  A    between atoms: C_10  and  C_15
REMARK    9  A    between atoms: C_11  and  C_16
REMARK   10  A    between atoms: C_15  and  C_17
REMARK   11  A    between atoms: C_20  and  C_21
REMARK                            x       y       z     vdW  Elec       q    Type
REMARK                         _______ _______ _______ _____ _____    ______ ____
ROOT
ATOM      1  O   UNL     1       2.929  -0.273   0.578  0.00  0.00    -0.369 OA
ATOM     10  C   UNL     1       3.220  -0.457  -0.810  0.00  0.00    +0.125 C 
ATOM     11  C   UNL     1       3.308   1.000   1.117  0.00  0.00    +0.164 C 
ATOM     12  C   UNL     1       4.797   1.286   0.880  0.00  0.00    +0.145 C 
ATOM     13  C   UNL     1       4.717  -0.297  -1.073  0.00  0.00    +0.034 C 
ATOM     14  C   UNL     1       5.209   1.058  -0.572  0.00  0.00    +0.036 C 
ENDROOT
BRANCH  12   2
ATOM      2  O   UNL     1       5.571   0.403   1.697  0.00  0.00    -0.389 OA
ATOM     30  H   UNL     1       6.507   0.631   1.569  0.00  0.00    +0.210 HD
ENDBRANCH  12   2
BRANCH  10  15
ATOM     15  C   UNL     1       2.748  -1.854  -1.196  0.00  0.00    +0.090 C 
BRANCH  15  17
ATOM      3  O   UNL     1      -0.850  -2.031  -1.299  0.00  0.00    -0.357 OA
ATOM      8  N   UNL     1       0.384  -1.745  -1.870  0.00  0.00    -0.083 NA
ATOM     17  C   UNL     1       1.280  -2.041  -0.923  0.00  0.00    +0.086 A 
ATOM     18  C   UNL     1       0.675  -2.513   0.255  0.00  0.00    +0.073 A 
ATOM     20  C   UNL     1      -0.664  -2.487  -0.034  0.00  0.00    +0.163 A 
BRANCH  20  21
ATOM     21  C   UNL     1      -1.873  -2.839   0.721  0.00  0.00    +0.236 C 
BRANCH  21   5
ATOM      5  O   UNL     1      -1.967  -2.044   1.906  0.00  0.00    -0.375 OA
ATOM     27  C   UNL     1      -3.130  -2.369   2.650  0.00  0.00    +0.194 C 
ENDBRANCH  21   5
ENDBRANCH  20  21
ENDBRANCH  15  17
ENDBRANCH  10  15
BRANCH  11  16
ATOM     16  C   UNL     1       2.397   2.111   0.597  0.00  0.00    +0.140 C 
BRANCH  16   7
ATOM      4  O   UNL     1       0.341   1.820  -1.376  0.00  0.00    -0.253 OA
ATOM      7  N   UNL     1       1.021   1.799   0.836  0.00  0.00    -0.297 N 
ATOM      9  N   UNL     1      -1.191   1.365   0.344  0.00  0.00    -0.266 N 
ATOM     19  C   UNL     1       0.065   1.672  -0.187  0.00  0.00    +0.304 C 
ATOM     31  H   UNL     1       0.710   1.710   1.798  0.00  0.00    +0.150 HD
ATOM     32  H   UNL     1      -1.248   1.270   1.355  0.00  0.00    +0.156 HD
BRANCH   9  22
ATOM     22  C   UNL     1      -2.403   1.159  -0.356  0.00  0.00    +0.077 A 
ATOM     23  C   UNL     1      -3.578   0.856   0.332  0.00  0.00    +0.141 A 
ATOM     24  C   UNL     1      -2.414   1.259  -1.747  0.00  0.00    +0.027 A 
ATOM     25  C   UNL     1      -4.765   0.654  -0.372  0.00  0.00    +0.047 A 
ATOM     26  C   UNL     1      -3.601   1.057  -2.451  0.00  0.00    +0.002 A 
ATOM     28  C   UNL     1      -4.777   0.754  -1.764  0.00  0.00    +0.004 A 
BRANCH  23   6
ATOM      6  O   UNL     1      -3.588   0.753   1.691  0.00  0.00    -0.493 OA
ATOM     29  C   UNL     1      -3.859   1.944   2.428  0.00  0.00    +0.277 C 
ENDBRANCH  23   6
ENDBRANCH   9  22
ENDBRANCH  16   7
ENDBRANCH  11  16
TORSDOF 9
