REMARK  Name = 51136906
REMARK  7 active torsions:
REMARK  status: ('A' for Active; 'I' for Inactive)
REMARK    1  A    between atoms: O_2  and  C_26
REMARK    2  A    between atoms: N_4  and  C_14
REMARK    3  A    between atoms: C_10  and  C_15
REMARK    4  A    between atoms: C_14  and  C_16
REMARK    5  A    between atoms: C_19  and  C_22
REMARK    6  A    between atoms: C_23  and  C_26
REMARK    7  A    between atoms: C_28  and  C_29
REMARK                            x       y       z     vdW  Elec       q    Type
REMARK                         _______ _______ _______ _____ _____    ______ ____
ROOT
ATOM      1  O   UNL     1      -2.459  -1.686   1.978  0.00  0.00    -0.336 OA
ATOM      5  N   UNL     1      -1.647  -1.236  -0.060  0.00  0.00    -0.190 NA
ATOM      6  N   UNL     1      -1.068  -1.600   2.123  0.00  0.00    -0.056 NA
ATOM     15  C   UNL     1      -2.715  -1.460   0.663  0.00  0.00    +0.245 A 
ATOM     19  C   UNL     1      -0.661  -1.333   0.879  0.00  0.00    +0.204 A 
ENDROOT
BRANCH  19  22
ATOM      7  N   UNL     1       3.031  -1.102   1.252  0.00  0.00    -0.254 NA
ATOM     22  C   UNL     1       0.722  -1.157   0.540  0.00  0.00    +0.041 A 
ATOM     24  C   UNL     1       1.109  -0.881  -0.766  0.00  0.00    +0.015 A 
ATOM     25  C   UNL     1       1.712  -1.257   1.504  0.00  0.00    +0.123 A 
ATOM     27  C   UNL     1       2.457  -0.715  -1.065  0.00  0.00    +0.029 A 
ATOM     28  C   UNL     1       3.370  -0.835  -0.030  0.00  0.00    +0.074 A 
BRANCH  28  29
ATOM      8  N   UNL     1       6.592   0.315  -1.510  0.00  0.00    -0.243 NA
ATOM      9  N   UNL     1       7.065  -1.216   0.290  0.00  0.00    -0.243 NA
ATOM     29  C   UNL     1       4.786  -0.677  -0.266  0.00  0.00    +0.037 A 
ATOM     30  C   UNL     1       5.277   0.145  -1.260  0.00  0.00    +0.124 A 
ATOM     31  C   UNL     1       5.736  -1.339   0.485  0.00  0.00    +0.124 A 
ATOM     32  C   UNL     1       7.418  -0.385  -0.709  0.00  0.00    +0.221 A 
ENDBRANCH  28  29
ENDBRANCH  19  22
BRANCH  15  10
ATOM      4  N   UNL     1      -4.440  -0.659  -0.942  0.00  0.00    -0.287 NA
ATOM     10  C   UNL     1      -4.169  -1.499   0.242  0.00  0.00    +0.146 C 
ATOM     11  C   UNL     1      -4.632  -2.910  -0.165  0.00  0.00    +0.030 C 
ATOM     12  C   UNL     1      -5.204  -2.752  -1.567  0.00  0.00    +0.017 C 
ATOM     13  C   UNL     1      -5.563  -1.282  -1.642  0.00  0.00    +0.085 C 
BRANCH   4  14
ATOM     14  C   UNL     1      -4.706   0.735  -0.609  0.00  0.00    +0.120 C 
BRANCH  14  16
ATOM     16  C   UNL     1      -3.436   1.500  -0.343  0.00  0.00    -0.033 A 
ATOM     17  C   UNL     1      -3.243   2.123   0.890  0.00  0.00    +0.006 A 
ATOM     18  C   UNL     1      -2.453   1.585  -1.329  0.00  0.00    +0.006 A 
ATOM     20  C   UNL     1      -2.068   2.832   1.136  0.00  0.00    +0.015 A 
ATOM     21  C   UNL     1      -1.278   2.294  -1.082  0.00  0.00    +0.015 A 
ATOM     23  C   UNL     1      -1.085   2.917   0.150  0.00  0.00    +0.059 A 
BRANCH  23  26
ATOM      3  O   UNL     1       0.417   4.243   1.458  0.00  0.00    -0.245 OA
ATOM     26  C   UNL     1       0.142   3.655   0.407  0.00  0.00    +0.337 C 
BRANCH  26   2
ATOM      2  O   UNL     1       0.992   3.639  -0.656  0.00  0.00    -0.477 OA
ATOM     33  H   UNL     1       1.816   4.138  -0.472  0.00  0.00    +0.295 HD
ENDBRANCH  26   2
ENDBRANCH  23  26
ENDBRANCH  14  16
ENDBRANCH   4  14
ENDBRANCH  15  10
TORSDOF 7
