REMARK  Name = 45360601
REMARK  13 active torsions:
REMARK  status: ('A' for Active; 'I' for Inactive)
REMARK    1  A    between atoms: O_2  and  C_12
REMARK    2  A    between atoms: O_3  and  C_13
REMARK    3  A    between atoms: O_5  and  C_24
REMARK    4  A    between atoms: O_5  and  C_35
REMARK    5  A    between atoms: N_8  and  C_22
REMARK    6  A    between atoms: N_9  and  C_16
REMARK    7  A    between atoms: N_10  and  C_34
REMARK    8  A    between atoms: N_10  and  C_36
REMARK    9  A    between atoms: N_10  and  C_37
REMARK   10  A    between atoms: C_11  and  C_15
REMARK   11  A    between atoms: C_14  and  C_16
REMARK   12  A    between atoms: C_15  and  C_17
REMARK   13  A    between atoms: C_23  and  C_26
REMARK                            x       y       z     vdW  Elec       q    Type
REMARK                         _______ _______ _______ _____ _____    ______ ____
ROOT
ATOM      1  O   UNL     1      -4.289   0.837   0.885  0.00  0.00    -0.366 OA
ATOM     11  C   UNL     1      -4.022   1.762  -0.193  0.00  0.00    +0.159 C 
ATOM     12  C   UNL     1      -5.026   1.440  -1.294  0.00  0.00    +0.175 C 
ATOM     13  C   UNL     1      -5.278  -0.037  -1.069  0.00  0.00    +0.176 C 
ATOM     14  C   UNL     1      -5.272  -0.118   0.449  0.00  0.00    +0.167 C 
ENDROOT
BRANCH  12   2
ATOM      2  O   UNL     1      -6.215   2.189  -1.043  0.00  0.00    -0.387 OA
ATOM     38  H   UNL     1      -6.000   3.128  -1.175  0.00  0.00    +0.210 HD
ENDBRANCH  12   2
BRANCH  13   3
ATOM      3  O   UNL     1      -6.498  -0.486  -1.618  0.00  0.00    -0.387 OA
ATOM     39  H   UNL     1      -6.480  -0.288  -2.570  0.00  0.00    +0.210 HD
ENDBRANCH  13   3
BRANCH  11  15
ATOM     15  C   UNL     1      -2.576   1.566  -0.629  0.00  0.00    +0.130 C 
BRANCH  15  17
ATOM      4  O   UNL     1      -2.117   2.850   1.315  0.00  0.00    -0.276 OA
ATOM      7  N   UNL     1      -0.282   2.108   0.098  0.00  0.00    -0.298 N 
ATOM      8  N   UNL     1       2.570   1.726  -0.220  0.00  0.00    -0.324 N 
ATOM     17  C   UNL     1      -1.647   2.234   0.355  0.00  0.00    +0.218 C 
ATOM     18  C   UNL     1       0.274   1.376  -1.043  0.00  0.00    +0.126 C 
ATOM     19  C   UNL     1       0.682   2.722   1.007  0.00  0.00    +0.126 C 
ATOM     20  C   UNL     1       1.696   1.815  -1.392  0.00  0.00    +0.124 C 
ATOM     21  C   UNL     1       1.972   1.910   1.106  0.00  0.00    +0.124 C 
BRANCH   8  22
ATOM     22  C   UNL     1       3.939   1.508  -0.358  0.00  0.00    +0.072 A 
ATOM     24  C   UNL     1       4.652   0.827   0.628  0.00  0.00    +0.141 A 
ATOM     25  C   UNL     1       4.595   1.976  -1.496  0.00  0.00    +0.027 A 
ATOM     27  C   UNL     1       6.023   0.614   0.476  0.00  0.00    +0.047 A 
ATOM     28  C   UNL     1       5.965   1.764  -1.648  0.00  0.00    +0.002 A 
ATOM     29  C   UNL     1       6.679   1.083  -0.662  0.00  0.00    +0.004 A 
BRANCH  24   5
ATOM      5  O   UNL     1       4.030   0.361   1.748  0.00  0.00    -0.493 OA
ATOM     35  C   UNL     1       4.840  -0.323   2.701  0.00  0.00    +0.277 C 
ENDBRANCH  24   5
ENDBRANCH   8  22
ENDBRANCH  15  17
ENDBRANCH  11  15
BRANCH  14  16
ATOM     16  C   UNL     1      -4.915  -1.497   0.976  0.00  0.00    +0.138 C 
BRANCH  16   9
ATOM      6  O   UNL     1      -2.428  -1.017   2.329  0.00  0.00    -0.270 OA
ATOM      9  N   UNL     1      -3.610  -1.897   0.537  0.00  0.00    -0.309 N 
ATOM     23  C   UNL     1      -2.453  -1.621   1.260  0.00  0.00    +0.244 C 
ATOM     40  H   UNL     1      -3.564  -2.449  -0.313  0.00  0.00    +0.149 HD
BRANCH  23  26
ATOM     26  C   UNL     1      -1.176  -2.081   0.657  0.00  0.00    +0.037 A 
ATOM     30  C   UNL     1      -0.084  -2.374   1.474  0.00  0.00    +0.015 A 
ATOM     31  C   UNL     1      -1.068  -2.220  -0.727  0.00  0.00    +0.015 A 
ATOM     32  C   UNL     1       1.116  -2.804   0.908  0.00  0.00    +0.024 A 
ATOM     33  C   UNL     1       0.132  -2.651  -1.294  0.00  0.00    +0.024 A 
ATOM     34  C   UNL     1       1.224  -2.943  -0.476  0.00  0.00    +0.029 A 
BRANCH  34  10
ATOM     10  N   UNL     1       2.436  -3.379  -1.050  0.00  0.00    -0.336 N 
ATOM     36  C   UNL     1       2.555  -3.533  -2.486  0.00  0.00    +0.129 C 
ATOM     37  C   UNL     1       3.577  -3.686  -0.210  0.00  0.00    +0.129 C 
ENDBRANCH  34  10
ENDBRANCH  23  26
ENDBRANCH  16   9
ENDBRANCH  14  16
TORSDOF 10
