REMARK  Name = 11865673
REMARK  8 active torsions:
REMARK  status: ('A' for Active; 'I' for Inactive)
REMARK    1  A    between atoms: O_1  and  C_17
REMARK    2  A    between atoms: O_2  and  C_18
REMARK    3  A    between atoms: N_6  and  C_10
REMARK    4  A    between atoms: N_7  and  C_16
REMARK    5  A    between atoms: N_8  and  C_24
REMARK    6  A    between atoms: C_21  and  C_23
REMARK    7  A    between atoms: C_24  and  C_25
REMARK    8  A    between atoms: C_25  and  C_26
REMARK                            x       y       z     vdW  Elec       q    Type
REMARK                         _______ _______ _______ _____ _____    ______ ____
ROOT
ATOM     16  C   UNL     1       0.217  -1.673   0.384  0.00  0.00    +0.129 C 
ATOM     17  C   UNL     1       0.441  -2.943  -0.458  0.00  0.00    +0.167 C 
ATOM     18  C   UNL     1       1.823  -3.554  -0.196  0.00  0.00    +0.149 C 
ATOM     19  C   UNL     1       2.958  -2.545  -0.441  0.00  0.00    +0.074 C 
ATOM     20  C   UNL     1       1.407  -0.751   0.400  0.00  0.00    +0.006 C 
ATOM     21  C   UNL     1       2.628  -1.154   0.019  0.00  0.00    +0.015 C 
ENDROOT
BRANCH  16   7
ATOM      3  O   UNL     1      -2.510  -2.006   1.269  0.00  0.00    -0.253 OA
ATOM      6  N   UNL     1      -3.150  -0.312  -0.182  0.00  0.00    -0.297 N 
ATOM      7  N   UNL     1      -0.939  -0.934  -0.064  0.00  0.00    -0.291 N 
ATOM     22  C   UNL     1      -2.226  -1.163   0.419  0.00  0.00    +0.300 C 
ATOM     27  H   UNL     1      -2.803   0.401  -0.815  0.00  0.00    +0.151 HD
ATOM     28  H   UNL     1      -0.821  -0.250  -0.806  0.00  0.00    +0.151 HD
BRANCH   6  10
ATOM     10  C   UNL     1      -4.561  -0.337   0.137  0.00  0.00    +0.074 C 
ATOM     11  C   UNL     1      -4.872   0.574   1.329  0.00  0.00    +0.022 C 
ATOM     12  C   UNL     1      -5.408   0.036  -1.084  0.00  0.00    +0.022 C 
ATOM     13  C   UNL     1      -4.770   2.058   0.974  0.00  0.00    +0.002 C 
ATOM     14  C   UNL     1      -5.306   1.521  -1.435  0.00  0.00    +0.002 C 
ATOM     15  C   UNL     1      -5.631   2.407  -0.237  0.00  0.00    +0.000 C 
ENDBRANCH   6  10
ENDBRANCH  16   7
BRANCH  21  23
ATOM      4  O   UNL     1       4.704  -0.361   0.783  0.00  0.00    -0.271 OA
ATOM      8  N   UNL     1       3.483   0.937  -0.719  0.00  0.00    -0.311 N 
ATOM     23  C   UNL     1       3.714  -0.170   0.078  0.00  0.00    +0.240 C 
ATOM     31  H   UNL     1       2.632   0.991  -1.272  0.00  0.00    +0.149 HD
BRANCH   8  24
ATOM     24  C   UNL     1       4.410   2.042  -0.824  0.00  0.00    +0.113 C 
BRANCH  24  25
ATOM     25  C   UNL     1       4.135   3.123   0.211  0.00  0.00    +0.114 C 
BRANCH  25  26
ATOM      5  O   UNL     1       1.935   3.423  -0.771  0.00  0.00    -0.276 OA
ATOM      9  N   UNL     1       2.531   4.719   1.032  0.00  0.00    -0.329 N 
ATOM     26  C   UNL     1       2.756   3.743   0.084  0.00  0.00    +0.212 C 
ATOM     32  H   UNL     1       1.651   5.222   1.064  0.00  0.00    +0.145 HD
ATOM     33  H   UNL     1       3.227   4.970   1.727  0.00  0.00    +0.145 HD
ENDBRANCH  25  26
ENDBRANCH  24  25
ENDBRANCH   8  24
ENDBRANCH  21  23
BRANCH  17   1
ATOM      1  O   UNL     1       0.336  -2.622  -1.847  0.00  0.00    -0.387 OA
ATOM     29  H   UNL     1       0.453  -3.448  -2.347  0.00  0.00    +0.210 HD
ENDBRANCH  17   1
BRANCH  18   2
ATOM      2  O   UNL     1       1.894  -4.056   1.137  0.00  0.00    -0.389 OA
ATOM     30  H   UNL     1       2.765  -4.473   1.248  0.00  0.00    +0.210 HD
ENDBRANCH  18   2
TORSDOF 8
