REMARK  Name = 11882967
REMARK  10 active torsions:
REMARK  status: ('A' for Active; 'I' for Inactive)
REMARK    1  A    between atoms: O_2  and  C_16
REMARK    2  A    between atoms: O_3  and  C_21
REMARK    3  A    between atoms: N_9  and  C_28
REMARK    4  A    between atoms: C_11  and  C_19
REMARK    5  A    between atoms: C_13  and  C_21
REMARK    6  A    between atoms: C_13  and  C_22
REMARK    7  A    between atoms: C_14  and  C_24
REMARK    8  A    between atoms: C_24  and  C_25
REMARK    9  A    between atoms: C_27  and  C_29
REMARK   10  A    between atoms: C_28  and  C_35
REMARK                            x       y       z     vdW  Elec       q    Type
REMARK                         _______ _______ _______ _____ _____    ______ ____
ROOT
ATOM      1  S   UNL     1       0.239  -2.689  -0.045  0.00  0.00    -0.057 S 
ATOM      5  O   UNL     1      -3.056   0.171   1.613  0.00  0.00    -0.275 OA
ATOM      8  N   UNL     1      -0.206  -0.333   0.927  0.00  0.00    -0.229 NA
ATOM     10  N   UNL     1      -2.109  -1.795   0.705  0.00  0.00    -0.264 N 
ATOM     11  C   UNL     1       3.606   0.248   0.919  0.00  0.00    -0.019 C 
ATOM     12  C   UNL     1       3.825  -0.688  -0.349  0.00  0.00    +0.011 C 
ATOM     13  C   UNL     1       5.315  -0.955  -0.793  0.00  0.00    +0.021 C 
ATOM     14  C   UNL     1       2.082   0.730   0.919  0.00  0.00    +0.054 C 
ATOM     15  C   UNL     1       4.513   1.500   0.800  0.00  0.00    +0.010 C 
ATOM     16  C   UNL     1       6.092   0.393  -0.816  0.00  0.00    +0.123 C 
ATOM     17  C   UNL     1       2.957  -1.977  -0.262  0.00  0.00    +0.049 C 
ATOM     18  C   UNL     1       5.967   1.180   0.484  0.00  0.00    +0.032 C 
ATOM     19  C   UNL     1       3.920  -0.467   2.257  0.00  0.00    +0.012 C 
ATOM     20  C   UNL     1       1.149  -0.427   0.667  0.00  0.00    +0.058 A 
ATOM     22  C   UNL     1       5.320  -1.515  -2.243  0.00  0.00    +0.016 C 
ATOM     23  C   UNL     1       1.559  -1.625   0.120  0.00  0.00    +0.015 A 
ATOM     26  C   UNL     1      -0.783  -1.468   0.598  0.00  0.00    +0.165 A 
ATOM     27  C   UNL     1      -3.143  -0.978   1.194  0.00  0.00    +0.222 C 
ATOM     45  H   UNL     1      -2.328  -2.746   0.422  0.00  0.00    +0.157 HD
ENDROOT
BRANCH  27  29
ATOM     29  C   UNL     1      -4.468  -1.678   1.156  0.00  0.00    +0.075 C 
ATOM     30  C   UNL     1      -4.793  -2.105  -0.278  0.00  0.00    +0.013 C 
ATOM     31  C   UNL     1      -5.556  -0.766   1.729  0.00  0.00    +0.013 C 
ATOM     32  C   UNL     1      -6.178  -2.738  -0.378  0.00  0.00    +0.001 C 
ATOM     33  C   UNL     1      -6.939  -1.403   1.624  0.00  0.00    +0.001 C 
ATOM     34  C   UNL     1      -7.258  -1.824   0.192  0.00  0.00    +0.000 C 
ENDBRANCH  27  29
BRANCH  16   2
ATOM      2  O   UNL     1       7.475   0.171  -1.088  0.00  0.00    -0.391 OA
ATOM     42  H   UNL     1       7.568  -0.024  -2.035  0.00  0.00    +0.210 HD
ENDBRANCH  16   2
BRANCH  13  21
ATOM     21  C   UNL     1       6.060  -2.005   0.060  0.00  0.00    +0.165 C 
BRANCH  21   3
ATOM      3  O   UNL     1       7.363  -2.139  -0.461  0.00  0.00    -0.394 OA
ATOM     43  H   UNL     1       7.338  -2.809  -1.166  0.00  0.00    +0.209 HD
ENDBRANCH  21   3
ENDBRANCH  13  21
BRANCH  14  24
ATOM     24  C   UNL     1       1.665   1.527   2.162  0.00  0.00    +0.106 C 
BRANCH  24  25
ATOM      4  O   UNL     1      -0.654   1.800   2.797  0.00  0.00    -0.276 OA
ATOM      9  N   UNL     1       0.172   2.945   0.951  0.00  0.00    -0.311 N 
ATOM     25  C   UNL     1       0.266   2.085   2.034  0.00  0.00    +0.214 C 
ATOM     44  H   UNL     1       1.004   3.169   0.413  0.00  0.00    +0.149 HD
BRANCH   9  28
ATOM     28  C   UNL     1      -1.050   3.623   0.584  0.00  0.00    +0.139 C 
BRANCH  28  35
ATOM      6  O   UNL     1      -1.465   0.708  -3.379  0.00  0.00    -0.453 OA
ATOM      7  O   UNL     1      -3.837   0.424  -3.066  0.00  0.00    -0.453 OA
ATOM     35  C   UNL     1      -1.828   2.773  -0.374  0.00  0.00    -0.027 A 
ATOM     36  C   UNL     1      -1.169   2.156  -1.436  0.00  0.00    +0.054 A 
ATOM     37  C   UNL     1      -3.209   2.611  -0.187  0.00  0.00    +0.009 A 
ATOM     38  C   UNL     1      -1.927   1.383  -2.292  0.00  0.00    +0.167 A 
ATOM     39  C   UNL     1      -3.954   1.823  -1.069  0.00  0.00    +0.050 A 
ATOM     40  C   UNL     1      -3.282   1.221  -2.113  0.00  0.00    +0.166 A 
ATOM     41  C   UNL     1      -2.681   0.102  -3.864  0.00  0.00    +0.466 C 
ENDBRANCH  28  35
ENDBRANCH   9  28
ENDBRANCH  24  25
ENDBRANCH  14  24
TORSDOF 8
