REMARK  Name = 75537021
REMARK  3 active torsions:
REMARK  status: ('A' for Active; 'I' for Inactive)
REMARK    1  A    between atoms: N_3  and  C_8
REMARK    2  A    between atoms: N_6  and  C_20
REMARK    3  A    between atoms: C_20  and  C_21
REMARK                            x       y       z     vdW  Elec       q    Type
REMARK                         _______ _______ _______ _____ _____    ______ ____
ROOT
ATOM      1  O   UNL     1       3.962  -2.362   0.472  0.00  0.00    -0.252 OA
ATOM      2  O   UNL     1      -2.888  -3.182   0.024  0.00  0.00    -0.253 OA
ATOM      3  N   UNL     1       3.205  -0.150   0.164  0.00  0.00    -0.281 N 
ATOM      4  N   UNL     1       1.686  -1.797   0.337  0.00  0.00    -0.278 N 
ATOM      5  N   UNL     1      -0.971  -1.975  -0.464  0.00  0.00    -0.282 N 
ATOM      6  N   UNL     1      -3.054  -0.902  -0.151  0.00  0.00    -0.295 N 
ATOM      7  C   UNL     1       0.899  -0.576   0.280  0.00  0.00    +0.112 C 
ATOM      9  C   UNL     1       1.926   0.501  -0.059  0.00  0.00    +0.133 C 
ATOM     12  C   UNL     1      -0.231  -0.725  -0.734  0.00  0.00    +0.133 C 
ATOM     13  C   UNL     1       3.064  -1.541   0.345  0.00  0.00    +0.305 C 
ATOM     14  C   UNL     1       1.021  -3.082   0.479  0.00  0.00    +0.128 C 
ATOM     18  C   UNL     1      -0.135  -3.185  -0.515  0.00  0.00    +0.128 C 
ATOM     19  C   UNL     1      -2.342  -2.094  -0.185  0.00  0.00    +0.303 C 
ATOM     27  H   UNL     1      -2.594  -0.015  -0.296  0.00  0.00    +0.151 HD
ENDROOT
BRANCH   3   8
ATOM      8  C   UNL     1       4.455   0.563   0.057  0.00  0.00    +0.078 C 
ATOM     10  C   UNL     1       4.598   1.569   1.202  0.00  0.00    +0.022 C 
ATOM     11  C   UNL     1       4.571   1.251  -1.306  0.00  0.00    +0.022 C 
ATOM     15  C   UNL     1       5.888   2.376   1.084  0.00  0.00    +0.002 C 
ATOM     16  C   UNL     1       5.863   2.057  -1.420  0.00  0.00    +0.002 C 
ATOM     17  C   UNL     1       6.004   3.057  -0.276  0.00  0.00    +0.000 C 
ENDBRANCH   3   8
BRANCH   6  20
ATOM     20  C   UNL     1      -4.472  -0.861   0.129  0.00  0.00    +0.141 C 
BRANCH  20  21
ATOM     21  C   UNL     1      -5.009   0.541   0.109  0.00  0.00    -0.030 A 
ATOM     22  C   UNL     1      -5.022   1.300   1.279  0.00  0.00    +0.005 A 
ATOM     23  C   UNL     1      -5.495   1.084  -1.081  0.00  0.00    +0.005 A 
ATOM     24  C   UNL     1      -5.521   2.603   1.259  0.00  0.00    +0.000 A 
ATOM     25  C   UNL     1      -5.994   2.386  -1.100  0.00  0.00    +0.000 A 
ATOM     26  C   UNL     1      -6.007   3.146   0.070  0.00  0.00    +0.000 A 
ENDBRANCH  20  21
ENDBRANCH   6  20
TORSDOF 3
