REMARK  Name = 45360651
REMARK  8 active torsions:
REMARK  status: ('A' for Active; 'I' for Inactive)
REMARK    1  A    between atoms: N_6  and  C_9
REMARK    2  A    between atoms: N_6  and  C_17
REMARK    3  A    between atoms: N_7  and  C_22
REMARK    4  A    between atoms: C_10  and  C_15
REMARK    5  A    between atoms: C_15  and  C_16
REMARK    6  A    between atoms: C_16  and  C_18
REMARK    7  A    between atoms: C_17  and  C_19
REMARK    8  A    between atoms: C_22  and  C_26
REMARK                            x       y       z     vdW  Elec       q    Type
REMARK                         _______ _______ _______ _____ _____    ______ ____
ROOT
ATOM      2  O   UNL     1      -0.158  -2.206   2.702  0.00  0.00    -0.274 OA
ATOM      4  N   UNL     1      -0.324   0.856   0.723  0.00  0.00    -0.286 NA
ATOM      5  N   UNL     1      -0.890  -0.134   3.287  0.00  0.00    -0.313 N 
ATOM      8  C   UNL     1      -0.257  -0.597   0.924  0.00  0.00    +0.145 C 
ATOM      9  C   UNL     1       1.762   0.317  -0.070  0.00  0.00    +0.070 C 
ATOM     10  C   UNL     1      -1.328   1.530   1.538  0.00  0.00    +0.075 C 
ATOM     11  C   UNL     1       1.120  -0.999   0.373  0.00  0.00    +0.048 C 
ATOM     12  C   UNL     1       1.046   1.362   0.775  0.00  0.00    +0.104 C 
ATOM     13  C   UNL     1      -1.087   1.272   3.017  0.00  0.00    +0.123 C 
ATOM     14  C   UNL     1      -0.406  -1.042   2.376  0.00  0.00    +0.230 C 
ATOM     32  H   UNL     1      -1.005  -0.448   4.245  0.00  0.00    +0.149 HD
ENDROOT
BRANCH   9   6
ATOM      6  N   UNL     1       3.207   0.330   0.094  0.00  0.00    -0.308 NA
ATOM     33  H   UNL     1       3.533   1.297   0.100  0.00  0.00    +0.123 HD
BRANCH   6  17
ATOM     17  C   UNL     1       3.863  -0.381  -0.996  0.00  0.00    +0.116 C 
BRANCH  17  19
ATOM     19  C   UNL     1       5.360  -0.391  -0.838  0.00  0.00    -0.034 A 
ATOM     20  C   UNL     1       6.127   0.634  -1.393  0.00  0.00    +0.005 A 
ATOM     21  C   UNL     1       5.981  -1.425  -0.137  0.00  0.00    +0.005 A 
ATOM     23  C   UNL     1       7.514   0.625  -1.246  0.00  0.00    +0.000 A 
ATOM     24  C   UNL     1       7.368  -1.434   0.009  0.00  0.00    +0.000 A 
ATOM     25  C   UNL     1       8.134  -0.408  -0.546  0.00  0.00    +0.000 A 
ENDBRANCH  17  19
ENDBRANCH   6  17
ENDBRANCH   9   6
BRANCH  10  15
ATOM     15  C   UNL     1      -1.418   3.029   1.250  0.00  0.00    +0.029 C 
BRANCH  15  16
ATOM     16  C   UNL     1      -1.617   3.293  -0.236  0.00  0.00    +0.097 C 
BRANCH  16  18
ATOM      3  O   UNL     1      -4.014   2.967  -0.332  0.00  0.00    -0.276 OA
ATOM      7  N   UNL     1      -2.651   1.754  -1.767  0.00  0.00    -0.311 N 
ATOM     18  C   UNL     1      -2.901   2.675  -0.760  0.00  0.00    +0.213 C 
ATOM     34  H   UNL     1      -1.696   1.549  -2.043  0.00  0.00    +0.149 HD
BRANCH   7  22
ATOM     22  C   UNL     1      -3.710   1.028  -2.428  0.00  0.00    +0.139 C 
BRANCH  22  26
ATOM      1  F   UNL     1      -4.871  -3.828   0.185  0.00  0.00    -0.205 F 
ATOM     26  C   UNL     1      -4.020  -0.270  -1.730  0.00  0.00    -0.030 A 
ATOM     27  C   UNL     1      -3.348  -1.436  -2.094  0.00  0.00    +0.008 A 
ATOM     28  C   UNL     1      -4.981  -0.305  -0.719  0.00  0.00    +0.008 A 
ATOM     29  C   UNL     1      -3.635  -2.638  -1.448  0.00  0.00    +0.038 A 
ATOM     30  C   UNL     1      -5.269  -1.507  -0.072  0.00  0.00    +0.038 A 
ATOM     31  C   UNL     1      -4.596  -2.674  -0.437  0.00  0.00    +0.123 A 
ENDBRANCH  22  26
ENDBRANCH   7  22
ENDBRANCH  16  18
ENDBRANCH  15  16
ENDBRANCH  10  15
TORSDOF 8
