REMARK  Name = 28960225
REMARK  10 active torsions:
REMARK  status: ('A' for Active; 'I' for Inactive)
REMARK    1  A    between atoms: O_3  and  C_26
REMARK    2  A    between atoms: O_3  and  C_28
REMARK    3  A    between atoms: N_5  and  C_18
REMARK    4  A    between atoms: N_5  and  C_19
REMARK    5  A    between atoms: C_7  and  C_13
REMARK    6  A    between atoms: C_8  and  C_12
REMARK    7  A    between atoms: C_12  and  C_14
REMARK    8  A    between atoms: C_13  and  C_15
REMARK    9  A    between atoms: C_17  and  C_20
REMARK   10  A    between atoms: C_18  and  C_21
REMARK                            x       y       z     vdW  Elec       q    Type
REMARK                         _______ _______ _______ _____ _____    ______ ____
ROOT
ATOM      4  N   UNL     1       1.476   3.063   0.322  0.00  0.00    -0.316 NA
ATOM      7  C   UNL     1       2.761   0.676  -0.841  0.00  0.00    +0.004 C 
ATOM      8  C   UNL     1       1.248   0.742  -0.528  0.00  0.00    +0.012 C 
ATOM      9  C   UNL     1       3.293   2.104  -1.048  0.00  0.00    +0.019 C 
ATOM     10  C   UNL     1       0.945   1.730   0.611  0.00  0.00    +0.085 C 
ATOM     11  C   UNL     1       2.920   3.038   0.103  0.00  0.00    +0.081 C 
ATOM     29  H   UNL     1       1.264   3.687   1.101  0.00  0.00    +0.122 HD
ENDROOT
BRANCH   8  12
ATOM     12  C   UNL     1       0.638  -0.628  -0.226  0.00  0.00    +0.064 C 
BRANCH  12  14
ATOM      2  O   UNL     1      -2.715  -0.850  -1.517  0.00  0.00    -0.354 OA
ATOM      6  N   UNL     1      -1.336  -0.947  -1.654  0.00  0.00    -0.083 NA
ATOM     14  C   UNL     1      -0.846  -0.629  -0.452  0.00  0.00    +0.085 A 
ATOM     16  C   UNL     1      -1.858  -0.325   0.474  0.00  0.00    +0.076 A 
ATOM     17  C   UNL     1      -3.014  -0.478  -0.245  0.00  0.00    +0.167 A 
BRANCH  17  20
ATOM     20  C   UNL     1      -4.410  -0.336   0.048  0.00  0.00    +0.020 A 
ATOM     22  C   UNL     1      -4.819   0.042   1.327  0.00  0.00    +0.015 A 
ATOM     23  C   UNL     1      -5.360  -0.576  -0.945  0.00  0.00    +0.015 A 
ATOM     24  C   UNL     1      -6.178   0.180   1.613  0.00  0.00    +0.046 A 
ATOM     25  C   UNL     1      -6.718  -0.439  -0.660  0.00  0.00    +0.046 A 
ATOM     26  C   UNL     1      -7.127  -0.061   0.619  0.00  0.00    +0.120 A 
BRANCH  26   3
ATOM      3  O   UNL     1      -8.453   0.075   0.897  0.00  0.00    -0.495 OA
ATOM     28  C   UNL     1      -9.369  -0.186  -0.165  0.00  0.00    +0.277 C 
ENDBRANCH  26   3
ENDBRANCH  17  20
ENDBRANCH  12  14
ENDBRANCH   8  12
BRANCH   7  13
ATOM     13  C   UNL     1       3.586  -0.065   0.218  0.00  0.00    +0.100 C 
BRANCH  13  15
ATOM      1  O   UNL     1       5.237  -0.345  -1.496  0.00  0.00    -0.276 OA
ATOM      5  N   UNL     1       5.734  -1.237   0.586  0.00  0.00    -0.293 N 
ATOM     15  C   UNL     1       4.919  -0.554  -0.323  0.00  0.00    +0.216 C 
ATOM     19  C   UNL     1       5.337  -1.472   1.969  0.00  0.00    +0.133 C 
BRANCH   5  18
ATOM     18  C   UNL     1       7.044  -1.768   0.218  0.00  0.00    +0.196 C 
BRANCH  18  21
ATOM     21  C   UNL     1       8.098  -0.781   0.452  0.00  0.00    -0.086 C 
ATOM     27  C   UNL     1       8.965   0.028   0.642  0.00  0.00    +0.005 C 
ENDBRANCH  18  21
ENDBRANCH   5  18
ENDBRANCH  13  15
ENDBRANCH   7  13
TORSDOF 8
