REMARK  Name = 26743431
REMARK  11 active torsions:
REMARK  status: ('A' for Active; 'I' for Inactive)
REMARK    1  A    between atoms: N_2  and  C_15
REMARK    2  A    between atoms: N_3  and  C_8
REMARK    3  A    between atoms: N_5  and  C_27
REMARK    4  A    between atoms: C_6  and  C_9
REMARK    5  A    between atoms: C_12  and  C_16
REMARK    6  A    between atoms: C_13  and  C_17
REMARK    7  A    between atoms: C_14  and  C_18
REMARK    8  A    between atoms: C_14  and  C_24
REMARK    9  A    between atoms: C_14  and  C_25
REMARK   10  A    between atoms: C_14  and  C_26
REMARK   11  A    between atoms: C_27  and  C_28
REMARK                            x       y       z     vdW  Elec       q    Type
REMARK                         _______ _______ _______ _____ _____    ______ ____
ROOT
ATOM      6  C   UNL     1       0.412  -1.058  -0.797  0.00  0.00    +0.047 C 
ATOM      7  C   UNL     1       1.464  -0.909   0.321  0.00  0.00    +0.039 C 
ATOM      8  C   UNL     1       2.696  -1.688  -0.156  0.00  0.00    +0.098 C 
ATOM     10  C   UNL     1       0.877  -2.292  -1.514  0.00  0.00    -0.021 C 
ATOM     11  C   UNL     1       2.123  -2.629  -1.165  0.00  0.00    -0.009 C 
ENDROOT
BRANCH   6   9
ATOM      2  N   UNL     1      -3.120  -0.757   0.128  0.00  0.00    -0.236 N 
ATOM      4  N   UNL     1      -2.844  -1.837   0.878  0.00  0.00    -0.171 NA
ATOM      9  C   UNL     1      -1.006  -1.127  -0.277  0.00  0.00    +0.003 A 
ATOM     12  C   UNL     1      -2.053  -0.293  -0.584  0.00  0.00    +0.046 A 
ATOM     13  C   UNL     1      -1.551  -2.058   0.627  0.00  0.00    +0.064 A 
ATOM     16  C   UNL     1      -2.123   0.881  -1.478  0.00  0.00    +0.066 C 
ATOM     17  C   UNL     1      -0.869  -3.188   1.282  0.00  0.00    +0.068 C 
BRANCH   2  15
ATOM     15  C   UNL     1      -4.409  -0.221   0.133  0.00  0.00    +0.066 A 
ATOM     18  C   UNL     1      -6.987   0.844   0.143  0.00  0.00    -0.042 A 
ATOM     20  C   UNL     1      -5.205  -0.333   1.273  0.00  0.00    +0.028 A 
ATOM     21  C   UNL     1      -4.901   0.424  -1.002  0.00  0.00    +0.028 A 
ATOM     22  C   UNL     1      -6.494   0.200   1.278  0.00  0.00    +0.006 A 
ATOM     23  C   UNL     1      -6.190   0.956  -0.997  0.00  0.00    +0.006 A 
BRANCH  18  14
ATOM     14  C   UNL     1      -8.364   1.415   0.148  0.00  0.00    -0.013 C 
ATOM     24  C   UNL     1      -8.807   2.113  -1.181  0.00  0.00    +0.015 C 
ATOM     25  C   UNL     1      -9.434   0.310   0.412  0.00  0.00    +0.015 C 
ATOM     26  C   UNL     1      -8.524   2.499   1.259  0.00  0.00    +0.015 C 
ENDBRANCH  18  14
ENDBRANCH   2  15
ENDBRANCH   6   9
BRANCH   8   3
ATOM      1  O   UNL     1       4.192   0.467   1.048  0.00  0.00    -0.253 OA
ATOM      3  N   UNL     1       3.673  -0.848  -0.795  0.00  0.00    -0.293 N 
ATOM      5  N   UNL     1       5.240   0.832  -0.989  0.00  0.00    -0.295 N 
ATOM     19  C   UNL     1       4.354   0.178  -0.136  0.00  0.00    +0.300 C 
ATOM     34  H   UNL     1       3.918  -1.025  -1.765  0.00  0.00    +0.151 HD
ATOM     35  H   UNL     1       5.323   0.509  -1.948  0.00  0.00    +0.151 HD
BRANCH   5  27
ATOM     27  C   UNL     1       6.070   1.933  -0.560  0.00  0.00    +0.141 C 
BRANCH  27  28
ATOM     28  C   UNL     1       7.397   1.466  -0.036  0.00  0.00    -0.030 A 
ATOM     29  C   UNL     1       7.547   1.167   1.318  0.00  0.00    +0.005 A 
ATOM     30  C   UNL     1       8.481   1.329  -0.904  0.00  0.00    +0.005 A 
ATOM     31  C   UNL     1       8.780   0.733   1.805  0.00  0.00    +0.000 A 
ATOM     32  C   UNL     1       9.714   0.895  -0.418  0.00  0.00    +0.000 A 
ATOM     33  C   UNL     1       9.863   0.597   0.937  0.00  0.00    +0.000 A 
ENDBRANCH  27  28
ENDBRANCH   5  27
ENDBRANCH   8   3
TORSDOF 6
