REMARK  Name = 45783352
REMARK  11 active torsions:
REMARK  status: ('A' for Active; 'I' for Inactive)
REMARK    1  A    between atoms: O_2  and  C_19
REMARK    2  A    between atoms: O_2  and  C_27
REMARK    3  A    between atoms: O_3  and  C_25
REMARK    4  A    between atoms: O_3  and  C_28
REMARK    5  A    between atoms: O_4  and  C_29
REMARK    6  A    between atoms: O_4  and  C_30
REMARK    7  A    between atoms: N_5  and  C_13
REMARK    8  A    between atoms: C_9  and  C_14
REMARK    9  A    between atoms: C_13  and  C_15
REMARK   10  A    between atoms: C_18  and  C_21
REMARK   11  A    between atoms: C_28  and  C_29
REMARK                            x       y       z     vdW  Elec       q    Type
REMARK                         _______ _______ _______ _____ _____    ______ ____
ROOT
ATOM      1  O   UNL     1      -2.810   2.224  -0.695  0.00  0.00    -0.336 OA
ATOM      6  N   UNL     1      -1.328   0.983   0.435  0.00  0.00    -0.190 NA
ATOM      7  N   UNL     1      -1.544   2.659  -1.107  0.00  0.00    -0.056 NA
ATOM     14  C   UNL     1      -2.592   1.237   0.212  0.00  0.00    +0.245 A 
ATOM     18  C   UNL     1      -0.723   1.879  -0.397  0.00  0.00    +0.202 A 
ENDROOT
BRANCH  18  21
ATOM      8  N   UNL     1       3.488   2.154  -0.682  0.00  0.00    -0.221 NA
ATOM     21  C   UNL     1       0.705   1.972  -0.493  0.00  0.00    +0.029 A 
ATOM     23  C   UNL     1       1.513   1.137   0.270  0.00  0.00    +0.079 A 
ATOM     24  C   UNL     1       1.288   2.899  -1.352  0.00  0.00    +0.031 A 
ATOM     25  C   UNL     1       2.886   1.266   0.141  0.00  0.00    +0.215 A 
ATOM     26  C   UNL     1       2.671   2.949  -1.409  0.00  0.00    +0.115 A 
BRANCH  25   3
ATOM      3  O   UNL     1       3.704   0.455   0.883  0.00  0.00    -0.474 OA
BRANCH   3  28
ATOM     28  C   UNL     1       5.105   0.629   0.711  0.00  0.00    +0.258 C 
BRANCH  28  29
ATOM     29  C   UNL     1       5.839  -0.334   1.625  0.00  0.00    +0.200 C 
BRANCH  29   4
ATOM      4  O   UNL     1       5.456  -1.665   1.301  0.00  0.00    -0.380 OA
ATOM     30  C   UNL     1       6.132  -2.614   2.115  0.00  0.00    +0.194 C 
ENDBRANCH  29   4
ENDBRANCH  28  29
ENDBRANCH   3  28
ENDBRANCH  25   3
ENDBRANCH  18  21
BRANCH  14   9
ATOM      5  N   UNL     1      -3.581  -0.800   1.244  0.00  0.00    -0.287 NA
ATOM      9  C   UNL     1      -3.822   0.592   0.816  0.00  0.00    +0.146 C 
ATOM     10  C   UNL     1      -4.309   1.314   2.086  0.00  0.00    +0.030 C 
ATOM     11  C   UNL     1      -4.367   0.235   3.159  0.00  0.00    +0.017 C 
ATOM     12  C   UNL     1      -4.487  -1.050   2.365  0.00  0.00    +0.085 C 
BRANCH   5  13
ATOM     13  C   UNL     1      -3.756  -1.770   0.171  0.00  0.00    +0.120 C 
BRANCH  13  15
ATOM     15  C   UNL     1      -2.554  -1.828  -0.733  0.00  0.00    -0.030 A 
ATOM     16  C   UNL     1      -1.301  -2.148  -0.208  0.00  0.00    +0.050 A 
ATOM     17  C   UNL     1      -2.691  -1.562  -2.096  0.00  0.00    +0.005 A 
ATOM     19  C   UNL     1      -0.187  -2.202  -1.045  0.00  0.00    +0.120 A 
ATOM     20  C   UNL     1      -1.577  -1.615  -2.933  0.00  0.00    +0.004 A 
ATOM     22  C   UNL     1      -0.325  -1.935  -2.408  0.00  0.00    +0.045 A 
BRANCH  19   2
ATOM      2  O   UNL     1       1.035  -2.513  -0.532  0.00  0.00    -0.495 OA
ATOM     27  C   UNL     1       2.132  -2.549  -1.444  0.00  0.00    +0.277 C 
ENDBRANCH  19   2
ENDBRANCH  13  15
ENDBRANCH   5  13
ENDBRANCH  14   9
TORSDOF 9
