REMARK  Name = 26743082
REMARK  7 active torsions:
REMARK  status: ('A' for Active; 'I' for Inactive)
REMARK    1  A    between atoms: S_1  and  C_20
REMARK    2  A    between atoms: S_1  and  C_24
REMARK    3  A    between atoms: C_9  and  C_15
REMARK    4  A    between atoms: C_10  and  C_14
REMARK    5  A    between atoms: C_14  and  C_16
REMARK    6  A    between atoms: C_15  and  C_17
REMARK    7  A    between atoms: C_19  and  C_20
REMARK                            x       y       z     vdW  Elec       q    Type
REMARK                         _______ _______ _______ _____ _____    ______ ____
ROOT
ATOM      5  N   UNL     1      -0.113   2.047  -0.632  0.00  0.00    -0.316 NA
ATOM      9  C   UNL     1       1.455  -0.419  -1.038  0.00  0.00    +0.004 C 
ATOM     10  C   UNL     1      -0.027  -0.434  -0.592  0.00  0.00    +0.012 C 
ATOM     11  C   UNL     1       1.741   0.893  -1.787  0.00  0.00    +0.019 C 
ATOM     12  C   UNL     1      -0.406   0.853   0.160  0.00  0.00    +0.085 C 
ATOM     13  C   UNL     1       1.300   2.124  -0.997  0.00  0.00    +0.081 C 
ATOM     30  H   UNL     1      -0.370   2.877  -0.099  0.00  0.00    +0.122 HD
ENDROOT
BRANCH  10  14
ATOM     14  C   UNL     1      -0.392  -1.667   0.235  0.00  0.00    +0.064 C 
BRANCH  14  16
ATOM      3  O   UNL     1      -3.744  -2.756  -0.498  0.00  0.00    -0.359 OA
ATOM      6  N   UNL     1      -2.379  -2.721  -0.754  0.00  0.00    -0.083 NA
ATOM     16  C   UNL     1      -1.869  -1.934   0.197  0.00  0.00    +0.084 A 
ATOM     18  C   UNL     1      -2.855  -1.447   1.073  0.00  0.00    +0.071 A 
ATOM     19  C   UNL     1      -4.015  -1.993   0.592  0.00  0.00    +0.148 A 
BRANCH  19  20
ATOM     20  C   UNL     1      -5.422  -1.917   1.005  0.00  0.00    +0.151 C 
BRANCH  20   1
ATOM      1  S   UNL     1      -6.425  -0.815  -0.053  0.00  0.00    -0.117 S 
BRANCH   1  24
ATOM     24  C   UNL     1      -5.504   0.711   0.072  0.00  0.00    +0.008 A 
ATOM     25  C   UNL     1      -5.317   1.313   1.317  0.00  0.00    +0.015 A 
ATOM     26  C   UNL     1      -4.971   1.300  -1.074  0.00  0.00    +0.015 A 
ATOM     27  C   UNL     1      -4.598   2.505   1.415  0.00  0.00    +0.001 A 
ATOM     28  C   UNL     1      -4.252   2.491  -0.977  0.00  0.00    +0.001 A 
ATOM     29  C   UNL     1      -4.066   3.094   0.268  0.00  0.00    +0.000 A 
ENDBRANCH   1  24
ENDBRANCH  20   1
ENDBRANCH  19  20
ENDBRANCH  14  16
ENDBRANCH  10  14
BRANCH   9  15
ATOM     15  C   UNL     1       2.453  -0.622   0.108  0.00  0.00    +0.100 C 
BRANCH  15  17
ATOM      2  S   UNL     1       6.870   0.700   1.966  0.00  0.00    -0.061 S 
ATOM      4  O   UNL     1       4.213  -1.022  -1.487  0.00  0.00    -0.275 OA
ATOM      7  N   UNL     1       4.730  -0.118   0.619  0.00  0.00    -0.265 N 
ATOM      8  N   UNL     1       6.937  -0.246  -0.438  0.00  0.00    -0.233 NA
ATOM     17  C   UNL     1       3.893  -0.622  -0.372  0.00  0.00    +0.219 C 
ATOM     21  C   UNL     1       6.135   0.044   0.561  0.00  0.00    +0.164 A 
ATOM     22  C   UNL     1       8.395   0.592   1.189  0.00  0.00    +0.068 A 
ATOM     23  C   UNL     1       8.233   0.068  -0.077  0.00  0.00    +0.120 A 
ATOM     31  H   UNL     1       4.325   0.173   1.505  0.00  0.00    +0.157 HD
ENDBRANCH  15  17
ENDBRANCH   9  15
TORSDOF 7
