REMARK  Name = 45783474
REMARK  9 active torsions:
REMARK  status: ('A' for Active; 'I' for Inactive)
REMARK    1  A    between atoms: O_2  and  C_27
REMARK    2  A    between atoms: O_2  and  C_28
REMARK    3  A    between atoms: N_3  and  C_9
REMARK    4  A    between atoms: N_7  and  C_25
REMARK    5  A    between atoms: N_7  and  C_26
REMARK    6  A    between atoms: C_8  and  C_9
REMARK    7  A    between atoms: C_10  and  C_19
REMARK    8  A    between atoms: C_20  and  C_21
REMARK    9  A    between atoms: C_26  and  C_27
REMARK                            x       y       z     vdW  Elec       q    Type
REMARK                         _______ _______ _______ _____ _____    ______ ____
ROOT
ATOM      1  O   UNL     1      -1.666  -2.900   1.298  0.00  0.00    -0.336 OA
ATOM      4  N   UNL     1      -1.016  -1.291  -0.118  0.00  0.00    -0.190 NA
ATOM      5  N   UNL     1      -0.275  -2.801   1.432  0.00  0.00    -0.056 NA
ATOM     19  C   UNL     1      -2.020  -1.977   0.365  0.00  0.00    +0.245 A 
ATOM     20  C   UNL     1       0.034  -1.832   0.566  0.00  0.00    +0.204 A 
ENDROOT
BRANCH  20  21
ATOM      6  N   UNL     1       3.726  -1.562   0.914  0.00  0.00    -0.240 NA
ATOM     21  C   UNL     1       1.380  -1.382   0.359  0.00  0.00    +0.041 A 
ATOM     22  C   UNL     1       1.666  -0.371  -0.552  0.00  0.00    +0.016 A 
ATOM     23  C   UNL     1       2.436  -1.940   1.061  0.00  0.00    +0.124 A 
ATOM     24  C   UNL     1       2.981   0.045  -0.731  0.00  0.00    +0.044 A 
ATOM     25  C   UNL     1       3.965  -0.577   0.019  0.00  0.00    +0.119 A 
BRANCH  25   7
ATOM      7  N   UNL     1       5.300  -0.143  -0.175  0.00  0.00    -0.327 N 
ATOM     29  H   UNL     1       6.010  -0.604   0.383  0.00  0.00    +0.148 HD
BRANCH   7  26
ATOM     26  C   UNL     1       5.648   0.888  -1.097  0.00  0.00    +0.131 C 
BRANCH  26  27
ATOM     27  C   UNL     1       7.153   1.097  -1.099  0.00  0.00    +0.178 C 
BRANCH  27   2
ATOM      2  O   UNL     1       7.576   1.505   0.196  0.00  0.00    -0.381 OA
ATOM     28  C   UNL     1       8.980   1.720   0.242  0.00  0.00    +0.194 C 
ENDBRANCH  27   2
ENDBRANCH  26  27
ENDBRANCH   7  26
ENDBRANCH  25   7
ENDBRANCH  20  21
BRANCH  19  10
ATOM      3  N   UNL     1      -3.887  -0.538  -0.431  0.00  0.00    -0.291 NA
ATOM     10  C   UNL     1      -3.495  -1.882   0.036  0.00  0.00    +0.146 C 
ATOM     13  C   UNL     1      -5.021  -0.729  -1.336  0.00  0.00    +0.085 C 
ATOM     14  C   UNL     1      -3.911  -2.830  -1.105  0.00  0.00    +0.030 C 
ATOM     15  C   UNL     1      -4.582  -1.937  -2.139  0.00  0.00    +0.017 C 
BRANCH   3   9
ATOM      9  C   UNL     1      -4.202   0.379   0.657  0.00  0.00    +0.088 C 
BRANCH   9   8
ATOM      8  C   UNL     1      -4.084   1.831   0.197  0.00  0.00    +0.003 C 
ATOM     11  C   UNL     1      -4.392   2.792   1.352  0.00  0.00    +0.005 C 
ATOM     12  C   UNL     1      -2.690   2.104  -0.384  0.00  0.00    +0.005 C 
ATOM     16  C   UNL     1      -4.229   4.251   0.931  0.00  0.00    +0.000 C 
ATOM     17  C   UNL     1      -2.530   3.563  -0.803  0.00  0.00    +0.000 C 
ATOM     18  C   UNL     1      -2.845   4.516   0.346  0.00  0.00    +0.000 C 
ENDBRANCH   9   8
ENDBRANCH   3   9
ENDBRANCH  19  10
TORSDOF 8
