REMARK  Name = 75536304
REMARK  6 active torsions:
REMARK  status: ('A' for Active; 'I' for Inactive)
REMARK    1  A    between atoms: O_2  and  C_10
REMARK    2  A    between atoms: N_6  and  C_14
REMARK    3  A    between atoms: C_9  and  C_14
REMARK    4  A    between atoms: C_11  and  C_15
REMARK    5  A    between atoms: C_15  and  C_16
REMARK    6  A    between atoms: C_23  and  C_24
REMARK                            x       y       z     vdW  Elec       q    Type
REMARK                         _______ _______ _______ _____ _____    ______ ____
ROOT
ATOM      1  O   UNL     1       2.762   0.493  -0.700  0.00  0.00    -0.369 OA
ATOM      9  C   UNL     1       3.452  -0.712  -0.342  0.00  0.00    +0.164 C 
ATOM     10  C   UNL     1       4.959  -0.468  -0.189  0.00  0.00    +0.145 C 
ATOM     11  C   UNL     1       2.965   1.595   0.188  0.00  0.00    +0.125 C 
ATOM     12  C   UNL     1       5.266   0.732   0.701  0.00  0.00    +0.036 C 
ATOM     13  C   UNL     1       4.448   1.949   0.279  0.00  0.00    +0.034 C 
ENDROOT
BRANCH  10   2
ATOM      2  O   UNL     1       5.517  -0.208  -1.480  0.00  0.00    -0.389 OA
ATOM     31  H   UNL     1       6.478  -0.103  -1.369  0.00  0.00    +0.210 HD
ENDBRANCH  10   2
BRANCH   9  14
ATOM     14  C   UNL     1       2.825  -1.361   0.890  0.00  0.00    +0.140 C 
BRANCH  14   6
ATOM      3  O   UNL     1      -3.274  -3.270   0.302  0.00  0.00    -0.377 OA
ATOM      5  O   UNL     1       1.632  -3.665  -0.201  0.00  0.00    -0.253 OA
ATOM      6  N   UNL     1       1.407  -1.567   0.701  0.00  0.00    -0.297 N 
ATOM      7  N   UNL     1      -0.503  -2.787   0.028  0.00  0.00    -0.281 N 
ATOM     17  C   UNL     1       0.896  -2.738   0.154  0.00  0.00    +0.302 C 
ATOM     18  C   UNL     1      -1.127  -3.982  -0.546  0.00  0.00    +0.137 C 
ATOM     19  C   UNL     1      -1.436  -1.680   0.281  0.00  0.00    +0.137 C 
ATOM     21  C   UNL     1      -2.372  -4.375   0.233  0.00  0.00    +0.179 C 
ATOM     22  C   UNL     1      -2.683  -2.176   1.004  0.00  0.00    +0.179 C 
ATOM     30  H   UNL     1       0.808  -0.799   0.970  0.00  0.00    +0.150 HD
ENDBRANCH  14   6
ENDBRANCH   9  14
BRANCH  11  15
ATOM     15  C   UNL     1       2.158   2.771  -0.350  0.00  0.00    +0.090 C 
BRANCH  15  16
ATOM      4  O   UNL     1      -1.146   2.851   1.088  0.00  0.00    -0.354 OA
ATOM      8  N   UNL     1       0.212   3.147   1.108  0.00  0.00    -0.083 NA
ATOM     16  C   UNL     1       0.694   2.637  -0.029  0.00  0.00    +0.087 A 
ATOM     20  C   UNL     1      -0.303   2.013  -0.799  0.00  0.00    +0.076 A 
ATOM     23  C   UNL     1      -1.440   2.176  -0.053  0.00  0.00    +0.167 A 
BRANCH  23  24
ATOM     24  C   UNL     1      -2.815   1.802  -0.218  0.00  0.00    +0.020 A 
ATOM     25  C   UNL     1      -3.216   1.107  -1.359  0.00  0.00    +0.011 A 
ATOM     26  C   UNL     1      -3.750   2.132   0.763  0.00  0.00    +0.011 A 
ATOM     27  C   UNL     1      -4.553   0.743  -1.519  0.00  0.00    +0.001 A 
ATOM     28  C   UNL     1      -5.087   1.768   0.603  0.00  0.00    +0.001 A 
ATOM     29  C   UNL     1      -5.489   1.073  -0.538  0.00  0.00    +0.000 A 
ENDBRANCH  23  24
ENDBRANCH  15  16
ENDBRANCH  11  15
TORSDOF 6
