REMARK  Name = 7687186
REMARK  3 active torsions:
REMARK  status: ('A' for Active; 'I' for Inactive)
REMARK    1  A    between atoms: C_15  and  C_20
REMARK    2  A    between atoms: C_17  and  C_21
REMARK    3  A    between atoms: C_28  and  C_30
REMARK                            x       y       z     vdW  Elec       q    Type
REMARK                         _______ _______ _______ _____ _____    ______ ____
ROOT
ATOM      1  O   UNL     1      -3.077   1.093  -2.989  0.00  0.00    -0.268 OA
ATOM      2  O   UNL     1      -0.410   3.792   0.349  0.00  0.00    -0.270 OA
ATOM      3  N   UNL     1      -1.000   1.810   1.440  0.00  0.00    -0.297 N 
ATOM      4  N   UNL     1      -2.453   0.260  -0.891  0.00  0.00    -0.311 N 
ATOM      8  C   UNL     1      -3.411   1.248   1.276  0.00  0.00    +0.027 C 
ATOM      9  C   UNL     1      -1.747  -0.561   1.376  0.00  0.00    +0.054 C 
ATOM     10  C   UNL     1      -3.133  -0.130   1.855  0.00  0.00    +0.018 C 
ATOM     11  C   UNL     1      -2.355   2.260   1.753  0.00  0.00    +0.113 C 
ATOM     12  C   UNL     1      -3.446   1.135  -0.249  0.00  0.00    +0.130 C 
ATOM     13  C   UNL     1      -0.689   0.444   1.884  0.00  0.00    +0.117 C 
ATOM     14  C   UNL     1      -1.683  -0.661  -0.152  0.00  0.00    +0.034 A 
ATOM     15  C   UNL     1      -0.900  -1.564  -0.802  0.00  0.00    +0.005 A 
ATOM     16  C   UNL     1      -2.417   0.319  -2.296  0.00  0.00    +0.252 A 
ATOM     17  C   UNL     1      -0.147   2.649   0.719  0.00  0.00    +0.247 C 
ATOM     18  C   UNL     1      -0.836  -1.527  -2.252  0.00  0.00    +0.015 A 
ATOM     19  C   UNL     1      -1.524  -0.645  -2.975  0.00  0.00    +0.071 A 
ENDROOT
BRANCH  15  20
ATOM      5  N   UNL     1       1.898  -3.152   1.047  0.00  0.00    -0.243 NA
ATOM      6  N   UNL     1       0.060  -4.705   0.925  0.00  0.00    -0.243 NA
ATOM     20  C   UNL     1      -0.130  -2.533  -0.069  0.00  0.00    +0.020 A 
ATOM     22  C   UNL     1       1.148  -2.267   0.358  0.00  0.00    +0.122 A 
ATOM     23  C   UNL     1      -0.634  -3.772   0.240  0.00  0.00    +0.122 A 
ATOM     29  C   UNL     1       1.301  -4.333   1.293  0.00  0.00    +0.221 A 
ENDBRANCH  15  20
BRANCH  17  21
ATOM     21  C   UNL     1       1.177   2.137   0.344  0.00  0.00    +0.037 A 
ATOM     24  C   UNL     1       1.344   1.472  -0.869  0.00  0.00    +0.014 A 
ATOM     25  C   UNL     1       2.259   2.319   1.201  0.00  0.00    +0.014 A 
ATOM     26  C   UNL     1       2.601   0.986  -1.226  0.00  0.00    +0.019 A 
ATOM     27  C   UNL     1       3.516   1.832   0.844  0.00  0.00    +0.019 A 
ATOM     28  C   UNL     1       3.687   1.165  -0.369  0.00  0.00    +0.052 A 
BRANCH  28  30
ATOM      7  N   UNL     1       6.024   0.263  -1.031  0.00  0.00    -0.191 NA
ATOM     30  C   UNL     1       4.976   0.668  -0.734  0.00  0.00    +0.099 C 
ENDBRANCH  28  30
ENDBRANCH  17  21
TORSDOF 3
