REMARK  Name = 75536690
REMARK  8 active torsions:
REMARK  status: ('A' for Active; 'I' for Inactive)
REMARK    1  A    between atoms: S_1  and  N_7
REMARK    2  A    between atoms: S_1  and  C_17
REMARK    3  A    between atoms: O_3  and  C_11
REMARK    4  A    between atoms: N_6  and  C_10
REMARK    5  A    between atoms: N_6  and  C_15
REMARK    6  A    between atoms: N_7  and  C_14
REMARK    7  A    between atoms: C_12  and  C_14
REMARK    8  A    between atoms: C_15  and  C_16
REMARK                            x       y       z     vdW  Elec       q    Type
REMARK                         _______ _______ _______ _____ _____    ______ ____
ROOT
ATOM      2  O   UNL     1      -0.215  -1.299   1.269  0.00  0.00    -0.371 OA
ATOM     10  C   UNL     1      -2.157  -0.971  -0.058  0.00  0.00    +0.111 C 
ATOM     11  C   UNL     1      -0.939  -0.520  -0.843  0.00  0.00    +0.164 C 
ATOM     12  C   UNL     1       0.172  -1.265  -0.115  0.00  0.00    +0.164 C 
ATOM     13  C   UNL     1      -1.614  -0.978   1.362  0.00  0.00    +0.181 C 
ENDROOT
BRANCH  11   3
ATOM      3  O   UNL     1      -1.007  -0.879  -2.209  0.00  0.00    -0.388 OA
ATOM     27  H   UNL     1      -1.129  -1.842  -2.267  0.00  0.00    +0.210 HD
ENDBRANCH  11   3
BRANCH  10   6
ATOM      6  N   UNL     1      -3.310  -0.100  -0.218  0.00  0.00    -0.304 NA
ATOM     25  H   UNL     1      -3.424   0.120  -1.208  0.00  0.00    +0.123 HD
BRANCH   6  15
ATOM     15  C   UNL     1      -4.525  -0.742   0.268  0.00  0.00    +0.136 C 
BRANCH  15  16
ATOM      8  N   UNL     1      -6.498   0.530   1.188  0.00  0.00    -0.347 N 
ATOM      9  N   UNL     1      -7.409   1.490  -0.595  0.00  0.00    -0.244 NA
ATOM     16  C   UNL     1      -5.728   0.152   0.125  0.00  0.00    +0.049 A 
ATOM     18  C   UNL     1      -6.310   0.757  -0.964  0.00  0.00    +0.134 A 
ATOM     21  C   UNL     1      -7.495   1.333   0.707  0.00  0.00    +0.196 A 
ATOM     28  H   UNL     1      -6.360   0.267   2.155  0.00  0.00    +0.167 HD
ENDBRANCH  15  16
ENDBRANCH   6  15
ENDBRANCH  10   6
BRANCH  12  14
ATOM     14  C   UNL     1       1.530  -0.601  -0.252  0.00  0.00    +0.140 C 
BRANCH  14   7
ATOM      7  N   UNL     1       2.542  -1.386   0.482  0.00  0.00    -0.187 NA
ATOM     26  H   UNL     1       2.361  -1.520   1.484  0.00  0.00    +0.148 HD
BRANCH   7   1
ATOM      1  S   UNL     1       4.153  -1.420  -0.062  0.00  0.00    +0.058 S 
ATOM      4  O   UNL     1       4.182  -1.827  -1.454  0.00  0.00    -0.153 OA
ATOM      5  O   UNL     1       4.968  -2.112   0.917  0.00  0.00    -0.153 OA
BRANCH   1  17
ATOM     17  C   UNL     1       4.597   0.290   0.014  0.00  0.00    +0.105 A 
ATOM     19  C   UNL     1       5.152   0.815   1.181  0.00  0.00    +0.028 A 
ATOM     20  C   UNL     1       4.388   1.115  -1.091  0.00  0.00    +0.028 A 
ATOM     22  C   UNL     1       5.499   2.164   1.242  0.00  0.00    +0.002 A 
ATOM     23  C   UNL     1       4.734   2.464  -1.030  0.00  0.00    +0.002 A 
ATOM     24  C   UNL     1       5.290   2.989   0.137  0.00  0.00    +0.000 A 
ENDBRANCH   1  17
ENDBRANCH   7   1
ENDBRANCH  14   7
ENDBRANCH  12  14
TORSDOF 8
