REMARK  Name = 28960004
REMARK  8 active torsions:
REMARK  status: ('A' for Active; 'I' for Inactive)
REMARK    1  A    between atoms: O_2  and  C_27
REMARK    2  A    between atoms: N_6  and  C_15
REMARK    3  A    between atoms: N_7  and  C_18
REMARK    4  A    between atoms: N_8  and  C_24
REMARK    5  A    between atoms: C_10  and  C_12
REMARK    6  A    between atoms: C_11  and  C_17
REMARK    7  A    between atoms: C_12  and  C_15
REMARK    8  A    between atoms: C_17  and  C_27
REMARK                            x       y       z     vdW  Elec       q    Type
REMARK                         _______ _______ _______ _____ _____    ______ ____
ROOT
ATOM      1  O   UNL     1       4.645   2.385   1.695  0.00  0.00    -0.253 OA
ATOM      5  N   UNL     1       4.612   0.764   0.037  0.00  0.00    -0.285 N 
ATOM      8  N   UNL     1       3.286   2.715  -0.123  0.00  0.00    -0.296 N 
ATOM     10  C   UNL     1       3.484  -1.163  -1.041  0.00  0.00    +0.011 C 
ATOM     11  C   UNL     1       4.452  -2.109  -0.282  0.00  0.00    +0.006 C 
ATOM     13  C   UNL     1       4.155   0.207  -1.245  0.00  0.00    +0.113 C 
ATOM     14  C   UNL     1       4.986  -1.464   1.009  0.00  0.00    +0.023 C 
ATOM     16  C   UNL     1       5.578  -0.081   0.740  0.00  0.00    +0.109 C 
ATOM     23  C   UNL     1       4.213   1.982   0.609  0.00  0.00    +0.302 C 
ATOM     38  H   UNL     1       2.825   2.306  -0.922  0.00  0.00    +0.151 HD
ENDROOT
BRANCH   8  24
ATOM     24  C   UNL     1       2.773   3.986   0.339  0.00  0.00    +0.074 C 
ATOM     25  C   UNL     1       2.462   4.914  -0.840  0.00  0.00    +0.022 C 
ATOM     26  C   UNL     1       1.543   3.792   1.232  0.00  0.00    +0.022 C 
ATOM     28  C   UNL     1       1.228   4.470  -1.625  0.00  0.00    +0.002 C 
ATOM     29  C   UNL     1       0.311   3.349   0.443  0.00  0.00    +0.002 C 
ATOM     30  C   UNL     1       0.015   4.294  -0.717  0.00  0.00    +0.000 C 
ENDBRANCH   8  24
BRANCH  10  12
ATOM     12  C   UNL     1       2.118  -0.994  -0.366  0.00  0.00    +0.020 C 
BRANCH  12  15
ATOM     15  C   UNL     1       1.051  -0.617  -1.383  0.00  0.00    +0.085 C 
BRANCH  15   6
ATOM      6  N   UNL     1      -0.238  -0.445  -0.713  0.00  0.00    -0.302 NA
ATOM     18  C   UNL     1      -3.148  -0.636  -0.480  0.00  0.00    +0.095 C 
ATOM     19  C   UNL     1      -0.881  -1.747  -0.493  0.00  0.00    +0.086 C 
ATOM     20  C   UNL     1      -1.105   0.452  -1.489  0.00  0.00    +0.086 C 
ATOM     21  C   UNL     1      -2.205  -1.589   0.256  0.00  0.00    +0.040 C 
ATOM     22  C   UNL     1      -2.438   0.685  -0.776  0.00  0.00    +0.040 C 
BRANCH  18   7
ATOM      4  O   UNL     1      -3.493   0.573   2.260  0.00  0.00    -0.247 OA
ATOM      7  N   UNL     1      -4.355  -0.413   0.276  0.00  0.00    -0.289 N 
ATOM      9  N   UNL     1      -5.800   0.187   1.914  0.00  0.00    -0.306 N 
ATOM     31  C   UNL     1      -5.649  -0.735  -0.150  0.00  0.00    +0.070 A 
ATOM     32  C   UNL     1      -4.418   0.168   1.571  0.00  0.00    +0.328 A 
ATOM     33  C   UNL     1      -6.533  -0.363   0.862  0.00  0.00    +0.067 A 
ATOM     34  C   UNL     1      -6.096  -1.310  -1.321  0.00  0.00    +0.028 A 
ATOM     35  C   UNL     1      -7.894  -0.546   0.758  0.00  0.00    +0.028 A 
ATOM     36  C   UNL     1      -7.475  -1.506  -1.450  0.00  0.00    +0.002 A 
ATOM     37  C   UNL     1      -8.364  -1.128  -0.422  0.00  0.00    +0.002 A 
ATOM     39  H   UNL     1      -6.198   0.538   2.776  0.00  0.00    +0.170 HD
ENDBRANCH  18   7
ENDBRANCH  15   6
ENDBRANCH  12  15
ENDBRANCH  10  12
BRANCH  11  17
ATOM     17  C   UNL     1       3.843  -3.479   0.012  0.00  0.00    +0.124 C 
BRANCH  17  27
ATOM      3  O   UNL     1       6.112  -4.350   0.191  0.00  0.00    -0.251 OA
ATOM     27  C   UNL     1       4.903  -4.523   0.229  0.00  0.00    +0.305 C 
BRANCH  27   2
ATOM      2  O   UNL     1       4.320  -5.723   0.481  0.00  0.00    -0.481 OA
ATOM     40  H   UNL     1       4.985  -6.429   0.628  0.00  0.00    +0.295 HD
ENDBRANCH  27   2
ENDBRANCH  17  27
ENDBRANCH  11  17
TORSDOF 8
