REMARK  Name = 56775394
REMARK  14 active torsions:
REMARK  status: ('A' for Active; 'I' for Inactive)
REMARK    1  A    between atoms: O_3  and  C_19
REMARK    2  A    between atoms: O_3  and  C_31
REMARK    3  A    between atoms: O_4  and  C_20
REMARK    4  A    between atoms: O_4  and  C_32
REMARK    5  A    between atoms: O_5  and  C_30
REMARK    6  A    between atoms: N_6  and  C_8
REMARK    7  A    between atoms: N_6  and  C_12
REMARK    8  A    between atoms: N_6  and  C_13
REMARK    9  A    between atoms: C_8  and  C_11
REMARK   10  A    between atoms: C_11  and  C_14
REMARK   11  A    between atoms: C_12  and  C_15
REMARK   12  A    between atoms: C_13  and  C_16
REMARK   13  A    between atoms: C_18  and  C_23
REMARK   14  A    between atoms: C_23  and  C_30
REMARK                            x       y       z     vdW  Elec       q    Type
REMARK                         _______ _______ _______ _____ _____    ______ ____
ROOT
ATOM      6  N   UNL     1       0.275  -0.102  -0.171  0.00  0.00    -0.284 NA
ENDROOT
BRANCH   6   8
ATOM      1  O   UNL     1      -1.840   0.456   1.939  0.00  0.00    -0.376 OA
ATOM      8  C   UNL     1      -1.191  -0.045  -0.032  0.00  0.00    +0.075 C 
ATOM      9  C   UNL     1      -1.593  -0.785   1.239  0.00  0.00    +0.184 C 
ATOM     10  C   UNL     1      -1.563   1.216   0.740  0.00  0.00    +0.184 C 
BRANCH   8  11
ATOM     11  C   UNL     1      -1.910  -0.352  -1.310  0.00  0.00    +0.085 C 
BRANCH  11  14
ATOM      2  O   UNL     1      -5.267  -1.493  -0.613  0.00  0.00    -0.359 OA
ATOM      7  N   UNL     1      -3.903  -1.706  -0.772  0.00  0.00    -0.083 NA
ATOM     14  C   UNL     1      -3.397  -0.505  -1.067  0.00  0.00    +0.086 A 
ATOM     17  C   UNL     1      -4.385   0.494  -1.108  0.00  0.00    +0.071 A 
ATOM     18  C   UNL     1      -5.542  -0.179  -0.815  0.00  0.00    +0.140 A 
BRANCH  18  23
ATOM     23  C   UNL     1      -6.947   0.224  -0.684  0.00  0.00    +0.105 C 
BRANCH  23  30
ATOM     30  C   UNL     1      -7.423   0.353   0.775  0.00  0.00    +0.163 C 
BRANCH  30   5
ATOM      5  O   UNL     1      -6.619   1.313   1.448  0.00  0.00    -0.395 OA
ATOM     33  H   UNL     1      -6.948   1.370   2.362  0.00  0.00    +0.209 HD
ENDBRANCH  30   5
ENDBRANCH  23  30
ENDBRANCH  18  23
ENDBRANCH  11  14
ENDBRANCH   8  11
ENDBRANCH   6   8
BRANCH   6  12
ATOM     12  C   UNL     1       0.678  -1.481  -0.439  0.00  0.00    +0.124 C 
BRANCH  12  15
ATOM     15  C   UNL     1       2.131  -1.712  -0.120  0.00  0.00    +0.008 A 
ATOM     19  C   UNL     1       2.623  -1.486   1.165  0.00  0.00    +0.124 A 
ATOM     21  C   UNL     1       2.988  -2.157  -1.126  0.00  0.00    +0.008 A 
ATOM     24  C   UNL     1       3.972  -1.705   1.444  0.00  0.00    +0.046 A 
ATOM     26  C   UNL     1       4.338  -2.376  -0.848  0.00  0.00    +0.001 A 
ATOM     28  C   UNL     1       4.830  -2.150   0.438  0.00  0.00    +0.004 A 
BRANCH  19   3
ATOM      3  O   UNL     1       1.800  -1.051   2.160  0.00  0.00    -0.495 OA
ATOM     31  C   UNL     1       2.388  -0.846   3.444  0.00  0.00    +0.277 C 
ENDBRANCH  19   3
ENDBRANCH  12  15
ENDBRANCH   6  12
BRANCH   6  13
ATOM     13  C   UNL     1       0.687   0.778  -1.264  0.00  0.00    +0.124 C 
BRANCH  13  16
ATOM     16  C   UNL     1       2.142   1.150  -1.165  0.00  0.00    +0.008 A 
ATOM     20  C   UNL     1       2.573   2.102  -0.241  0.00  0.00    +0.124 A 
ATOM     22  C   UNL     1       3.063   0.533  -2.011  0.00  0.00    +0.008 A 
ATOM     25  C   UNL     1       3.925   2.436  -0.163  0.00  0.00    +0.046 A 
ATOM     27  C   UNL     1       4.415   0.867  -1.933  0.00  0.00    +0.001 A 
ATOM     29  C   UNL     1       4.846   1.818  -1.009  0.00  0.00    +0.004 A 
BRANCH  20   4
ATOM      4  O   UNL     1       1.687   2.716   0.592  0.00  0.00    -0.495 OA
ATOM     32  C   UNL     1       2.215   3.676   1.505  0.00  0.00    +0.277 C 
ENDBRANCH  20   4
ENDBRANCH  13  16
ENDBRANCH   6  13
TORSDOF 12
