REMARK  Name = 40779497
REMARK  10 active torsions:
REMARK  status: ('A' for Active; 'I' for Inactive)
REMARK    1  A    between atoms: O_3  and  C_27
REMARK    2  A    between atoms: O_3  and  C_32
REMARK    3  A    between atoms: O_4  and  C_29
REMARK    4  A    between atoms: O_4  and  C_33
REMARK    5  A    between atoms: N_6  and  C_20
REMARK    6  A    between atoms: N_7  and  C_17
REMARK    7  A    between atoms: C_10  and  C_16
REMARK    8  A    between atoms: C_11  and  C_17
REMARK    9  A    between atoms: C_19  and  C_22
REMARK   10  A    between atoms: C_21  and  C_23
REMARK                            x       y       z     vdW  Elec       q    Type
REMARK                         _______ _______ _______ _____ _____    ______ ____
ROOT
ATOM      5  N   UNL     1      -2.547  -2.635   1.457  0.00  0.00    -0.297 NA
ATOM      9  C   UNL     1      -1.636  -2.912  -0.968  0.00  0.00    +0.002 C 
ATOM     10  C   UNL     1      -0.496  -3.118   0.068  0.00  0.00    +0.055 C 
ATOM     11  C   UNL     1      -2.971  -1.482   0.620  0.00  0.00    +0.074 C 
ATOM     12  C   UNL     1      -2.273  -1.522  -0.756  0.00  0.00    +0.024 C 
ATOM     13  C   UNL     1      -2.723  -3.961  -0.648  0.00  0.00    +0.019 C 
ATOM     14  C   UNL     1      -1.066  -2.740   1.466  0.00  0.00    +0.094 C 
ATOM     15  C   UNL     1      -3.094  -3.868   0.842  0.00  0.00    +0.085 C 
ENDROOT
BRANCH  10  16
ATOM      6  N   UNL     1       1.845  -3.068  -0.909  0.00  0.00    -0.270 N 
ATOM      8  N   UNL     1       2.954  -2.320  -1.038  0.00  0.00    -0.171 NA
ATOM     16  C   UNL     1       0.849  -2.459  -0.204  0.00  0.00    +0.044 A 
ATOM     18  C   UNL     1       1.341  -1.228   0.155  0.00  0.00    +0.053 A 
ATOM     19  C   UNL     1       2.640  -1.197  -0.386  0.00  0.00    +0.093 A 
ATOM     20  C   UNL     1       1.810  -4.386  -1.500  0.00  0.00    +0.172 C 
BRANCH  19  22
ATOM     22  C   UNL     1       3.587  -0.117  -0.290  0.00  0.00    +0.006 A 
ATOM     24  C   UNL     1       3.572   0.727   0.820  0.00  0.00    +0.059 A 
ATOM     25  C   UNL     1       4.519   0.086  -1.308  0.00  0.00    +0.014 A 
ATOM     27  C   UNL     1       4.489   1.774   0.913  0.00  0.00    +0.162 A 
ATOM     28  C   UNL     1       5.436   1.133  -1.216  0.00  0.00    +0.050 A 
ATOM     29  C   UNL     1       5.421   1.977  -0.105  0.00  0.00    +0.162 A 
BRANCH  27   3
ATOM      3  O   UNL     1       4.466   2.592   2.002  0.00  0.00    -0.491 OA
ATOM     32  C   UNL     1       3.482   2.316   2.998  0.00  0.00    +0.277 C 
ENDBRANCH  27   3
BRANCH  29   4
ATOM      4  O   UNL     1       6.322   2.995  -0.026  0.00  0.00    -0.491 OA
ATOM     33  C   UNL     1       7.241   3.134  -1.109  0.00  0.00    +0.277 C 
ENDBRANCH  29   4
ENDBRANCH  19  22
ENDBRANCH  10  16
BRANCH  11  17
ATOM     17  C   UNL     1      -2.762  -0.141   1.327  0.00  0.00    +0.123 C 
BRANCH  17   7
ATOM      2  O   UNL     1      -5.429   0.917   1.434  0.00  0.00    -0.270 OA
ATOM      7  N   UNL     1      -3.285   0.936   0.544  0.00  0.00    -0.309 N 
ATOM     21  C   UNL     1      -4.599   1.388   0.661  0.00  0.00    +0.251 C 
ATOM     34  H   UNL     1      -2.657   1.369  -0.123  0.00  0.00    +0.149 HD
BRANCH  21  23
ATOM      1  S   UNL     1      -6.594   3.109  -0.159  0.00  0.00    -0.092 S 
ATOM     23  C   UNL     1      -4.996   2.498  -0.242  0.00  0.00    +0.074 A 
ATOM     26  C   UNL     1      -4.241   3.153  -1.191  0.00  0.00    +0.021 A 
ATOM     30  C   UNL     1      -4.984   4.169  -1.858  0.00  0.00    +0.008 A 
ATOM     31  C   UNL     1      -6.279   4.253  -1.394  0.00  0.00    +0.046 A 
ENDBRANCH  21  23
ENDBRANCH  17   7
ENDBRANCH  11  17
TORSDOF 7
