REMARK  Name = 7135019
REMARK  11 active torsions:
REMARK  status: ('A' for Active; 'I' for Inactive)
REMARK    1  A    between atoms: O_2  and  C_14
REMARK    2  A    between atoms: O_3  and  C_19
REMARK    3  A    between atoms: N_7  and  C_25
REMARK    4  A    between atoms: C_9  and  C_17
REMARK    5  A    between atoms: C_11  and  C_19
REMARK    6  A    between atoms: C_11  and  C_20
REMARK    7  A    between atoms: C_12  and  C_22
REMARK    8  A    between atoms: C_22  and  C_23
REMARK    9  A    between atoms: C_25  and  C_33
REMARK   10  A    between atoms: C_25  and  C_34
REMARK   11  A    between atoms: C_26  and  C_27
REMARK                            x       y       z     vdW  Elec       q    Type
REMARK                         _______ _______ _______ _____ _____    ______ ____
ROOT
ATOM      1  S   UNL     1      -0.098  -2.935   0.495  0.00  0.00    -0.057 S 
ATOM      5  O   UNL     1      -3.811  -0.123   0.203  0.00  0.00    -0.275 OA
ATOM      6  N   UNL     1      -0.859  -0.483   0.172  0.00  0.00    -0.229 NA
ATOM      8  N   UNL     1      -2.594  -2.133   0.454  0.00  0.00    -0.264 N 
ATOM      9  C   UNL     1       2.851   0.553   0.326  0.00  0.00    -0.019 C 
ATOM     10  C   UNL     1       3.343  -0.821  -0.309  0.00  0.00    +0.011 C 
ATOM     11  C   UNL     1       4.901  -1.051  -0.399  0.00  0.00    +0.021 C 
ATOM     12  C   UNL     1       1.319   0.763  -0.078  0.00  0.00    +0.054 C 
ATOM     13  C   UNL     1       3.678   1.722  -0.269  0.00  0.00    +0.010 C 
ATOM     14  C   UNL     1       5.576   0.228  -0.970  0.00  0.00    +0.123 C 
ATOM     15  C   UNL     1       2.563  -2.032   0.280  0.00  0.00    +0.049 C 
ATOM     16  C   UNL     1       5.183   1.499  -0.226  0.00  0.00    +0.032 C 
ATOM     17  C   UNL     1       2.986   0.585   1.869  0.00  0.00    +0.012 C 
ATOM     18  C   UNL     1       0.523  -0.497   0.145  0.00  0.00    +0.058 A 
ATOM     20  C   UNL     1       5.186  -2.210  -1.396  0.00  0.00    +0.016 C 
ATOM     21  C   UNL     1       1.100  -1.742   0.285  0.00  0.00    +0.015 A 
ATOM     24  C   UNL     1      -1.294  -1.711   0.358  0.00  0.00    +0.165 A 
ATOM     26  C   UNL     1      -3.748  -1.336   0.373  0.00  0.00    +0.222 C 
ATOM     38  H   UNL     1      -2.705  -3.134   0.592  0.00  0.00    +0.157 HD
ENDROOT
BRANCH  26  27
ATOM     27  C   UNL     1      -4.999  -2.152   0.521  0.00  0.00    +0.075 C 
ATOM     28  C   UNL     1      -5.431  -2.705  -0.839  0.00  0.00    +0.013 C 
ATOM     29  C   UNL     1      -6.103  -1.347   1.210  0.00  0.00    +0.013 C 
ATOM     30  C   UNL     1      -6.087  -1.654  -1.732  0.00  0.00    +0.001 C 
ATOM     31  C   UNL     1      -6.768  -0.320   0.294  0.00  0.00    +0.001 C 
ATOM     32  C   UNL     1      -7.231  -0.944  -1.017  0.00  0.00    +0.000 C 
ENDBRANCH  26  27
BRANCH  14   2
ATOM      2  O   UNL     1       6.998   0.101  -0.943  0.00  0.00    -0.391 OA
ATOM     35  H   UNL     1       7.373   0.900  -1.351  0.00  0.00    +0.210 HD
ENDBRANCH  14   2
BRANCH  11  19
ATOM     19  C   UNL     1       5.563  -1.476   0.931  0.00  0.00    +0.165 C 
BRANCH  19   3
ATOM      3  O   UNL     1       6.941  -1.653   0.690  0.00  0.00    -0.394 OA
ATOM     36  H   UNL     1       7.349  -1.929   1.528  0.00  0.00    +0.209 HD
ENDBRANCH  19   3
ENDBRANCH  11  19
BRANCH  12  22
ATOM     22  C   UNL     1       0.647   1.976   0.579  0.00  0.00    +0.106 C 
BRANCH  22  23
ATOM      4  O   UNL     1      -0.836   2.031  -1.332  0.00  0.00    -0.276 OA
ATOM      7  N   UNL     1      -1.096   3.596   0.366  0.00  0.00    -0.313 N 
ATOM     23  C   UNL     1      -0.497   2.509  -0.253  0.00  0.00    +0.214 C 
ATOM     37  H   UNL     1      -0.774   3.875   1.289  0.00  0.00    +0.149 HD
BRANCH   7  25
ATOM     25  C   UNL     1      -2.216   4.311  -0.203  0.00  0.00    +0.067 C 
ATOM     33  C   UNL     1      -2.164   5.780   0.195  0.00  0.00    +0.027 C 
ATOM     34  C   UNL     1      -3.531   3.670   0.223  0.00  0.00    +0.027 C 
ENDBRANCH   7  25
ENDBRANCH  22  23
ENDBRANCH  12  22
TORSDOF 7
