REMARK  Name = 86769014
REMARK  2 active torsions:
REMARK  status: ('A' for Active; 'I' for Inactive)
REMARK    1  A    between atoms: N_3  and  C_8
REMARK    2  A    between atoms: N_5  and  C_17
REMARK                            x       y       z     vdW  Elec       q    Type
REMARK                         _______ _______ _______ _____ _____    ______ ____
ROOT
ATOM      2  O   UNL     1       2.174   2.398   0.170  0.00  0.00    -0.252 OA
ATOM      3  N   UNL     1      -2.423   0.333  -0.281  0.00  0.00    -0.296 NA
ATOM      4  N   UNL     1       0.265   1.162  -0.344  0.00  0.00    -0.278 N 
ATOM      5  N   UNL     1       2.219   0.030  -0.181  0.00  0.00    -0.254 N 
ATOM      6  C   UNL     1      -0.064  -0.179  -0.755  0.00  0.00    +0.109 C 
ATOM      7  C   UNL     1      -1.345  -0.653  -0.069  0.00  0.00    +0.108 C 
ATOM      9  C   UNL     1      -2.047   1.649   0.275  0.00  0.00    +0.104 C 
ATOM     10  C   UNL     1      -0.765   2.182  -0.369  0.00  0.00    +0.125 C 
ATOM     11  C   UNL     1       1.187  -0.976  -0.402  0.00  0.00    +0.139 C 
ATOM     14  C   UNL     1       1.636   1.329  -0.091  0.00  0.00    +0.309 C 
ENDROOT
BRANCH   3   8
ATOM      1  O   UNL     1      -6.402  -0.976  -0.009  0.00  0.00    -0.380 OA
ATOM      8  C   UNL     1      -3.668  -0.137   0.321  0.00  0.00    +0.061 C 
ATOM     12  C   UNL     1      -4.803   0.853   0.039  0.00  0.00    +0.047 C 
ATOM     13  C   UNL     1      -4.043  -1.527  -0.204  0.00  0.00    +0.047 C 
ATOM     15  C   UNL     1      -6.126   0.304   0.559  0.00  0.00    +0.161 C 
ATOM     16  C   UNL     1      -5.409  -1.944   0.330  0.00  0.00    +0.161 C 
ENDBRANCH   3   8
BRANCH   5  17
ATOM     17  C   UNL     1       3.592  -0.309  -0.004  0.00  0.00    +0.038 A 
ATOM     18  C   UNL     1       4.524   0.686   0.291  0.00  0.00    +0.023 A 
ATOM     19  C   UNL     1       4.003  -1.636  -0.127  0.00  0.00    +0.023 A 
ATOM     20  C   UNL     1       5.868   0.353   0.464  0.00  0.00    +0.002 A 
ATOM     21  C   UNL     1       5.347  -1.968   0.045  0.00  0.00    +0.002 A 
ATOM     22  C   UNL     1       6.279  -0.974   0.341  0.00  0.00    +0.000 A 
ENDBRANCH   5  17
TORSDOF 2
