REMARK  Name = 45783986
REMARK  18 active torsions:
REMARK  status: ('A' for Active; 'I' for Inactive)
REMARK    1  A    between atoms: O_2  and  C_25
REMARK    2  A    between atoms: O_2  and  C_29
REMARK    3  A    between atoms: O_3  and  C_26
REMARK    4  A    between atoms: O_3  and  C_30
REMARK    5  A    between atoms: N_6  and  C_16
REMARK    6  A    between atoms: N_6  and  C_22
REMARK    7  A    between atoms: N_6  and  C_23
REMARK    8  A    between atoms: N_9  and  C_35
REMARK    9  A    between atoms: C_10  and  C_14
REMARK   10  A    between atoms: C_11  and  C_16
REMARK   11  A    between atoms: C_13  and  C_18
REMARK   12  A    between atoms: C_14  and  C_19
REMARK   13  A    between atoms: C_14  and  C_20
REMARK   14  A    between atoms: C_15  and  C_21
REMARK   15  A    between atoms: C_18  and  C_24
REMARK   16  A    between atoms: C_22  and  C_25
REMARK   17  A    between atoms: C_23  and  C_26
REMARK   18  A    between atoms: C_27  and  C_28
REMARK                            x       y       z     vdW  Elec       q    Type
REMARK                         _______ _______ _______ _____ _____    ______ ____
ROOT
ATOM     10  C   UNL     1       3.071   0.765  -0.903  0.00  0.00    +0.000 C 
ATOM     11  C   UNL     1       3.268   0.675   0.628  0.00  0.00    +0.029 C 
ATOM     12  C   UNL     1       1.785   1.535  -1.235  0.00  0.00    +0.012 C 
ATOM     13  C   UNL     1       1.749   2.954  -0.628  0.00  0.00    +0.024 C 
ATOM     15  C   UNL     1       2.325   3.016   0.778  0.00  0.00    -0.073 C 
ATOM     17  C   UNL     1       2.991   1.982   1.326  0.00  0.00    -0.023 C 
ATOM     21  C   UNL     1       2.179   4.309   1.533  0.00  0.00    +0.039 C 
ENDROOT
BRANCH  10  14
ATOM     14  C   UNL     1       4.290   1.397  -1.588  0.00  0.00    -0.013 C 
ATOM     19  C   UNL     1       3.924   1.875  -2.990  0.00  0.00    +0.007 C 
ATOM     20  C   UNL     1       5.446   0.404  -1.640  0.00  0.00    +0.007 C 
ENDBRANCH  10  14
BRANCH  11  16
ATOM     16  C   UNL     1       2.396  -0.422   1.248  0.00  0.00    +0.092 C 
BRANCH  16   6
ATOM      6  N   UNL     1       2.656  -1.703   0.615  0.00  0.00    -0.297 NA
BRANCH   6  22
ATOM     22  C   UNL     1       1.544  -2.631   0.841  0.00  0.00    +0.112 C 
BRANCH  22  25
ATOM     25  C   UNL     1       0.418  -2.370  -0.148  0.00  0.00    +0.174 C 
BRANCH  25   2
ATOM      2  O   UNL     1      -0.628  -3.301   0.096  0.00  0.00    -0.382 OA
ATOM     29  C   UNL     1      -1.724  -3.096  -0.785  0.00  0.00    +0.194 C 
ENDBRANCH  25   2
ENDBRANCH  22  25
ENDBRANCH   6  22
BRANCH   6  23
ATOM     23  C   UNL     1       3.906  -2.286   1.112  0.00  0.00    +0.112 C 
BRANCH  23  26
ATOM     26  C   UNL     1       4.455  -3.302   0.123  0.00  0.00    +0.174 C 
BRANCH  26   3
ATOM      3  O   UNL     1       5.672  -3.827   0.636  0.00  0.00    -0.382 OA
ATOM     30  C   UNL     1       6.227  -4.802  -0.236  0.00  0.00    +0.194 C 
ENDBRANCH  26   3
ENDBRANCH  23  26
ENDBRANCH   6  23
ENDBRANCH  16   6
ENDBRANCH  11  16
BRANCH  13  18
ATOM     18  C   UNL     1       0.311   3.483  -0.707  0.00  0.00    +0.105 C 
BRANCH  18  24
ATOM      1  O   UNL     1      -1.671   2.086  -0.440  0.00  0.00    -0.420 OA
ATOM      7  N   UNL     1      -0.566   2.482   1.464  0.00  0.00    -0.112 NA
ATOM      8  N   UNL     1      -1.656   1.685   1.761  0.00  0.00    -0.107 NA
ATOM     24  C   UNL     1      -0.615   2.690   0.169  0.00  0.00    +0.218 A 
ATOM     27  C   UNL     1      -2.272   1.479   0.621  0.00  0.00    +0.248 A 
BRANCH  27  28
ATOM     28  C   UNL     1      -3.457   0.728   0.325  0.00  0.00    +0.039 A 
ATOM     31  C   UNL     1      -4.140   0.072   1.349  0.00  0.00    +0.015 A 
ATOM     32  C   UNL     1      -3.927   0.654  -0.986  0.00  0.00    +0.015 A 
ATOM     33  C   UNL     1      -5.293  -0.659   1.062  0.00  0.00    +0.033 A 
ATOM     34  C   UNL     1      -5.080  -0.077  -1.274  0.00  0.00    +0.033 A 
ATOM     35  C   UNL     1      -5.763  -0.733  -0.250  0.00  0.00    +0.126 A 
BRANCH  35   9
ATOM      4  O   UNL     1      -7.539  -2.056   0.394  0.00  0.00    -0.126 OA
ATOM      5  O   UNL     1      -7.344  -1.529  -1.728  0.00  0.00    -0.126 OA
ATOM      9  N   UNL     1      -6.938  -1.475  -0.542  0.00  0.00    +0.056 N 
ENDBRANCH  35   9
ENDBRANCH  27  28
ENDBRANCH  18  24
ENDBRANCH  13  18
TORSDOF 13
