REMARK  Name = 38027296
REMARK  14 active torsions:
REMARK  status: ('A' for Active; 'I' for Inactive)
REMARK    1  A    between atoms: N_3  and  C_16
REMARK    2  A    between atoms: N_4  and  C_13
REMARK    3  A    between atoms: C_5  and  C_9
REMARK    4  A    between atoms: C_6  and  C_13
REMARK    5  A    between atoms: C_8  and  C_12
REMARK    6  A    between atoms: C_9  and  C_14
REMARK    7  A    between atoms: C_9  and  C_15
REMARK    8  A    between atoms: C_10  and  C_17
REMARK    9  A    between atoms: C_12  and  C_20
REMARK   10  A    between atoms: C_23  and  C_24
REMARK   11  A    between atoms: C_24  and  C_25
REMARK   12  A    between atoms: C_25  and  C_26
REMARK   13  A    between atoms: C_25  and  C_27
REMARK   14  A    between atoms: C_25  and  C_28
REMARK                            x       y       z     vdW  Elec       q    Type
REMARK                         _______ _______ _______ _____ _____    ______ ____
ROOT
ATOM      5  C   UNL     1       0.179  -0.828  -0.244  0.00  0.00    +0.000 C 
ATOM      6  C   UNL     1       1.405   0.048   0.114  0.00  0.00    +0.032 C 
ATOM      7  C   UNL     1      -0.659  -0.154  -1.342  0.00  0.00    +0.012 C 
ATOM      8  C   UNL     1      -1.161   1.239  -0.918  0.00  0.00    +0.023 C 
ATOM     10  C   UNL     1      -0.056   2.073  -0.303  0.00  0.00    -0.073 C 
ATOM     11  C   UNL     1       1.089   1.525   0.140  0.00  0.00    -0.022 C 
ATOM     17  C   UNL     1      -0.278   3.559  -0.251  0.00  0.00    +0.039 C 
ENDROOT
BRANCH   5   9
ATOM      9  C   UNL     1       0.595  -2.231  -0.697  0.00  0.00    -0.013 C 
ATOM     14  C   UNL     1      -0.541  -3.223  -0.467  0.00  0.00    +0.007 C 
ATOM     15  C   UNL     1       1.010  -2.215  -2.165  0.00  0.00    +0.007 C 
ENDBRANCH   5   9
BRANCH   8  12
ATOM     12  C   UNL     1      -2.360   1.130   0.032  0.00  0.00    +0.103 C 
BRANCH  12  20
ATOM      1  O   UNL     1      -3.681   0.522  -1.902  0.00  0.00    -0.276 OA
ATOM      3  N   UNL     1      -4.689   0.618   0.189  0.00  0.00    -0.312 N 
ATOM     20  C   UNL     1      -3.624   0.724  -0.692  0.00  0.00    +0.214 C 
ATOM     29  H   UNL     1      -4.520   0.760   1.181  0.00  0.00    +0.149 HD
BRANCH   3  16
ATOM     16  C   UNL     1      -6.020   0.248  -0.225  0.00  0.00    +0.073 C 
ATOM     18  C   UNL     1      -7.080   0.824   0.706  0.00  0.00    +0.022 C 
ATOM     19  C   UNL     1      -6.254  -1.254  -0.113  0.00  0.00    +0.022 C 
ATOM     21  C   UNL     1      -7.121  -0.142   1.886  0.00  0.00    +0.002 C 
ATOM     22  C   UNL     1      -6.630  -1.488   1.349  0.00  0.00    +0.002 C 
ENDBRANCH   3  16
ENDBRANCH  12  20
ENDBRANCH   8  12
BRANCH   6  13
ATOM     13  C   UNL     1       2.009  -0.369   1.459  0.00  0.00    +0.112 C 
BRANCH  13   4
ATOM      2  O   UNL     1       4.260  -2.004   0.653  0.00  0.00    -0.276 OA
ATOM      4  N   UNL     1       3.395  -0.026   1.522  0.00  0.00    -0.315 N 
ATOM     23  C   UNL     1       4.422  -0.875   1.111  0.00  0.00    +0.214 C 
ATOM     30  H   UNL     1       3.635   0.892   1.883  0.00  0.00    +0.149 HD
BRANCH  23  24
ATOM     24  C   UNL     1       5.809  -0.279   1.288  0.00  0.00    +0.102 C 
BRANCH  24  25
ATOM     25  C   UNL     1       6.354   0.468   0.048  0.00  0.00    -0.029 C 
ATOM     26  C   UNL     1       7.764   1.024   0.311  0.00  0.00    +0.011 C 
ATOM     27  C   UNL     1       6.437  -0.537  -1.118  0.00  0.00    +0.011 C 
ATOM     28  C   UNL     1       5.425   1.620  -0.370  0.00  0.00    +0.011 C 
ENDBRANCH  24  25
ENDBRANCH  23  24
ENDBRANCH  13   4
ENDBRANCH   6  13
TORSDOF 8
