REMARK  Name = 26743151
REMARK  10 active torsions:
REMARK  status: ('A' for Active; 'I' for Inactive)
REMARK    1  A    between atoms: O_3  and  C_21
REMARK    2  A    between atoms: O_3  and  C_27
REMARK    3  A    between atoms: N_5  and  C_17
REMARK    4  A    between atoms: N_5  and  C_19
REMARK    5  A    between atoms: C_7  and  C_12
REMARK    6  A    between atoms: C_8  and  C_13
REMARK    7  A    between atoms: C_12  and  C_15
REMARK    8  A    between atoms: C_13  and  C_14
REMARK    9  A    between atoms: C_17  and  C_20
REMARK   10  A    between atoms: C_18  and  C_21
REMARK                            x       y       z     vdW  Elec       q    Type
REMARK                         _______ _______ _______ _____ _____    ______ ____
ROOT
ATOM      4  N   UNL     1       6.384   0.833  -0.138  0.00  0.00    -0.316 NA
ATOM      7  C   UNL     1       3.503   0.350  -0.559  0.00  0.00    +0.004 C 
ATOM      8  C   UNL     1       4.040   1.553   0.253  0.00  0.00    +0.012 C 
ATOM      9  C   UNL     1       4.588  -0.112  -1.546  0.00  0.00    +0.019 C 
ATOM     10  C   UNL     1       5.414   1.251   0.875  0.00  0.00    +0.085 C 
ATOM     11  C   UNL     1       5.934  -0.353  -0.864  0.00  0.00    +0.081 C 
ATOM     33  H   UNL     1       7.277   0.634   0.312  0.00  0.00    +0.122 HD
ENDROOT
BRANCH   7  12
ATOM     12  C   UNL     1       3.018  -0.819   0.306  0.00  0.00    +0.100 C 
BRANCH  12  15
ATOM      1  O   UNL     1       1.750  -1.499  -1.611  0.00  0.00    -0.276 OA
ATOM      5  N   UNL     1       1.577  -2.830   0.280  0.00  0.00    -0.300 N 
ATOM     15  C   UNL     1       2.062  -1.734  -0.441  0.00  0.00    +0.216 C 
ATOM     19  C   UNL     1       1.960  -3.088   1.663  0.00  0.00    +0.132 C 
BRANCH   5  17
ATOM     17  C   UNL     1       0.650  -3.800  -0.298  0.00  0.00    +0.142 C 
BRANCH  17  20
ATOM     20  C   UNL     1      -0.781  -3.384  -0.123  0.00  0.00    -0.030 A 
ATOM     22  C   UNL     1      -1.488  -3.779   1.013  0.00  0.00    +0.005 A 
ATOM     23  C   UNL     1      -1.404  -2.602  -1.095  0.00  0.00    +0.005 A 
ATOM     24  C   UNL     1      -2.818  -3.392   1.176  0.00  0.00    +0.000 A 
ATOM     25  C   UNL     1      -2.734  -2.215  -0.932  0.00  0.00    +0.000 A 
ATOM     26  C   UNL     1      -3.441  -2.610   0.204  0.00  0.00    +0.000 A 
ENDBRANCH  17  20
ENDBRANCH   5  17
ENDBRANCH  12  15
ENDBRANCH   7  12
BRANCH   8  13
ATOM     13  C   UNL     1       3.062   2.038   1.324  0.00  0.00    +0.064 C 
BRANCH  13  14
ATOM      2  O   UNL     1       0.245   3.701  -0.180  0.00  0.00    -0.356 OA
ATOM      6  N   UNL     1       1.543   3.686   0.317  0.00  0.00    -0.083 NA
ATOM     14  C   UNL     1       1.743   2.429   0.722  0.00  0.00    +0.084 A 
ATOM     16  C   UNL     1       0.617   1.614   0.509  0.00  0.00    +0.074 A 
ATOM     18  C   UNL     1      -0.295   2.462  -0.061  0.00  0.00    +0.175 A 
BRANCH  18  21
ATOM     21  C   UNL     1      -1.673   2.299  -0.541  0.00  0.00    +0.306 C 
BRANCH  21   3
ATOM      3  O   UNL     1      -2.523   1.870   0.526  0.00  0.00    -0.484 OA
BRANCH   3  27
ATOM     27  C   UNL     1      -3.826   1.615   0.202  0.00  0.00    +0.121 A 
ATOM     28  C   UNL     1      -4.262   1.777  -1.113  0.00  0.00    +0.045 A 
ATOM     29  C   UNL     1      -4.720   1.193   1.186  0.00  0.00    +0.045 A 
ATOM     30  C   UNL     1      -5.592   1.517  -1.445  0.00  0.00    +0.004 A 
ATOM     31  C   UNL     1      -6.049   0.933   0.855  0.00  0.00    +0.004 A 
ATOM     32  C   UNL     1      -6.485   1.095  -0.461  0.00  0.00    +0.000 A 
ENDBRANCH   3  27
ENDBRANCH  21   3
ENDBRANCH  18  21
ENDBRANCH  13  14
ENDBRANCH   8  13
TORSDOF 9
