REMARK  Name = 26744606
REMARK  8 active torsions:
REMARK  status: ('A' for Active; 'I' for Inactive)
REMARK    1  A    between atoms: O_3  and  C_12
REMARK    2  A    between atoms: N_6  and  C_14
REMARK    3  A    between atoms: N_9  and  C_23
REMARK    4  A    between atoms: C_10  and  C_15
REMARK    5  A    between atoms: C_14  and  C_16
REMARK    6  A    between atoms: C_17  and  C_20
REMARK    7  A    between atoms: C_20  and  C_24
REMARK    8  A    between atoms: C_29  and  C_31
REMARK                            x       y       z     vdW  Elec       q    Type
REMARK                         _______ _______ _______ _____ _____    ______ ____
ROOT
ATOM      6  N   UNL     1       3.393   0.666   0.797  0.00  0.00    -0.285 NA
ATOM     10  C   UNL     1       3.522   0.254  -0.615  0.00  0.00    +0.149 C 
ATOM     11  C   UNL     1       4.744  -0.683  -0.642  0.00  0.00    +0.061 C 
ATOM     12  C   UNL     1       5.260  -0.699   0.792  0.00  0.00    +0.130 C 
ATOM     13  C   UNL     1       4.735   0.601   1.372  0.00  0.00    +0.116 C 
ENDROOT
BRANCH  10  15
ATOM      4  O   UNL     1       1.699   0.166  -2.241  0.00  0.00    -0.336 OA
ATOM      7  N   UNL     1       1.632  -1.461  -0.703  0.00  0.00    -0.194 NA
ATOM      8  N   UNL     1       0.569  -0.606  -2.540  0.00  0.00    -0.061 NA
ATOM     15  C   UNL     1       2.267  -0.405  -1.147  0.00  0.00    +0.245 A 
ATOM     17  C   UNL     1       0.598  -1.545  -1.589  0.00  0.00    +0.176 A 
BRANCH  17  20
ATOM     20  C   UNL     1      -0.420  -2.598  -1.506  0.00  0.00    +0.116 C 
BRANCH  20  24
ATOM      1 CL   UNL     1      -2.984  -1.039  -2.275  0.00  0.00    -0.083 Cl
ATOM      2  F   UNL     1      -4.292  -1.832   2.543  0.00  0.00    -0.205 F 
ATOM     24  C   UNL     1      -1.483  -2.376  -0.434  0.00  0.00    -0.021 A 
ATOM     25  C   UNL     1      -2.663  -1.683  -0.706  0.00  0.00    +0.047 A 
ATOM     26  C   UNL     1      -1.252  -2.884   0.844  0.00  0.00    +0.008 A 
ATOM     27  C   UNL     1      -3.612  -1.500   0.299  0.00  0.00    +0.058 A 
ATOM     28  C   UNL     1      -2.201  -2.701   1.850  0.00  0.00    +0.039 A 
ATOM     30  C   UNL     1      -3.381  -2.009   1.577  0.00  0.00    +0.125 A 
ENDBRANCH  20  24
ENDBRANCH  17  20
ENDBRANCH  10  15
BRANCH  12   3
ATOM      3  O   UNL     1       6.673  -0.752   0.815  0.00  0.00    -0.390 OA
ATOM     32  H   UNL     1       6.943  -1.569   0.363  0.00  0.00    +0.210 HD
ENDBRANCH  12   3
BRANCH   6  14
ATOM     14  C   UNL     1       2.791   1.984   0.958  0.00  0.00    +0.120 C 
BRANCH  14  16
ATOM     16  C   UNL     1       1.293   1.936   0.822  0.00  0.00    -0.033 A 
ATOM     18  C   UNL     1       0.656   2.697  -0.158  0.00  0.00    +0.007 A 
ATOM     19  C   UNL     1       0.540   1.131   1.678  0.00  0.00    +0.007 A 
ATOM     21  C   UNL     1      -0.732   2.654  -0.283  0.00  0.00    +0.023 A 
ATOM     22  C   UNL     1      -0.848   1.088   1.553  0.00  0.00    +0.023 A 
ATOM     23  C   UNL     1      -1.485   1.850   0.573  0.00  0.00    +0.033 A 
BRANCH  23   9
ATOM      5  O   UNL     1      -3.321   3.271  -1.344  0.00  0.00    -0.276 OA
ATOM      9  N   UNL     1      -2.873   1.806   0.449  0.00  0.00    -0.286 N 
ATOM     29  C   UNL     1      -3.682   2.494  -0.466  0.00  0.00    +0.214 C 
ATOM     31  C   UNL     1      -5.143   2.174  -0.272  0.00  0.00    +0.109 C 
ATOM     33  H   UNL     1      -3.347   1.200   1.115  0.00  0.00    +0.155 HD
ENDBRANCH  23   9
ENDBRANCH  14  16
ENDBRANCH   6  14
TORSDOF 7
