REMARK  Name = 38030268
REMARK  14 active torsions:
REMARK  status: ('A' for Active; 'I' for Inactive)
REMARK    1  A    between atoms: N_2  and  C_13
REMARK    2  A    between atoms: N_2  and  C_19
REMARK    3  A    between atoms: N_4  and  C_20
REMARK    4  A    between atoms: N_4  and  C_22
REMARK    5  A    between atoms: N_4  and  C_23
REMARK    6  A    between atoms: C_6  and  C_10
REMARK    7  A    between atoms: C_7  and  C_13
REMARK    8  A    between atoms: C_9  and  C_14
REMARK    9  A    between atoms: C_10  and  C_15
REMARK   10  A    between atoms: C_10  and  C_16
REMARK   11  A    between atoms: C_11  and  C_17
REMARK   12  A    between atoms: C_14  and  C_18
REMARK   13  A    between atoms: C_19  and  C_20
REMARK   14  A    between atoms: C_21  and  C_24
REMARK                            x       y       z     vdW  Elec       q    Type
REMARK                         _______ _______ _______ _____ _____    ______ ____
ROOT
ATOM      6  C   UNL     1       0.906   1.203  -1.335  0.00  0.00    +0.000 C 
ATOM      7  C   UNL     1       2.343   1.782  -1.315  0.00  0.00    +0.029 C 
ATOM      8  C   UNL     1      -0.092   2.226  -0.770  0.00  0.00    +0.012 C 
ATOM      9  C   UNL     1       0.248   2.635   0.675  0.00  0.00    +0.024 C 
ATOM     11  C   UNL     1       1.719   2.965   0.835  0.00  0.00    -0.073 C 
ATOM     12  C   UNL     1       2.638   2.587  -0.071  0.00  0.00    -0.023 C 
ATOM     17  C   UNL     1       2.103   3.780   2.039  0.00  0.00    +0.039 C 
ENDROOT
BRANCH   6  10
ATOM     10  C   UNL     1       0.480   0.788  -2.747  0.00  0.00    -0.013 C 
ATOM     15  C   UNL     1      -0.608  -0.279  -2.683  0.00  0.00    +0.007 C 
ATOM     16  C   UNL     1       0.001   2.002  -3.537  0.00  0.00    +0.007 C 
ENDBRANCH   6  10
BRANCH   7  13
ATOM     13  C   UNL     1       3.389   0.671  -1.465  0.00  0.00    +0.088 C 
BRANCH  13   2
ATOM      2  N   UNL     1       3.347  -0.229  -0.326  0.00  0.00    -0.314 NA
ATOM     30  H   UNL     1       3.523   0.281   0.539  0.00  0.00    +0.122 HD
BRANCH   2  19
ATOM     19  C   UNL     1       4.332  -1.295  -0.464  0.00  0.00    +0.096 C 
BRANCH  19  20
ATOM     20  C   UNL     1       4.290  -2.212   0.755  0.00  0.00    +0.099 C 
BRANCH  20   4
ATOM      4  N   UNL     1       5.263  -3.288   0.609  0.00  0.00    -0.307 NA
ATOM     22  C   UNL     1       4.908  -4.423   1.463  0.00  0.00    +0.104 C 
ATOM     23  C   UNL     1       6.610  -2.813   0.929  0.00  0.00    +0.104 C 
ENDBRANCH  20   4
ENDBRANCH  19  20
ENDBRANCH   2  19
ENDBRANCH  13   2
ENDBRANCH   7  13
BRANCH   9  14
ATOM     14  C   UNL     1      -0.183   1.554   1.671  0.00  0.00    +0.105 C 
BRANCH  14  18
ATOM      1  O   UNL     1      -1.979   0.090   0.905  0.00  0.00    -0.420 OA
ATOM      3  N   UNL     1      -2.686   1.928   1.966  0.00  0.00    -0.112 NA
ATOM      5  N   UNL     1      -3.797   1.197   1.590  0.00  0.00    -0.107 NA
ATOM     18  C   UNL     1      -1.647   1.244   1.545  0.00  0.00    +0.218 A 
ATOM     21  C   UNL     1      -3.337   0.133   0.974  0.00  0.00    +0.248 A 
BRANCH  21  24
ATOM     24  C   UNL     1      -4.032  -0.969   0.375  0.00  0.00    +0.038 A 
ATOM     25  C   UNL     1      -5.426  -1.010   0.398  0.00  0.00    +0.013 A 
ATOM     26  C   UNL     1      -3.314  -2.000  -0.231  0.00  0.00    +0.013 A 
ATOM     27  C   UNL     1      -6.102  -2.083  -0.184  0.00  0.00    +0.001 A 
ATOM     28  C   UNL     1      -3.990  -3.072  -0.813  0.00  0.00    +0.001 A 
ATOM     29  C   UNL     1      -5.384  -3.114  -0.790  0.00  0.00    +0.000 A 
ENDBRANCH  21  24
ENDBRANCH  14  18
ENDBRANCH   9  14
TORSDOF 9
