REMARK  Name = 45783349
REMARK  11 active torsions:
REMARK  status: ('A' for Active; 'I' for Inactive)
REMARK    1  A    between atoms: O_3  and  C_22
REMARK    2  A    between atoms: O_4  and  C_25
REMARK    3  A    between atoms: O_4  and  C_27
REMARK    4  A    between atoms: O_5  and  C_28
REMARK    5  A    between atoms: O_5  and  C_29
REMARK    6  A    between atoms: N_6  and  C_14
REMARK    7  A    between atoms: C_10  and  C_15
REMARK    8  A    between atoms: C_14  and  C_16
REMARK    9  A    between atoms: C_18  and  C_21
REMARK   10  A    between atoms: C_19  and  C_22
REMARK   11  A    between atoms: C_27  and  C_28
REMARK                            x       y       z     vdW  Elec       q    Type
REMARK                         _______ _______ _______ _____ _____    ______ ____
ROOT
ATOM      1  O   UNL     1      -2.346   0.200   2.208  0.00  0.00    -0.336 OA
ATOM      7  N   UNL     1      -0.825  -0.740   0.859  0.00  0.00    -0.190 NA
ATOM      8  N   UNL     1      -1.150   0.895   2.426  0.00  0.00    -0.056 NA
ATOM     15  C   UNL     1      -2.067  -0.745   1.272  0.00  0.00    +0.245 A 
ATOM     18  C   UNL     1      -0.301   0.283   1.595  0.00  0.00    +0.202 A 
ENDROOT
BRANCH  18  21
ATOM      9  N   UNL     1       3.759   1.417   1.250  0.00  0.00    -0.221 NA
ATOM     21  C   UNL     1       1.076   0.667   1.478  0.00  0.00    +0.029 A 
ATOM     23  C   UNL     1       1.916  -0.005   0.598  0.00  0.00    +0.079 A 
ATOM     24  C   UNL     1       1.576   1.715   2.244  0.00  0.00    +0.031 A 
ATOM     25  C   UNL     1       3.238   0.404   0.522  0.00  0.00    +0.215 A 
ATOM     26  C   UNL     1       2.912   2.048   2.094  0.00  0.00    +0.115 A 
BRANCH  25   4
ATOM      4  O   UNL     1       4.086  -0.243  -0.338  0.00  0.00    -0.474 OA
BRANCH   4  27
ATOM     27  C   UNL     1       5.431   0.218  -0.378  0.00  0.00    +0.258 C 
BRANCH  27  28
ATOM     28  C   UNL     1       6.216  -0.629  -1.361  0.00  0.00    +0.200 C 
BRANCH  28   5
ATOM      5  O   UNL     1       6.198  -1.983  -0.925  0.00  0.00    -0.380 OA
ATOM     29  C   UNL     1       6.902  -2.829  -1.824  0.00  0.00    +0.194 C 
ENDBRANCH  28   5
ENDBRANCH  27  28
ENDBRANCH   4  27
ENDBRANCH  25   4
ENDBRANCH  18  21
BRANCH  15  10
ATOM      6  N   UNL     1      -3.476  -1.591  -0.596  0.00  0.00    -0.284 NA
ATOM     10  C   UNL     1      -3.214  -1.642   0.856  0.00  0.00    +0.146 C 
ATOM     11  C   UNL     1      -2.943  -3.128   1.153  0.00  0.00    +0.030 C 
ATOM     12  C   UNL     1      -3.136  -3.841  -0.178  0.00  0.00    +0.017 C 
ATOM     13  C   UNL     1      -4.024  -2.897  -0.963  0.00  0.00    +0.085 C 
BRANCH   6  14
ATOM     14  C   UNL     1      -4.358  -0.498  -0.983  0.00  0.00    +0.159 C 
BRANCH  14  16
ATOM      2  O   UNL     1      -2.577   0.869  -1.922  0.00  0.00    -0.461 OA
ATOM     16  C   UNL     1      -3.625   0.815  -1.059  0.00  0.00    +0.119 A 
ATOM     17  C   UNL     1      -3.788   2.022  -0.420  0.00  0.00    +0.046 A 
ATOM     19  C   UNL     1      -2.065   2.125  -1.833  0.00  0.00    +0.131 A 
ATOM     20  C   UNL     1      -2.775   2.873  -0.923  0.00  0.00    +0.047 A 
BRANCH  19  22
ATOM     22  C   UNL     1      -0.908   2.418  -2.692  0.00  0.00    +0.230 C 
BRANCH  22   3
ATOM      3  O   UNL     1       0.268   1.804  -2.160  0.00  0.00    -0.387 OA
ATOM     30  H   UNL     1       1.000   2.028  -2.761  0.00  0.00    +0.210 HD
ENDBRANCH  22   3
ENDBRANCH  19  22
ENDBRANCH  14  16
ENDBRANCH   6  14
ENDBRANCH  15  10
TORSDOF 10
