REMARK  Name = 75367678
REMARK  3 active torsions:
REMARK  status: ('A' for Active; 'I' for Inactive)
REMARK    1  A    between atoms: O_3  and  C_14
REMARK    2  A    between atoms: O_3  and  C_17
REMARK    3  A    between atoms: C_5  and  C_11
REMARK                            x       y       z     vdW  Elec       q    Type
REMARK                         _______ _______ _______ _____ _____    ______ ____
ROOT
ATOM      1  O   UNL     1       0.775  -3.016   0.439  0.00  0.00    -0.375 OA
ATOM      2  O   UNL     1      -3.306  -0.916  -1.304  0.00  0.00    -0.275 OA
ATOM      4  N   UNL     1      -1.067  -0.717  -0.684  0.00  0.00    -0.295 N 
ATOM     11  C   UNL     1      -2.392  -0.271  -0.784  0.00  0.00    +0.219 C 
ATOM     12  C   UNL     1      -0.007   0.089  -0.071  0.00  0.00    +0.154 C 
ATOM     13  C   UNL     1      -0.723  -2.034  -1.226  0.00  0.00    +0.136 C 
ATOM     14  C   UNL     1       1.291  -0.632   0.305  0.00  0.00    +0.216 C 
ATOM     15  C   UNL     1      -0.535  -3.058  -0.114  0.00  0.00    +0.179 C 
ATOM     16  C   UNL     1       1.062  -1.847   1.200  0.00  0.00    +0.206 C 
ENDROOT
BRANCH  11   5
ATOM      5  C   UNL     1      -2.687   1.082  -0.204  0.00  0.00    +0.075 C 
ATOM      6  C   UNL     1      -3.003   0.958   1.288  0.00  0.00    +0.013 C 
ATOM      7  C   UNL     1      -3.797   1.786  -0.987  0.00  0.00    +0.013 C 
ATOM      8  C   UNL     1      -4.403   0.411   1.560  0.00  0.00    +0.001 C 
ATOM      9  C   UNL     1      -5.194   1.245  -0.682  0.00  0.00    +0.001 C 
ATOM     10  C   UNL     1      -5.472   1.204   0.817  0.00  0.00    +0.000 C 
ENDBRANCH  11   5
BRANCH  14   3
ATOM      3  O   UNL     1       2.110   0.291   1.026  0.00  0.00    -0.485 OA
BRANCH   3  17
ATOM     17  C   UNL     1       3.322   0.594   0.470  0.00  0.00    +0.121 A 
ATOM     18  C   UNL     1       4.258  -0.415   0.245  0.00  0.00    +0.045 A 
ATOM     19  C   UNL     1       3.622   1.913   0.129  0.00  0.00    +0.045 A 
ATOM     20  C   UNL     1       5.495  -0.105  -0.322  0.00  0.00    +0.004 A 
ATOM     21  C   UNL     1       4.858   2.223  -0.438  0.00  0.00    +0.004 A 
ATOM     22  C   UNL     1       5.795   1.213  -0.663  0.00  0.00    +0.000 A 
ENDBRANCH   3  17
ENDBRANCH  14   3
TORSDOF 3
