REMARK  Name = 28962404
REMARK  10 active torsions:
REMARK  status: ('A' for Active; 'I' for Inactive)
REMARK    1  A    between atoms: O_2  and  C_8
REMARK    2  A    between atoms: O_3  and  C_16
REMARK    3  A    between atoms: N_4  and  C_6
REMARK    4  A    between atoms: N_5  and  C_15
REMARK    5  A    between atoms: N_5  and  C_18
REMARK    6  A    between atoms: C_7  and  C_15
REMARK    7  A    between atoms: C_9  and  C_16
REMARK    8  A    between atoms: C_12  and  C_17
REMARK    9  A    between atoms: C_18  and  C_19
REMARK   10  A    between atoms: C_18  and  C_20
REMARK                            x       y       z     vdW  Elec       q    Type
REMARK                         _______ _______ _______ _____ _____    ______ ____
ROOT
ATOM      1  O   UNL     1       2.074   0.991   0.769  0.00  0.00    -0.366 OA
ATOM      6  C   UNL     1      -0.305   0.988   0.690  0.00  0.00    +0.118 C 
ATOM      7  C   UNL     1       0.935   0.116   0.927  0.00  0.00    +0.152 C 
ATOM      8  C   UNL     1       0.223   2.099  -0.205  0.00  0.00    +0.165 C 
ATOM      9  C   UNL     1       1.612   2.301   0.388  0.00  0.00    +0.174 C 
ENDROOT
BRANCH   6   4
ATOM      4  N   UNL     1      -1.486   0.303   0.195  0.00  0.00    -0.295 NA
ATOM     10  C   UNL     1      -2.413   1.259  -0.425  0.00  0.00    +0.085 C 
ATOM     11  C   UNL     1      -2.140  -0.442   1.280  0.00  0.00    +0.085 C 
ATOM     12  C   UNL     1      -4.357  -0.280   0.073  0.00  0.00    -0.012 C 
ATOM     13  C   UNL     1      -3.639   0.546  -1.000  0.00  0.00    +0.018 C 
ATOM     14  C   UNL     1      -3.357  -1.213   0.764  0.00  0.00    +0.018 C 
ATOM     17  C   UNL     1      -5.519  -1.067  -0.526  0.00  0.00    +0.007 C 
ENDBRANCH   6   4
BRANCH   8   2
ATOM      2  O   UNL     1       0.319   1.675  -1.559  0.00  0.00    -0.388 OA
ATOM     21  H   UNL     1       0.558   2.452  -2.094  0.00  0.00    +0.210 HD
ENDBRANCH   8   2
BRANCH   7  15
ATOM     15  C   UNL     1       1.135  -1.061  -0.022  0.00  0.00    +0.114 C 
BRANCH  15   5
ATOM      5  N   UNL     1       2.330  -1.815   0.328  0.00  0.00    -0.311 NA
ATOM     22  H   UNL     1       3.135  -1.190   0.277  0.00  0.00    +0.122 HD
BRANCH   5  18
ATOM     18  C   UNL     1       2.515  -2.945  -0.572  0.00  0.00    +0.048 C 
ATOM     19  C   UNL     1       1.603  -4.099  -0.167  0.00  0.00    +0.023 C 
ATOM     20  C   UNL     1       3.979  -3.373  -0.556  0.00  0.00    +0.023 C 
ENDBRANCH   5  18
ENDBRANCH  15   5
ENDBRANCH   7  15
BRANCH   9  16
ATOM     16  C   UNL     1       2.631   2.942  -0.537  0.00  0.00    +0.190 C 
BRANCH  16   3
ATOM      3  O   UNL     1       3.861   3.073   0.156  0.00  0.00    -0.392 OA
ATOM     23  H   UNL     1       4.492   3.488  -0.457  0.00  0.00    +0.210 HD
ENDBRANCH  16   3
ENDBRANCH   9  16
TORSDOF 7
