REMARK  Name = 51136827
REMARK  5 active torsions:
REMARK  status: ('A' for Active; 'I' for Inactive)
REMARK    1  A    between atoms: N_4  and  C_14
REMARK    2  A    between atoms: C_10  and  C_15
REMARK    3  A    between atoms: C_14  and  C_18
REMARK    4  A    between atoms: C_22  and  C_23
REMARK    5  A    between atoms: C_26  and  C_30
REMARK                            x       y       z     vdW  Elec       q    Type
REMARK                         _______ _______ _______ _____ _____    ______ ____
ROOT
ATOM      2  O   UNL     1      -3.868   1.750  -0.196  0.00  0.00    -0.336 OA
ATOM      7  N   UNL     1      -2.095   0.602   0.549  0.00  0.00    -0.190 NA
ATOM      8  N   UNL     1      -2.757   2.583  -0.385  0.00  0.00    -0.056 NA
ATOM     15  C   UNL     1      -3.390   0.605   0.358  0.00  0.00    +0.245 A 
ATOM     22  C   UNL     1      -1.751   1.836   0.078  0.00  0.00    +0.202 A 
ENDROOT
BRANCH  22  23
ATOM      3  O   UNL     1       6.114  -2.859   1.425  0.00  0.00    -0.276 OA
ATOM      5  N   UNL     1       2.983   0.941   0.268  0.00  0.00    -0.312 N 
ATOM      6  N   UNL     1       5.092  -1.037   0.408  0.00  0.00    -0.299 N 
ATOM      9  N   UNL     1       2.260   3.183   0.099  0.00  0.00    -0.240 NA
ATOM     16  C   UNL     1       4.289   1.202  -0.342  0.00  0.00    +0.125 C 
ATOM     17  C   UNL     1       2.804  -0.308   1.013  0.00  0.00    +0.125 C 
ATOM     19  C   UNL     1       4.983  -0.108  -0.719  0.00  0.00    +0.126 C 
ATOM     20  C   UNL     1       4.148  -0.841   1.505  0.00  0.00    +0.126 C 
ATOM     21  C   UNL     1       1.949   1.870   0.177  0.00  0.00    +0.122 A 
ATOM     23  C   UNL     1      -0.390   2.293   0.086  0.00  0.00    +0.027 A 
ATOM     25  C   UNL     1       0.653   1.378   0.175  0.00  0.00    +0.055 A 
ATOM     26  C   UNL     1       6.020  -2.076   0.477  0.00  0.00    +0.213 C 
ATOM     27  C   UNL     1      -0.110   3.652   0.004  0.00  0.00    +0.031 A 
ATOM     30  C   UNL     1       6.953  -2.216  -0.701  0.00  0.00    +0.109 C 
ATOM     31  C   UNL     1       1.220   4.042   0.013  0.00  0.00    +0.113 A 
ENDBRANCH  22  23
BRANCH  15  10
ATOM      4  N   UNL     1      -3.825  -1.829   0.635  0.00  0.00    -0.287 NA
ATOM     10  C   UNL     1      -4.409  -0.473   0.663  0.00  0.00    +0.146 C 
ATOM     11  C   UNL     1      -5.015  -0.337   2.072  0.00  0.00    +0.030 C 
ATOM     12  C   UNL     1      -4.778  -1.684   2.739  0.00  0.00    +0.017 C 
ATOM     13  C   UNL     1      -4.608  -2.635   1.572  0.00  0.00    +0.085 C 
BRANCH   4  14
ATOM     14  C   UNL     1      -3.794  -2.414  -0.699  0.00  0.00    +0.127 C 
BRANCH  14  18
ATOM      1  S   UNL     1      -2.953  -1.096  -2.999  0.00  0.00    -0.100 S 
ATOM     18  C   UNL     1      -2.642  -1.890  -1.514  0.00  0.00    +0.004 A 
ATOM     24  C   UNL     1      -1.295  -1.955  -1.235  0.00  0.00    +0.012 A 
ATOM     28  C   UNL     1      -0.507  -1.344  -2.253  0.00  0.00    +0.008 A 
ATOM     29  C   UNL     1      -1.283  -0.836  -3.272  0.00  0.00    +0.045 A 
ENDBRANCH  14  18
ENDBRANCH   4  14
ENDBRANCH  15  10
TORSDOF 4
