REMARK  Name = 51136890
REMARK  7 active torsions:
REMARK  status: ('A' for Active; 'I' for Inactive)
REMARK    1  A    between atoms: O_4  and  C_32
REMARK    2  A    between atoms: O_4  and  C_33
REMARK    3  A    between atoms: N_5  and  C_10
REMARK    4  A    between atoms: N_9  and  C_25
REMARK    5  A    between atoms: C_11  and  C_19
REMARK    6  A    between atoms: C_20  and  C_21
REMARK    7  A    between atoms: C_26  and  C_27
REMARK                            x       y       z     vdW  Elec       q    Type
REMARK                         _______ _______ _______ _____ _____    ______ ____
ROOT
ATOM      8  N   UNL     1       1.697   1.594  -1.297  0.00  0.00    -0.239 NA
ATOM     21  C   UNL     1      -0.555   1.226  -0.497  0.00  0.00    +0.041 A 
ATOM     22  C   UNL     1      -0.076   0.346   0.467  0.00  0.00    +0.016 A 
ATOM     23  C   UNL     1       0.364   1.819  -1.348  0.00  0.00    +0.124 A 
ATOM     24  C   UNL     1       1.288   0.089   0.550  0.00  0.00    +0.044 A 
ATOM     25  C   UNL     1       2.125   0.733  -0.347  0.00  0.00    +0.125 A 
ENDROOT
BRANCH  21  20
ATOM      2  O   UNL     1      -3.824   2.318  -1.259  0.00  0.00    -0.336 OA
ATOM      6  N   UNL     1      -2.873   0.934   0.223  0.00  0.00    -0.190 NA
ATOM      7  N   UNL     1      -2.449   2.352  -1.522  0.00  0.00    -0.056 NA
ATOM     19  C   UNL     1      -3.987   1.460  -0.218  0.00  0.00    +0.245 A 
ATOM     20  C   UNL     1      -1.956   1.511  -0.608  0.00  0.00    +0.204 A 
BRANCH  19  11
ATOM      5  N   UNL     1      -5.601  -0.079   0.887  0.00  0.00    -0.288 NA
ATOM     11  C   UNL     1      -5.407   1.246   0.264  0.00  0.00    +0.146 C 
ATOM     12  C   UNL     1      -6.664   0.083   1.879  0.00  0.00    +0.085 C 
ATOM     13  C   UNL     1      -5.824   2.254   1.351  0.00  0.00    +0.030 C 
ATOM     14  C   UNL     1      -6.294   1.404   2.523  0.00  0.00    +0.017 C 
BRANCH   5  10
ATOM      1  O   UNL     1      -5.206  -3.649  -1.286  0.00  0.00    -0.380 OA
ATOM     10  C   UNL     1      -5.906  -1.131  -0.079  0.00  0.00    +0.062 C 
ATOM     15  C   UNL     1      -4.770  -1.265  -1.097  0.00  0.00    +0.047 C 
ATOM     16  C   UNL     1      -6.144  -2.471   0.622  0.00  0.00    +0.047 C 
ATOM     17  C   UNL     1      -5.031  -2.443  -2.030  0.00  0.00    +0.161 C 
ATOM     18  C   UNL     1      -6.329  -3.582  -0.406  0.00  0.00    +0.161 C 
ENDBRANCH   5  10
ENDBRANCH  19  11
ENDBRANCH  21  20
BRANCH  25   9
ATOM      3  O   UNL     1       3.630  -1.058   1.529  0.00  0.00    -0.270 OA
ATOM      9  N   UNL     1       3.496   0.467  -0.255  0.00  0.00    -0.266 N 
ATOM     26  C   UNL     1       4.147  -0.383   0.645  0.00  0.00    +0.249 C 
ATOM     34  H   UNL     1       4.037   0.940  -0.972  0.00  0.00    +0.157 HD
BRANCH  26  27
ATOM     27  C   UNL     1       5.620  -0.478   0.474  0.00  0.00    +0.037 A 
ATOM     28  C   UNL     1       6.295  -1.633   0.872  0.00  0.00    +0.016 A 
ATOM     29  C   UNL     1       6.328   0.586  -0.084  0.00  0.00    +0.016 A 
ATOM     30  C   UNL     1       7.678  -1.722   0.713  0.00  0.00    +0.046 A 
ATOM     31  C   UNL     1       7.711   0.496  -0.244  0.00  0.00    +0.046 A 
ATOM     32  C   UNL     1       8.386  -0.658   0.155  0.00  0.00    +0.120 A 
BRANCH  32   4
ATOM      4  O   UNL     1       9.735  -0.746  -0.001  0.00  0.00    -0.495 OA
ATOM     33  C   UNL     1      10.396   0.379  -0.578  0.00  0.00    +0.277 C 
ENDBRANCH  32   4
ENDBRANCH  26  27
ENDBRANCH  25   9
TORSDOF 6
