REMARK  Name = 45784303
REMARK  11 active torsions:
REMARK  status: ('A' for Active; 'I' for Inactive)
REMARK    1  A    between atoms: O_1  and  C_21
REMARK    2  A    between atoms: O_1  and  C_26
REMARK    3  A    between atoms: O_2  and  C_22
REMARK    4  A    between atoms: O_2  and  C_27
REMARK    5  A    between atoms: O_3  and  C_23
REMARK    6  A    between atoms: O_3  and  C_28
REMARK    7  A    between atoms: O_4  and  C_24
REMARK    8  A    between atoms: O_4  and  C_29
REMARK    9  A    between atoms: N_5  and  C_13
REMARK   10  A    between atoms: C_8  and  C_12
REMARK   11  A    between atoms: C_13  and  C_14
REMARK                            x       y       z     vdW  Elec       q    Type
REMARK                         _______ _______ _______ _____ _____    ______ ____
ROOT
ATOM      5  N   UNL     1      -0.852  -2.402   0.821  0.00  0.00    -0.297 NA
ATOM      8  C   UNL     1       1.296  -2.838  -0.097  0.00  0.00    +0.070 C 
ATOM      9  C   UNL     1       1.187  -3.368   1.341  0.00  0.00    +0.028 C 
ATOM     10  C   UNL     1      -0.128  -2.374  -0.454  0.00  0.00    +0.096 C 
ATOM     11  C   UNL     1      -0.307  -3.538   1.561  0.00  0.00    +0.085 C 
ENDROOT
BRANCH   8  12
ATOM      6  N   UNL     1       2.295  -0.597   0.438  0.00  0.00    -0.341 N 
ATOM      7  N   UNL     1       3.432  -1.841  -1.011  0.00  0.00    -0.232 NA
ATOM     12  C   UNL     1       2.364  -1.777  -0.248  0.00  0.00    +0.113 A 
ATOM     15  C   UNL     1       3.392   0.151   0.095  0.00  0.00    +0.070 A 
ATOM     16  C   UNL     1       4.086  -0.647  -0.810  0.00  0.00    +0.089 A 
ATOM     19  C   UNL     1       3.825   1.418   0.488  0.00  0.00    +0.073 A 
ATOM     20  C   UNL     1       5.284  -0.168  -1.367  0.00  0.00    +0.033 A 
ATOM     23  C   UNL     1       5.019   1.879  -0.077  0.00  0.00    +0.122 A 
ATOM     25  C   UNL     1       5.737   1.101  -0.988  0.00  0.00    +0.048 A 
ATOM     30  H   UNL     1       1.566  -0.320   1.082  0.00  0.00    +0.167 HD
BRANCH  23   3
ATOM      3  O   UNL     1       5.489   3.111   0.271  0.00  0.00    -0.495 OA
ATOM     28  C   UNL     1       4.714   3.859   1.205  0.00  0.00    +0.277 C 
ENDBRANCH  23   3
ENDBRANCH   8  12
BRANCH   5  13
ATOM     13  C   UNL     1      -2.294  -2.491   0.642  0.00  0.00    +0.119 C 
BRANCH  13  14
ATOM     14  C   UNL     1      -2.904  -1.151   0.331  0.00  0.00    -0.026 A 
ATOM     17  C   UNL     1      -3.290  -0.847  -0.975  0.00  0.00    +0.054 A 
ATOM     18  C   UNL     1      -3.082  -0.212   1.347  0.00  0.00    +0.054 A 
ATOM     21  C   UNL     1      -3.647   1.030   1.058  0.00  0.00    +0.165 A 
ATOM     22  C   UNL     1      -3.856   0.395  -1.263  0.00  0.00    +0.165 A 
ATOM     24  C   UNL     1      -4.034   1.334  -0.247  0.00  0.00    +0.204 A 
BRANCH  21   1
ATOM      1  O   UNL     1      -3.817   1.937   2.061  0.00  0.00    -0.491 OA
ATOM     26  C   UNL     1      -3.394   1.547   3.366  0.00  0.00    +0.277 C 
ENDBRANCH  21   1
BRANCH  22   2
ATOM      2  O   UNL     1      -4.228   0.680  -2.543  0.00  0.00    -0.491 OA
ATOM     27  C   UNL     1      -4.011  -0.334  -3.521  0.00  0.00    +0.277 C 
ENDBRANCH  22   2
BRANCH  24   4
ATOM      4  O   UNL     1      -4.586   2.548  -0.529  0.00  0.00    -0.488 OA
ATOM     29  C   UNL     1      -3.690   3.596  -0.895  0.00  0.00    +0.277 C 
ENDBRANCH  24   4
ENDBRANCH  13  14
ENDBRANCH   5  13
TORSDOF 7
