REMARK  Name = 40777681
REMARK  7 active torsions:
REMARK  status: ('A' for Active; 'I' for Inactive)
REMARK    1  A    between atoms: N_5  and  C_9
REMARK    2  A    between atoms: N_6  and  C_25
REMARK    3  A    between atoms: C_8  and  C_17
REMARK    4  A    between atoms: C_12  and  C_18
REMARK    5  A    between atoms: C_21  and  C_23
REMARK    6  A    between atoms: C_22  and  C_24
REMARK    7  A    between atoms: C_30  and  C_31
REMARK                            x       y       z     vdW  Elec       q    Type
REMARK                         _______ _______ _______ _____ _____    ______ ____
ROOT
ATOM      6  N   UNL     1       2.521  -0.639   0.110  0.00  0.00    -0.236 N 
ATOM      7  N   UNL     1       2.197  -1.943   0.133  0.00  0.00    -0.171 NA
ATOM     18  C   UNL     1       0.340  -0.615   0.220  0.00  0.00    +0.003 A 
ATOM     21  C   UNL     1       1.445   0.198   0.160  0.00  0.00    +0.046 A 
ATOM     22  C   UNL     1       0.863  -1.922   0.200  0.00  0.00    +0.064 A 
ATOM     23  C   UNL     1       1.562   1.670   0.148  0.00  0.00    +0.066 C 
ATOM     24  C   UNL     1       0.120  -3.194   0.245  0.00  0.00    +0.068 C 
ENDROOT
BRANCH   6  25
ATOM     25  C   UNL     1       3.863  -0.261   0.040  0.00  0.00    +0.066 A 
ATOM     26  C   UNL     1       4.281   0.938   0.618  0.00  0.00    +0.028 A 
ATOM     27  C   UNL     1       4.785  -1.081  -0.611  0.00  0.00    +0.028 A 
ATOM     28  C   UNL     1       5.621   1.317   0.544  0.00  0.00    +0.014 A 
ATOM     29  C   UNL     1       6.125  -0.701  -0.685  0.00  0.00    +0.014 A 
ATOM     30  C   UNL     1       6.543   0.497  -0.107  0.00  0.00    +0.055 A 
BRANCH  30  31
ATOM      1  F   UNL     1       8.831   0.013   0.399  0.00  0.00    -0.166 F 
ATOM      2  F   UNL     1       8.217   2.099   0.426  0.00  0.00    -0.166 F 
ATOM      3  F   UNL     1       8.434   1.048  -1.465  0.00  0.00    -0.166 F 
ATOM     31  C   UNL     1       7.976   0.904  -0.186  0.00  0.00    +0.417 C 
ENDBRANCH  30  31
ENDBRANCH   6  25
BRANCH  18  12
ATOM      9  C   UNL     1      -3.350  -1.024  -0.280  0.00  0.00    +0.097 C 
ATOM     12  C   UNL     1      -1.111  -0.198   0.292  0.00  0.00    +0.047 C 
ATOM     13  C   UNL     1      -1.962  -0.748  -0.871  0.00  0.00    +0.039 C 
ATOM     19  C   UNL     1      -3.070  -1.146   1.182  0.00  0.00    -0.009 C 
ATOM     20  C   UNL     1      -1.849  -0.700   1.498  0.00  0.00    -0.021 C 
BRANCH   9   5
ATOM      4  O   UNL     1      -6.241  -1.182  -0.432  0.00  0.00    -0.275 OA
ATOM      5  N   UNL     1      -4.272   0.059  -0.495  0.00  0.00    -0.309 N 
ATOM     17  C   UNL     1      -5.645  -0.115  -0.553  0.00  0.00    +0.217 C 
ATOM     32  H   UNL     1      -3.893   1.001  -0.533  0.00  0.00    +0.149 HD
BRANCH  17   8
ATOM      8  C   UNL     1      -6.373   1.181  -0.763  0.00  0.00    +0.075 C 
ATOM     10  C   UNL     1      -6.617   1.871   0.581  0.00  0.00    +0.013 C 
ATOM     11  C   UNL     1      -7.661   0.965  -1.560  0.00  0.00    +0.013 C 
ATOM     14  C   UNL     1      -7.750   1.234   1.384  0.00  0.00    +0.001 C 
ATOM     15  C   UNL     1      -8.792   0.353  -0.734  0.00  0.00    +0.001 C 
ATOM     16  C   UNL     1      -9.028   1.121   0.562  0.00  0.00    +0.000 C 
ENDBRANCH  17   8
ENDBRANCH   9   5
ENDBRANCH  18  12
TORSDOF 5
