REMARK  Name = 86769020
REMARK  5 active torsions:
REMARK  status: ('A' for Active; 'I' for Inactive)
REMARK    1  A    between atoms: O_3  and  C_19
REMARK    2  A    between atoms: O_3  and  C_20
REMARK    3  A    between atoms: N_4  and  C_9
REMARK    4  A    between atoms: N_6  and  C_18
REMARK    5  A    between atoms: C_18  and  C_19
REMARK                            x       y       z     vdW  Elec       q    Type
REMARK                         _______ _______ _______ _____ _____    ______ ____
ROOT
ATOM      2  O   UNL     1       3.109   1.958   0.389  0.00  0.00    -0.252 OA
ATOM      4  N   UNL     1      -1.707   0.475  -0.222  0.00  0.00    -0.296 NA
ATOM      5  N   UNL     1       1.012   1.188  -0.337  0.00  0.00    -0.278 N 
ATOM      6  N   UNL     1       2.841   0.043  -0.961  0.00  0.00    -0.281 N 
ATOM      7  C   UNL     1       0.513   0.171  -1.240  0.00  0.00    +0.109 C 
ATOM      8  C   UNL     1      -0.704  -0.527  -0.635  0.00  0.00    +0.108 C 
ATOM     10  C   UNL     1      -1.145   1.399   0.784  0.00  0.00    +0.104 C 
ATOM     11  C   UNL     1       1.723  -0.733  -1.471  0.00  0.00    +0.133 C 
ATOM     12  C   UNL     1       0.084   2.135   0.246  0.00  0.00    +0.125 C 
ATOM     15  C   UNL     1       2.409   1.167  -0.228  0.00  0.00    +0.305 C 
ENDROOT
BRANCH   4   9
ATOM      1  O   UNL     1      -5.718  -0.728   0.074  0.00  0.00    -0.380 OA
ATOM      9  C   UNL     1      -2.900  -0.185   0.302  0.00  0.00    +0.061 C 
ATOM     13  C   UNL     1      -3.968   0.852   0.661  0.00  0.00    +0.047 C 
ATOM     14  C   UNL     1      -3.464  -1.188  -0.709  0.00  0.00    +0.047 C 
ATOM     16  C   UNL     1      -5.256   0.160   1.092  0.00  0.00    +0.161 C 
ATOM     17  C   UNL     1      -4.780  -1.768  -0.202  0.00  0.00    +0.161 C 
ENDBRANCH   4   9
BRANCH   6  18
ATOM     18  C   UNL     1       4.208  -0.409  -1.088  0.00  0.00    +0.137 C 
BRANCH  18  19
ATOM     19  C   UNL     1       4.559  -1.429  -0.019  0.00  0.00    +0.178 C 
BRANCH  19   3
ATOM      3  O   UNL     1       4.430  -0.832   1.264  0.00  0.00    -0.381 OA
ATOM     20  C   UNL     1       4.754  -1.748   2.301  0.00  0.00    +0.194 C 
ENDBRANCH  19   3
ENDBRANCH  18  19
ENDBRANCH   6  18
TORSDOF 4
