REMARK  Name = 26742482
REMARK  9 active torsions:
REMARK  status: ('A' for Active; 'I' for Inactive)
REMARK    1  A    between atoms: N_4  and  C_15
REMARK    2  A    between atoms: N_7  and  C_29
REMARK    3  A    between atoms: N_7  and  C_32
REMARK    4  A    between atoms: N_7  and  C_33
REMARK    5  A    between atoms: C_9  and  C_16
REMARK    6  A    between atoms: C_10  and  C_15
REMARK    7  A    between atoms: C_18  and  C_21
REMARK    8  A    between atoms: C_19  and  C_22
REMARK    9  A    between atoms: C_20  and  C_23
REMARK                            x       y       z     vdW  Elec       q    Type
REMARK                         _______ _______ _______ _____ _____    ______ ____
ROOT
ATOM      3  N   UNL     1      -1.948  -2.406   1.448  0.00  0.00    -0.297 NA
ATOM      8  C   UNL     1      -1.581  -2.474  -1.129  0.00  0.00    +0.002 C 
ATOM      9  C   UNL     1      -0.230  -2.254  -0.393  0.00  0.00    +0.055 C 
ATOM     10  C   UNL     1      -2.905  -1.490   0.774  0.00  0.00    +0.074 C 
ATOM     11  C   UNL     1      -2.569  -1.359  -0.727  0.00  0.00    +0.024 C 
ATOM     12  C   UNL     1      -2.161  -3.805  -0.606  0.00  0.00    +0.019 C 
ATOM     13  C   UNL     1      -0.554  -2.023   1.111  0.00  0.00    +0.094 C 
ATOM     14  C   UNL     1      -2.190  -3.775   0.933  0.00  0.00    +0.085 C 
ENDROOT
BRANCH   9  16
ATOM      5  N   UNL     1       0.320  -0.529  -2.038  0.00  0.00    -0.237 NA
ATOM      6  N   UNL     1       2.401   0.684  -1.980  0.00  0.00    -0.232 NA
ATOM     16  C   UNL     1       0.727  -1.206  -0.944  0.00  0.00    +0.050 A 
ATOM     17  C   UNL     1       1.940  -0.997  -0.320  0.00  0.00    +0.052 A 
ATOM     18  C   UNL     1       2.744  -0.030  -0.888  0.00  0.00    +0.075 A 
ATOM     19  C   UNL     1       1.193   0.387  -2.496  0.00  0.00    +0.127 A 
ATOM     22  C   UNL     1       0.780   1.155  -3.706  0.00  0.00    +0.088 C 
BRANCH  18  21
ATOM     21  C   UNL     1       4.038   0.283  -0.331  0.00  0.00    +0.001 A 
ATOM     24  C   UNL     1       4.141   0.745   0.981  0.00  0.00    +0.012 A 
ATOM     25  C   UNL     1       5.188   0.124  -1.106  0.00  0.00    +0.012 A 
ATOM     27  C   UNL     1       5.391   1.047   1.519  0.00  0.00    +0.024 A 
ATOM     28  C   UNL     1       6.439   0.427  -0.568  0.00  0.00    +0.024 A 
ATOM     29  C   UNL     1       6.540   0.888   0.744  0.00  0.00    +0.029 A 
BRANCH  29   7
ATOM      7  N   UNL     1       7.805   1.194   1.288  0.00  0.00    -0.336 N 
ATOM     32  C   UNL     1       7.923   1.674   2.650  0.00  0.00    +0.129 C 
ATOM     33  C   UNL     1       9.006   1.025   0.493  0.00  0.00    +0.129 C 
ENDBRANCH  29   7
ENDBRANCH  18  21
ENDBRANCH   9  16
BRANCH  10  15
ATOM     15  C   UNL     1      -2.988  -0.126   1.462  0.00  0.00    +0.123 C 
BRANCH  15   4
ATOM      1  O   UNL     1      -5.754   0.011   2.220  0.00  0.00    -0.267 OA
ATOM      4  N   UNL     1      -4.000   0.688   0.861  0.00  0.00    -0.307 N 
ATOM     20  C   UNL     1      -5.325   0.693   1.293  0.00  0.00    +0.279 C 
ATOM     34  H   UNL     1      -3.737   1.280   0.078  0.00  0.00    +0.149 HD
BRANCH  20  23
ATOM      2  O   UNL     1      -5.759   2.299  -0.489  0.00  0.00    -0.458 OA
ATOM     23  C   UNL     1      -6.259   1.574   0.547  0.00  0.00    +0.189 A 
ATOM     26  C   UNL     1      -7.604   1.817   0.701  0.00  0.00    +0.054 A 
ATOM     30  C   UNL     1      -7.953   2.750  -0.304  0.00  0.00    +0.042 A 
ATOM     31  C   UNL     1      -6.796   3.011  -1.001  0.00  0.00    +0.196 A 
ENDBRANCH  20  23
ENDBRANCH  15   4
ENDBRANCH  10  15
TORSDOF 6
