REMARK  Name = 7673867
REMARK  4 active torsions:
REMARK  status: ('A' for Active; 'I' for Inactive)
REMARK    1  A    between atoms: N_2  and  C_11
REMARK    2  A    between atoms: N_4  and  C_22
REMARK    3  A    between atoms: C_20  and  C_23
REMARK    4  A    between atoms: C_26  and  C_29
REMARK                            x       y       z     vdW  Elec       q    Type
REMARK                         _______ _______ _______ _____ _____    ______ ____
ROOT
ATOM      1  O   UNL     1       1.797   1.052   1.899  0.00  0.00    -0.267 OA
ATOM      2  N   UNL     1      -2.841   0.717   0.027  0.00  0.00    -0.298 NA
ATOM      3  N   UNL     1       0.131   1.795   0.444  0.00  0.00    -0.311 N 
ATOM      6  C   UNL     1      -2.095   2.764   1.267  0.00  0.00    +0.024 C 
ATOM      7  C   UNL     1      -1.661   2.587  -1.136  0.00  0.00    +0.050 C 
ATOM      8  C   UNL     1      -2.058   3.561  -0.030  0.00  0.00    +0.017 C 
ATOM      9  C   UNL     1      -3.120   1.616   1.154  0.00  0.00    +0.090 C 
ATOM     10  C   UNL     1      -2.716   1.461  -1.235  0.00  0.00    +0.094 C 
ATOM     12  C   UNL     1      -0.678   2.261   1.579  0.00  0.00    +0.130 C 
ATOM     13  C   UNL     1      -0.285   2.004  -0.873  0.00  0.00    +0.026 A 
ATOM     18  C   UNL     1       0.519   1.673  -1.896  0.00  0.00    +0.022 A 
ATOM     19  C   UNL     1       1.383   1.225   0.751  0.00  0.00    +0.259 A 
ATOM     20  C   UNL     1       2.244   0.835  -0.418  0.00  0.00    +0.047 A 
ATOM     21  C   UNL     1       1.803   1.075  -1.661  0.00  0.00    +0.015 A 
ENDROOT
BRANCH   2  11
ATOM      4  N   UNL     1      -4.597  -3.154   0.031  0.00  0.00    -0.305 NA
ATOM     11  C   UNL     1      -3.862  -0.323  -0.078  0.00  0.00    +0.059 C 
ATOM     14  C   UNL     1      -3.979  -1.086   1.244  0.00  0.00    +0.034 C 
ATOM     15  C   UNL     1      -3.539  -1.296  -1.216  0.00  0.00    +0.034 C 
ATOM     16  C   UNL     1      -4.973  -2.245   1.123  0.00  0.00    +0.085 C 
ATOM     17  C   UNL     1      -4.547  -2.447  -1.256  0.00  0.00    +0.085 C 
ATOM     22  C   UNL     1      -5.527  -4.281  -0.039  0.00  0.00    +0.104 C 
ENDBRANCH   2  11
BRANCH  20  23
ATOM     23  C   UNL     1       3.518   0.221  -0.211  0.00  0.00    -0.011 A 
ATOM     24  C   UNL     1       3.621  -1.168  -0.134  0.00  0.00    +0.027 A 
ATOM     25  C   UNL     1       4.660   1.012  -0.085  0.00  0.00    +0.009 A 
ATOM     26  C   UNL     1       4.865  -1.766   0.070  0.00  0.00    +0.052 A 
ATOM     27  C   UNL     1       5.904   0.415   0.119  0.00  0.00    +0.002 A 
ATOM     28  C   UNL     1       6.006  -0.974   0.196  0.00  0.00    +0.019 A 
BRANCH  26  29
ATOM      5  N   UNL     1       5.056  -4.345   0.213  0.00  0.00    -0.191 NA
ATOM     29  C   UNL     1       4.970  -3.189   0.149  0.00  0.00    +0.099 C 
ENDBRANCH  26  29
ENDBRANCH  20  23
TORSDOF 3
