REMARK  Name = 11879616
REMARK  7 active torsions:
REMARK  status: ('A' for Active; 'I' for Inactive)
REMARK    1  A    between atoms: S_1  and  N_8
REMARK    2  A    between atoms: S_1  and  C_21
REMARK    3  A    between atoms: O_4  and  C_20
REMARK    4  A    between atoms: O_4  and  C_24
REMARK    5  A    between atoms: N_8  and  C_16
REMARK    6  A    between atoms: N_9  and  C_17
REMARK    7  A    between atoms: N_13  and  C_29
REMARK                            x       y       z     vdW  Elec       q    Type
REMARK                         _______ _______ _______ _____ _____    ______ ____
ROOT
ATOM      2  O   UNL     1      -4.050   2.622   0.932  0.00  0.00    -0.370 OA
ATOM      3  O   UNL     1      -2.401   1.360  -1.448  0.00  0.00    -0.370 OA
ATOM     14  C   UNL     1      -2.465   1.129  -0.032  0.00  0.00    +0.170 C 
ATOM     15  C   UNL     1      -2.647   2.474   0.646  0.00  0.00    +0.175 C 
ATOM     16  C   UNL     1      -3.717   0.361   0.314  0.00  0.00    +0.133 C 
ATOM     17  C   UNL     1      -2.222   3.493  -0.394  0.00  0.00    +0.171 C 
ATOM     18  C   UNL     1      -4.751   1.456   0.479  0.00  0.00    +0.183 C 
ATOM     19  C   UNL     1      -2.480   2.768  -1.710  0.00  0.00    +0.190 C 
ENDROOT
BRANCH  17   9
ATOM      9  N   UNL     1      -0.845   3.954  -0.200  0.00  0.00    -0.187 N 
ATOM     10  N   UNL     1      -0.582   5.041   0.532  0.00  0.00    -0.041 NA
ATOM     11  N   UNL     1       1.306   4.155  -0.257  0.00  0.00    -0.071 NA
ATOM     12  N   UNL     1       0.740   5.160   0.494  0.00  0.00    -0.020 NA
ATOM     20  C   UNL     1       0.303   3.419  -0.676  0.00  0.00    +0.342 A 
BRANCH  20   4
ATOM      4  O   UNL     1       0.380   2.341  -1.434  0.00  0.00    -0.423 OA
BRANCH   4  24
ATOM     24  C   UNL     1       1.475   1.489  -1.415  0.00  0.00    +0.134 A 
ATOM     28  C   UNL     1       2.008   1.110  -0.197  0.00  0.00    +0.069 A 
ATOM     29  C   UNL     1       3.110   0.255  -0.177  0.00  0.00    +0.033 A 
ATOM     30  C   UNL     1       2.001   1.045  -2.612  0.00  0.00    +0.046 A 
ATOM     37  C   UNL     1       3.657  -0.206  -1.375  0.00  0.00    +0.023 A 
ATOM     38  C   UNL     1       3.103   0.189  -2.592  0.00  0.00    +0.005 A 
BRANCH  29  13
ATOM      7  O   UNL     1       6.168  -0.263   2.281  0.00  0.00    -0.377 OA
ATOM     13  N   UNL     1       3.662  -0.138   1.035  0.00  0.00    -0.325 N 
ATOM     31  C   UNL     1       4.016   0.855   2.055  0.00  0.00    +0.133 C 
ATOM     32  C   UNL     1       4.328  -1.429   1.220  0.00  0.00    +0.133 C 
ATOM     34  C   UNL     1       5.537   1.005   2.067  0.00  0.00    +0.178 C 
ATOM     35  C   UNL     1       5.835  -1.199   1.248  0.00  0.00    +0.178 C 
ENDBRANCH  29  13
ENDBRANCH   4  24
ENDBRANCH  20   4
ENDBRANCH  17   9
BRANCH  16   8
ATOM      8  N   UNL     1      -3.534  -0.349   1.603  0.00  0.00    -0.182 NA
ATOM     41  H   UNL     1      -3.021   0.139   2.347  0.00  0.00    +0.148 HD
BRANCH   8   1
ATOM      1  S   UNL     1      -3.795  -2.024   1.688  0.00  0.00    +0.059 S 
ATOM      5  O   UNL     1      -5.119  -2.333   1.183  0.00  0.00    -0.153 OA
ATOM      6  O   UNL     1      -3.385  -2.494   2.998  0.00  0.00    -0.153 OA
BRANCH   1  21
ATOM     21  C   UNL     1      -2.611  -2.638   0.527  0.00  0.00    +0.106 A 
ATOM     22  C   UNL     1      -1.337  -2.955   0.965  0.00  0.00    +0.037 A 
ATOM     23  C   UNL     1      -2.980  -2.789  -0.795  0.00  0.00    +0.029 A 
ATOM     25  C   UNL     1      -0.385  -3.443   0.055  0.00  0.00    -0.016 A 
ATOM     26  C   UNL     1      -2.048  -3.273  -1.712  0.00  0.00    +0.010 A 
ATOM     27  C   UNL     1      -0.746  -3.604  -1.304  0.00  0.00    -0.018 A 
ATOM     33  C   UNL     1       0.917  -3.775   0.464  0.00  0.00    +0.008 A 
ATOM     36  C   UNL     1       0.206  -4.093  -2.214  0.00  0.00    +0.008 A 
ATOM     39  C   UNL     1       1.850  -4.259  -0.453  0.00  0.00    +0.001 A 
ATOM     40  C   UNL     1       1.496  -4.417  -1.790  0.00  0.00    +0.001 A 
ENDBRANCH   1  21
ENDBRANCH   8   1
ENDBRANCH  16   8
TORSDOF 7
