REMARK  Name = 75536956
REMARK  4 active torsions:
REMARK  status: ('A' for Active; 'I' for Inactive)
REMARK    1  A    between atoms: O_2  and  C_8
REMARK    2  A    between atoms: N_3  and  C_6
REMARK    3  A    between atoms: N_4  and  C_17
REMARK    4  A    between atoms: C_6  and  C_9
REMARK                            x       y       z     vdW  Elec       q    Type
REMARK                         _______ _______ _______ _____ _____    ______ ____
ROOT
ATOM      6  C   UNL     1       0.444   1.052   1.331  0.00  0.00    +0.121 C 
ENDROOT
BRANCH   6   9
ATOM      4  N   UNL     1      -2.966   1.341  -0.020  0.00  0.00    -0.349 N 
ATOM      9  C   UNL     1      -0.939   0.884   0.760  0.00  0.00    -0.008 A 
ATOM     12  C   UNL     1      -1.565  -0.342   0.402  0.00  0.00    +0.004 A 
ATOM     13  C   UNL     1      -2.836  -0.028  -0.084  0.00  0.00    +0.049 A 
ATOM     14  C   UNL     1      -1.825   1.901   0.489  0.00  0.00    +0.091 A 
ATOM     15  C   UNL     1      -1.171  -1.695   0.446  0.00  0.00    +0.010 A 
ATOM     16  C   UNL     1      -3.736  -1.001  -0.530  0.00  0.00    +0.026 A 
ATOM     17  C   UNL     1      -4.133   2.095  -0.426  0.00  0.00    +0.149 C 
ATOM     18  C   UNL     1      -2.061  -2.679   0.003  0.00  0.00    +0.001 A 
ATOM     19  C   UNL     1      -3.324  -2.336  -0.478  0.00  0.00    +0.002 A 
ENDBRANCH   6   9
BRANCH   6   3
ATOM      1  O   UNL     1       3.523   0.176  -1.880  0.00  0.00    -0.376 OA
ATOM      3  N   UNL     1       1.470   0.503   0.444  0.00  0.00    -0.293 NA
ATOM      5  C   UNL     1       2.633   0.068   1.226  0.00  0.00    +0.118 C 
ATOM      7  C   UNL     1       1.787   1.428  -0.645  0.00  0.00    +0.113 C 
ATOM      8  C   UNL     1       3.954  -0.169   0.477  0.00  0.00    +0.154 C 
ATOM     10  C   UNL     1       2.182   0.644  -1.897  0.00  0.00    +0.175 C 
ATOM     11  C   UNL     1       3.791  -0.814  -0.893  0.00  0.00    +0.192 C 
BRANCH   8   2
ATOM      2  O   UNL     1       4.769  -1.028   1.275  0.00  0.00    -0.388 OA
ATOM     20  H   UNL     1       4.898  -0.593   2.135  0.00  0.00    +0.210 HD
ENDBRANCH   8   2
ENDBRANCH   6   3
TORSDOF 3
