REMARK  Name = 28961950
REMARK  12 active torsions:
REMARK  status: ('A' for Active; 'I' for Inactive)
REMARK    1  A    between atoms: O_2  and  C_12
REMARK    2  A    between atoms: O_3  and  C_19
REMARK    3  A    between atoms: O_4  and  C_22
REMARK    4  A    between atoms: O_4  and  C_28
REMARK    5  A    between atoms: O_6  and  C_24
REMARK    6  A    between atoms: O_6  and  C_29
REMARK    7  A    between atoms: N_7  and  C_10
REMARK    8  A    between atoms: N_8  and  C_20
REMARK    9  A    between atoms: N_9  and  C_16
REMARK   10  A    between atoms: C_11  and  C_16
REMARK   11  A    between atoms: C_13  and  C_19
REMARK   12  A    between atoms: C_21  and  C_24
REMARK                            x       y       z     vdW  Elec       q    Type
REMARK                         _______ _______ _______ _____ _____    ______ ____
ROOT
ATOM      1  O   UNL     1       3.442   1.512   0.560  0.00  0.00    -0.365 OA
ATOM     10  C   UNL     1       1.062   1.560   0.602  0.00  0.00    +0.118 C 
ATOM     11  C   UNL     1       2.288   0.648   0.461  0.00  0.00    +0.155 C 
ATOM     12  C   UNL     1       1.580   2.907   0.122  0.00  0.00    +0.165 C 
ATOM     13  C   UNL     1       2.998   2.878   0.679  0.00  0.00    +0.174 C 
ENDROOT
BRANCH  10   7
ATOM      7  N   UNL     1      -0.157   1.101  -0.040  0.00  0.00    -0.292 NA
ATOM      8  N   UNL     1      -2.892   0.286  -0.162  0.00  0.00    -0.325 N 
ATOM     14  C   UNL     1      -0.570  -0.197   0.508  0.00  0.00    +0.104 C 
ATOM     15  C   UNL     1      -1.234   2.083   0.137  0.00  0.00    +0.104 C 
ATOM     17  C   UNL     1      -1.822  -0.719  -0.200  0.00  0.00    +0.120 C 
ATOM     18  C   UNL     1      -2.509   1.637  -0.583  0.00  0.00    +0.120 C 
BRANCH   8  20
ATOM     20  C   UNL     1      -4.210  -0.149  -0.341  0.00  0.00    +0.072 A 
ATOM     22  C   UNL     1      -4.778  -1.074   0.535  0.00  0.00    +0.141 A 
ATOM     23  C   UNL     1      -4.957   0.350  -1.408  0.00  0.00    +0.027 A 
ATOM     25  C   UNL     1      -6.092  -1.500   0.345  0.00  0.00    +0.047 A 
ATOM     26  C   UNL     1      -6.271  -0.075  -1.599  0.00  0.00    +0.002 A 
ATOM     27  C   UNL     1      -6.839  -1.000  -0.722  0.00  0.00    +0.004 A 
BRANCH  22   4
ATOM      4  O   UNL     1      -4.065  -1.574   1.584  0.00  0.00    -0.493 OA
ATOM     28  C   UNL     1      -4.141  -0.862   2.817  0.00  0.00    +0.277 C 
ENDBRANCH  22   4
ENDBRANCH   8  20
ENDBRANCH  10   7
BRANCH  12   2
ATOM      2  O   UNL     1       1.607   2.979  -1.298  0.00  0.00    -0.388 OA
ATOM     30  H   UNL     1       1.842   3.890  -1.542  0.00  0.00    +0.210 HD
ENDBRANCH  12   2
BRANCH  11  16
ATOM     16  C   UNL     1       2.415  -0.128  -0.845  0.00  0.00    +0.137 C 
BRANCH  16   9
ATOM      5  O   UNL     1       2.614  -2.865   0.072  0.00  0.00    -0.273 OA
ATOM      9  N   UNL     1       3.604  -0.969  -0.837  0.00  0.00    -0.311 N 
ATOM     21  C   UNL     1       3.591  -2.269  -0.375  0.00  0.00    +0.239 C 
ATOM     31  H   UNL     1       4.472  -0.566  -1.179  0.00  0.00    +0.149 HD
BRANCH  21  24
ATOM     24  C   UNL     1       4.959  -2.906  -0.484  0.00  0.00    +0.255 C 
BRANCH  24   6
ATOM      6  O   UNL     1       4.927  -4.239  -0.021  0.00  0.00    -0.374 OA
ATOM     29  C   UNL     1       6.204  -4.865  -0.112  0.00  0.00    +0.194 C 
ENDBRANCH  24   6
ENDBRANCH  21  24
ENDBRANCH  16   9
ENDBRANCH  11  16
BRANCH  13  19
ATOM     19  C   UNL     1       3.993   3.790  -0.016  0.00  0.00    +0.190 C 
BRANCH  19   3
ATOM      3  O   UNL     1       5.255   3.660   0.618  0.00  0.00    -0.392 OA
ATOM     32  H   UNL     1       5.870   4.256   0.156  0.00  0.00    +0.210 HD
ENDBRANCH  19   3
ENDBRANCH  13  19
TORSDOF 10
