REMARK  Name = 40780575
REMARK  8 active torsions:
REMARK  status: ('A' for Active; 'I' for Inactive)
REMARK    1  A    between atoms: N_3  and  C_13
REMARK    2  A    between atoms: N_4  and  C_14
REMARK    3  A    between atoms: N_5  and  C_26
REMARK    4  A    between atoms: N_5  and  C_27
REMARK    5  A    between atoms: N_5  and  C_28
REMARK    6  A    between atoms: C_7  and  C_13
REMARK    7  A    between atoms: C_8  and  C_14
REMARK    8  A    between atoms: C_20  and  C_21
REMARK                            x       y       z     vdW  Elec       q    Type
REMARK                         _______ _______ _______ _____ _____    ______ ____
ROOT
ATOM      2  N   UNL     1       2.027  -2.306   0.577  0.00  0.00    -0.298 NA
ATOM      6  C   UNL     1       2.300  -1.266  -1.792  0.00  0.00    -0.003 C 
ATOM      7  C   UNL     1       3.428  -0.791  -0.847  0.00  0.00    +0.020 C 
ATOM      8  C   UNL     1       0.757  -1.655   0.157  0.00  0.00    +0.074 C 
ATOM      9  C   UNL     1       0.935  -0.901  -1.180  0.00  0.00    +0.024 C 
ATOM     10  C   UNL     1       3.135  -1.321   0.575  0.00  0.00    +0.089 C 
ATOM     11  C   UNL     1       2.379  -2.804  -1.845  0.00  0.00    +0.019 C 
ATOM     12  C   UNL     1       2.347  -3.364  -0.412  0.00  0.00    +0.085 C 
ENDROOT
BRANCH   7  13
ATOM     13  C   UNL     1       3.623   0.723  -0.855  0.00  0.00    +0.089 C 
BRANCH  13   3
ATOM      3  N   UNL     1       4.759   1.108  -0.019  0.00  0.00    -0.302 NA
ATOM     15  C   UNL     1       4.677   2.531   0.337  0.00  0.00    +0.084 C 
ATOM     16  C   UNL     1       6.025   0.803  -0.700  0.00  0.00    +0.084 C 
ATOM     17  C   UNL     1       5.832   2.939   1.253  0.00  0.00    +0.015 C 
ATOM     18  C   UNL     1       7.224   1.154   0.182  0.00  0.00    +0.015 C 
ATOM     19  C   UNL     1       7.181   2.613   0.623  0.00  0.00    +0.002 C 
ENDBRANCH  13   3
ENDBRANCH   7  13
BRANCH   8  14
ATOM     14  C   UNL     1       0.176  -0.750   1.246  0.00  0.00    +0.123 C 
BRANCH  14   4
ATOM      1  O   UNL     1      -2.350  -2.001   1.794  0.00  0.00    -0.270 OA
ATOM      4  N   UNL     1      -1.137  -0.258   0.863  0.00  0.00    -0.310 N 
ATOM     20  C   UNL     1      -2.297  -0.940   1.177  0.00  0.00    +0.244 C 
ATOM     29  H   UNL     1      -1.168   0.641   0.396  0.00  0.00    +0.149 HD
BRANCH  20  21
ATOM     21  C   UNL     1      -3.556  -0.320   0.691  0.00  0.00    +0.037 A 
ATOM     22  C   UNL     1      -4.753  -0.548   1.369  0.00  0.00    +0.015 A 
ATOM     23  C   UNL     1      -3.541   0.491  -0.445  0.00  0.00    +0.015 A 
ATOM     24  C   UNL     1      -5.936   0.033   0.912  0.00  0.00    +0.024 A 
ATOM     25  C   UNL     1      -4.724   1.072  -0.902  0.00  0.00    +0.024 A 
ATOM     26  C   UNL     1      -5.921   0.844  -0.224  0.00  0.00    +0.029 A 
BRANCH  26   5
ATOM      5  N   UNL     1      -7.116   1.432  -0.686  0.00  0.00    -0.336 N 
ATOM     27  C   UNL     1      -8.366   1.202   0.011  0.00  0.00    +0.129 C 
ATOM     28  C   UNL     1      -7.109   2.282  -1.861  0.00  0.00    +0.129 C 
ENDBRANCH  26   5
ENDBRANCH  20  21
ENDBRANCH  14   4
ENDBRANCH   8  14
TORSDOF 6
