REMARK  Name = 51136788
REMARK  8 active torsions:
REMARK  status: ('A' for Active; 'I' for Inactive)
REMARK    1  A    between atoms: O_3  and  C_18
REMARK    2  A    between atoms: N_7  and  C_23
REMARK    3  A    between atoms: C_8  and  C_13
REMARK    4  A    between atoms: C_9  and  C_14
REMARK    5  A    between atoms: C_13  and  C_15
REMARK    6  A    between atoms: C_14  and  C_18
REMARK    7  A    between atoms: C_23  and  C_27
REMARK    8  A    between atoms: C_27  and  C_28
REMARK                            x       y       z     vdW  Elec       q    Type
REMARK                         _______ _______ _______ _____ _____    ______ ____
ROOT
ATOM      2  O   UNL     1      -0.025  -3.046  -1.751  0.00  0.00    -0.253 OA
ATOM      5  N   UNL     1       1.145  -1.923  -0.095  0.00  0.00    -0.285 N 
ATOM      7  N   UNL     1      -1.216  -2.049  -0.064  0.00  0.00    -0.299 N 
ATOM      8  C   UNL     1       1.929   0.213   0.889  0.00  0.00    +0.016 C 
ATOM      9  C   UNL     1       3.310  -0.029   0.224  0.00  0.00    +0.006 C 
ATOM     10  C   UNL     1       3.197  -0.931  -1.018  0.00  0.00    +0.023 C 
ATOM     11  C   UNL     1       1.236  -1.136   1.144  0.00  0.00    +0.113 C 
ATOM     12  C   UNL     1       2.441  -2.222  -0.705  0.00  0.00    +0.109 C 
ATOM     16  C   UNL     1      -0.031  -2.387  -0.706  0.00  0.00    +0.302 C 
ATOM     29  H   UNL     1      -1.223  -1.491   0.777  0.00  0.00    +0.150 HD
ENDROOT
BRANCH   8  13
ATOM     13  C   UNL     1       1.008   1.146   0.093  0.00  0.00    +0.061 C 
BRANCH  13  15
ATOM      1  F   UNL     1      -5.070   2.183  -1.991  0.00  0.00    -0.205 F 
ATOM      6  N   UNL     1      -0.279   1.241   2.119  0.00  0.00    -0.287 NA
ATOM     15  C   UNL     1      -0.297   1.329   0.830  0.00  0.00    +0.044 C 
ATOM     17  C   UNL     1      -1.530   1.592   0.045  0.00  0.00    -0.001 A 
ATOM     19  C   UNL     1      -2.751   1.373   0.696  0.00  0.00    -0.034 A 
ATOM     20  C   UNL     1      -2.734   0.881   2.112  0.00  0.00    +0.059 C 
ATOM     21  C   UNL     1      -1.535   1.478   2.838  0.00  0.00    +0.146 C 
ATOM     22  C   UNL     1      -1.503   2.023  -1.283  0.00  0.00    +0.013 A 
ATOM     24  C   UNL     1      -3.948   1.563  -0.001  0.00  0.00    +0.042 A 
ATOM     25  C   UNL     1      -2.703   2.226  -1.965  0.00  0.00    +0.039 A 
ATOM     26  C   UNL     1      -3.922   1.994  -1.327  0.00  0.00    +0.124 A 
ENDBRANCH  13  15
ENDBRANCH   8  13
BRANCH   9  14
ATOM     14  C   UNL     1       4.048   1.266  -0.116  0.00  0.00    +0.124 C 
BRANCH  14  18
ATOM      4  O   UNL     1       6.123  -0.012  -0.087  0.00  0.00    -0.251 OA
ATOM     18  C   UNL     1       5.531   1.047  -0.232  0.00  0.00    +0.305 C 
BRANCH  18   3
ATOM      3  O   UNL     1       6.145   2.220  -0.529  0.00  0.00    -0.481 OA
ATOM     30  H   UNL     1       7.117   2.114  -0.613  0.00  0.00    +0.295 HD
ENDBRANCH  18   3
ENDBRANCH  14  18
ENDBRANCH   9  14
BRANCH   7  23
ATOM     23  C   UNL     1      -2.508  -2.446  -0.576  0.00  0.00    +0.105 C 
BRANCH  23  27
ATOM     27  C   UNL     1      -2.959  -3.796  -0.030  0.00  0.00    +0.015 C 
ATOM     28  C   UNL     1      -3.102  -3.799   1.486  0.00  0.00    +0.005 C 
ENDBRANCH  23  27
ENDBRANCH   7  23
TORSDOF 7
