REMARK  Name = 51138104
REMARK  10 active torsions:
REMARK  status: ('A' for Active; 'I' for Inactive)
REMARK    1  A    between atoms: N_4  and  C_7
REMARK    2  A    between atoms: N_5  and  C_24
REMARK    3  A    between atoms: C_8  and  C_17
REMARK    4  A    between atoms: C_11  and  C_18
REMARK    5  A    between atoms: C_17  and  C_20
REMARK    6  A    between atoms: C_20  and  C_26
REMARK    7  A    between atoms: C_20  and  C_27
REMARK    8  A    between atoms: C_24  and  C_28
REMARK    9  A    between atoms: C_29  and  C_31
REMARK   10  A    between atoms: C_30  and  C_32
REMARK                            x       y       z     vdW  Elec       q    Type
REMARK                         _______ _______ _______ _____ _____    ______ ____
ROOT
ATOM      3  N   UNL     1       2.035  -0.393   0.495  0.00  0.00    -0.299 NA
ATOM      5  N   UNL     1      -2.801  -0.019  -0.912  0.00  0.00    -0.342 N 
ATOM      8  C   UNL     1       1.720  -1.655  -0.187  0.00  0.00    +0.085 C 
ATOM     11  C   UNL     1       1.793   0.804  -0.299  0.00  0.00    +0.145 C 
ATOM     13  C   UNL     1       0.435   1.425   0.023  0.00  0.00    +0.065 C 
ATOM     14  C   UNL     1       0.248  -1.869  -0.553  0.00  0.00    -0.021 A 
ATOM     15  C   UNL     1      -0.743  -0.846  -0.599  0.00  0.00    +0.008 A 
ATOM     16  C   UNL     1      -0.727   0.573  -0.365  0.00  0.00    -0.020 A 
ATOM     19  C   UNL     1      -2.054  -1.172  -0.963  0.00  0.00    +0.050 A 
ATOM     21  C   UNL     1      -2.012   1.036  -0.559  0.00  0.00    +0.091 A 
ATOM     22  C   UNL     1      -0.170  -3.163  -0.955  0.00  0.00    +0.006 A 
ATOM     23  C   UNL     1      -2.457  -2.463  -1.311  0.00  0.00    +0.026 A 
ATOM     25  C   UNL     1      -1.485  -3.455  -1.313  0.00  0.00    +0.002 A 
ATOM     33  H   UNL     1       1.563  -0.338   1.397  0.00  0.00    +0.123 HD
ENDROOT
BRANCH  11  18
ATOM      1  O   UNL     1       2.723   2.561   1.016  0.00  0.00    -0.274 OA
ATOM      4  N   UNL     1       4.027   1.635  -0.667  0.00  0.00    -0.311 N 
ATOM     18  C   UNL     1       2.876   1.762   0.094  0.00  0.00    +0.231 C 
ATOM     34  H   UNL     1       4.039   0.934  -1.404  0.00  0.00    +0.149 HD
BRANCH   4   7
ATOM      7  C   UNL     1       5.220   2.471  -0.441  0.00  0.00    +0.073 C 
ATOM      9  C   UNL     1       6.476   2.005  -1.206  0.00  0.00    +0.022 C 
ATOM     10  C   UNL     1       5.985   2.147   0.859  0.00  0.00    +0.022 C 
ATOM     12  C   UNL     1       7.285   2.365   0.057  0.00  0.00    +0.004 C 
ENDBRANCH   4   7
ENDBRANCH  11  18
BRANCH   8  17
ATOM     17  C   UNL     1       2.260  -2.749   0.752  0.00  0.00    +0.026 C 
BRANCH  17  20
ATOM     20  C   UNL     1       3.783  -2.899   0.684  0.00  0.00    -0.015 C 
ATOM     26  C   UNL     1       4.219  -4.042   1.603  0.00  0.00    +0.007 C 
ATOM     27  C   UNL     1       4.519  -1.615   1.069  0.00  0.00    +0.007 C 
ENDBRANCH  17  20
ENDBRANCH   8  17
BRANCH   5  24
ATOM     24  C   UNL     1      -4.214   0.084  -1.206  0.00  0.00    +0.162 C 
BRANCH  24  28
ATOM      2  O   UNL     1      -6.175   2.090   1.204  0.00  0.00    -0.359 OA
ATOM      6  N   UNL     1      -6.143   0.884   1.894  0.00  0.00    -0.083 NA
ATOM     28  C   UNL     1      -5.018   0.678  -0.075  0.00  0.00    +0.037 A 
ATOM     29  C   UNL     1      -5.502   1.955   0.033  0.00  0.00    +0.139 A 
ATOM     30  C   UNL     1      -5.447   0.056   1.110  0.00  0.00    +0.086 A 
ATOM     31  C   UNL     1      -5.439   3.146  -0.824  0.00  0.00    +0.089 C 
ATOM     32  C   UNL     1      -5.216  -1.333   1.542  0.00  0.00    +0.069 C 
ENDBRANCH  24  28
ENDBRANCH   5  24
TORSDOF 6
