REMARK  Name = 45783374
REMARK  9 active torsions:
REMARK  status: ('A' for Active; 'I' for Inactive)
REMARK    1  A    between atoms: O_2  and  C_29
REMARK    2  A    between atoms: O_2  and  C_30
REMARK    3  A    between atoms: N_3  and  C_13
REMARK    4  A    between atoms: N_6  and  C_26
REMARK    5  A    between atoms: C_9  and  C_14
REMARK    6  A    between atoms: C_13  and  C_15
REMARK    7  A    between atoms: C_18  and  C_19
REMARK    8  A    between atoms: C_20  and  C_25
REMARK    9  A    between atoms: C_26  and  C_29
REMARK                            x       y       z     vdW  Elec       q    Type
REMARK                         _______ _______ _______ _____ _____    ______ ____
ROOT
ATOM      1  O   UNL     1       0.761   0.921  -2.246  0.00  0.00    -0.336 OA
ATOM      4  N   UNL     1      -0.400  -0.666  -1.174  0.00  0.00    -0.190 NA
ATOM      5  N   UNL     1      -0.519   1.450  -2.035  0.00  0.00    -0.056 NA
ATOM     14  C   UNL     1       0.746  -0.327  -1.709  0.00  0.00    +0.245 A 
ATOM     18  C   UNL     1      -1.144   0.455  -1.399  0.00  0.00    +0.205 A 
ENDROOT
BRANCH  18  19
ATOM      6  N   UNL     1      -2.107  -0.928   0.888  0.00  0.00    -0.326 N 
ATOM      7  N   UNL     1      -4.280  -0.049   0.561  0.00  0.00    -0.240 NA
ATOM     19  C   UNL     1      -2.511   0.549  -0.975  0.00  0.00    +0.062 A 
ATOM     23  C   UNL     1      -2.998  -0.118   0.138  0.00  0.00    +0.130 A 
ATOM     24  C   UNL     1      -3.398   1.338  -1.700  0.00  0.00    +0.016 A 
ATOM     27  C   UNL     1      -4.724   1.435  -1.296  0.00  0.00    +0.020 A 
ATOM     28  C   UNL     1      -5.112   0.728  -0.169  0.00  0.00    +0.113 A 
ATOM     31  H   UNL     1      -1.122  -0.703   0.804  0.00  0.00    +0.148 HD
BRANCH   6  26
ATOM     26  C   UNL     1      -2.517  -1.651   2.046  0.00  0.00    +0.131 C 
BRANCH  26  29
ATOM     29  C   UNL     1      -1.331  -2.391   2.643  0.00  0.00    +0.178 C 
BRANCH  29   2
ATOM      2  O   UNL     1      -0.831  -3.326   1.696  0.00  0.00    -0.381 OA
ATOM     30  C   UNL     1       0.278  -4.048   2.212  0.00  0.00    +0.194 C 
ENDBRANCH  29   2
ENDBRANCH  26  29
ENDBRANCH   6  26
ENDBRANCH  18  19
BRANCH  14   9
ATOM      3  N   UNL     1       2.536  -1.550  -0.489  0.00  0.00    -0.287 NA
ATOM      9  C   UNL     1       2.032  -1.120  -1.808  0.00  0.00    +0.146 C 
ATOM     10  C   UNL     1       1.866  -2.425  -2.608  0.00  0.00    +0.030 C 
ATOM     11  C   UNL     1       2.358  -3.526  -1.680  0.00  0.00    +0.017 C 
ATOM     12  C   UNL     1       3.269  -2.797  -0.713  0.00  0.00    +0.085 C 
BRANCH   3  13
ATOM     13  C   UNL     1       3.357  -0.542   0.169  0.00  0.00    +0.120 C 
BRANCH  13  15
ATOM     15  C   UNL     1       2.520   0.523   0.825  0.00  0.00    -0.032 A 
ATOM     16  C   UNL     1       2.671   1.859   0.454  0.00  0.00    +0.023 A 
ATOM     17  C   UNL     1       1.590   0.172   1.804  0.00  0.00    +0.005 A 
ATOM     20  C   UNL     1       1.894   2.844   1.061  0.00  0.00    +0.052 A 
ATOM     21  C   UNL     1       0.812   1.158   2.411  0.00  0.00    +0.002 A 
ATOM     22  C   UNL     1       0.964   2.494   2.040  0.00  0.00    +0.019 A 
BRANCH  20  25
ATOM      8  N   UNL     1       2.173   5.325   0.372  0.00  0.00    -0.191 NA
ATOM     25  C   UNL     1       2.048   4.213   0.681  0.00  0.00    +0.099 C 
ENDBRANCH  20  25
ENDBRANCH  13  15
ENDBRANCH   3  13
ENDBRANCH  14   9
TORSDOF 8
