REMARK  Name = 75367767
REMARK  6 active torsions:
REMARK  status: ('A' for Active; 'I' for Inactive)
REMARK    1  A    between atoms: O_3  and  C_9
REMARK    2  A    between atoms: O_3  and  C_17
REMARK    3  A    between atoms: O_5  and  C_28
REMARK    4  A    between atoms: O_5  and  C_29
REMARK    5  A    between atoms: N_8  and  C_20
REMARK    6  A    between atoms: C_20  and  C_21
REMARK                            x       y       z     vdW  Elec       q    Type
REMARK                         _______ _______ _______ _____ _____    ______ ____
ROOT
ATOM      1  S   UNL     1      -0.934   0.843  -0.357  0.00  0.00    -0.052 S 
ATOM      2  O   UNL     1      -4.056  -3.162  -0.048  0.00  0.00    -0.375 OA
ATOM      6  N   UNL     1      -2.735  -0.894  -1.325  0.00  0.00    -0.304 N 
ATOM      7  N   UNL     1      -3.472   1.250  -0.563  0.00  0.00    -0.225 NA
ATOM      9  C   UNL     1      -1.643  -2.675   0.037  0.00  0.00    +0.221 C 
ATOM     10  C   UNL     1      -1.702  -1.941  -1.308  0.00  0.00    +0.154 C 
ATOM     11  C   UNL     1      -4.072  -1.364  -1.711  0.00  0.00    +0.135 C 
ATOM     12  C   UNL     1      -2.966  -2.804   0.795  0.00  0.00    +0.206 C 
ATOM     13  C   UNL     1      -4.782  -2.032  -0.538  0.00  0.00    +0.179 C 
ATOM     14  C   UNL     1      -2.522   0.371  -0.781  0.00  0.00    +0.162 A 
ATOM     15  C   UNL     1      -1.539   2.368   0.173  0.00  0.00    +0.041 A 
ATOM     16  C   UNL     1      -2.924   2.401  -0.016  0.00  0.00    +0.080 A 
ATOM     18  C   UNL     1      -0.839   3.457   0.717  0.00  0.00    +0.017 A 
ATOM     19  C   UNL     1      -3.631   3.566   0.353  0.00  0.00    +0.029 A 
ATOM     22  C   UNL     1      -1.562   4.598   1.074  0.00  0.00    +0.001 A 
ATOM     23  C   UNL     1      -2.940   4.654   0.895  0.00  0.00    +0.002 A 
ENDROOT
BRANCH   9   3
ATOM      3  O   UNL     1      -0.706  -2.041   0.907  0.00  0.00    -0.443 OA
BRANCH   3  17
ATOM      4  O   UNL     1       0.981  -3.315   0.011  0.00  0.00    -0.226 OA
ATOM      8  N   UNL     1       1.385  -1.764   1.689  0.00  0.00    -0.277 N 
ATOM     17  C   UNL     1       0.594  -2.455   0.795  0.00  0.00    +0.401 C 
ATOM     30  H   UNL     1       0.941  -1.067   2.278  0.00  0.00    +0.152 HD
BRANCH   8  20
ATOM     20  C   UNL     1       2.809  -1.967   1.822  0.00  0.00    +0.142 C 
BRANCH  20  21
ATOM     21  C   UNL     1       3.592  -1.065   0.913  0.00  0.00    -0.030 A 
ATOM     24  C   UNL     1       4.446  -1.611  -0.046  0.00  0.00    +0.009 A 
ATOM     25  C   UNL     1       3.467   0.320   1.027  0.00  0.00    +0.009 A 
ATOM     26  C   UNL     1       5.173  -0.773  -0.891  0.00  0.00    +0.046 A 
ATOM     27  C   UNL     1       4.194   1.158   0.183  0.00  0.00    +0.046 A 
ATOM     28  C   UNL     1       5.047   0.612  -0.776  0.00  0.00    +0.120 A 
BRANCH  28   5
ATOM      5  O   UNL     1       5.757   1.430  -1.601  0.00  0.00    -0.495 OA
ATOM     29  C   UNL     1       5.581   2.835  -1.430  0.00  0.00    +0.277 C 
ENDBRANCH  28   5
ENDBRANCH  20  21
ENDBRANCH   8  20
ENDBRANCH   3  17
ENDBRANCH   9   3
TORSDOF 5
