REMARK  Name = 51138105
REMARK  10 active torsions:
REMARK  status: ('A' for Active; 'I' for Inactive)
REMARK    1  A    between atoms: N_4  and  C_8
REMARK    2  A    between atoms: N_5  and  C_25
REMARK    3  A    between atoms: C_7  and  C_18
REMARK    4  A    between atoms: C_9  and  C_19
REMARK    5  A    between atoms: C_18  and  C_21
REMARK    6  A    between atoms: C_21  and  C_27
REMARK    7  A    between atoms: C_21  and  C_28
REMARK    8  A    between atoms: C_25  and  C_29
REMARK    9  A    between atoms: C_30  and  C_32
REMARK   10  A    between atoms: C_31  and  C_33
REMARK                            x       y       z     vdW  Elec       q    Type
REMARK                         _______ _______ _______ _____ _____    ______ ____
ROOT
ATOM      3  N   UNL     1      -1.810  -1.155  -0.720  0.00  0.00    -0.299 NA
ATOM      5  N   UNL     1       2.511   1.054   0.675  0.00  0.00    -0.342 N 
ATOM      7  C   UNL     1      -1.190  -2.070   0.247  0.00  0.00    +0.085 C 
ATOM      9  C   UNL     1      -2.028   0.197  -0.225  0.00  0.00    +0.145 C 
ATOM     12  C   UNL     1      -0.903   1.138  -0.651  0.00  0.00    +0.065 C 
ATOM     13  C   UNL     1       0.233  -1.713   0.689  0.00  0.00    -0.021 A 
ATOM     14  C   UNL     1       0.850  -0.440   0.517  0.00  0.00    +0.008 A 
ATOM     15  C   UNL     1       0.421   0.812  -0.045  0.00  0.00    -0.020 A 
ATOM     20  C   UNL     1       2.156  -0.238   0.979  0.00  0.00    +0.050 A 
ATOM     22  C   UNL     1       1.475   1.696   0.065  0.00  0.00    +0.091 A 
ATOM     23  C   UNL     1       0.989  -2.683   1.395  0.00  0.00    +0.006 A 
ATOM     24  C   UNL     1       2.901  -1.223   1.631  0.00  0.00    +0.026 A 
ATOM     26  C   UNL     1       2.287  -2.450   1.844  0.00  0.00    +0.002 A 
ATOM     34  H   UNL     1      -1.292  -1.147  -1.598  0.00  0.00    +0.123 HD
ENDROOT
BRANCH   9  19
ATOM      1  O   UNL     1      -3.661   0.243  -1.964  0.00  0.00    -0.274 OA
ATOM      4  N   UNL     1      -3.996   1.550  -0.067  0.00  0.00    -0.311 N 
ATOM     19  C   UNL     1      -3.310   0.645  -0.858  0.00  0.00    +0.231 C 
ATOM     35  H   UNL     1      -3.626   1.783   0.850  0.00  0.00    +0.149 HD
BRANCH   4   8
ATOM      8  C   UNL     1      -5.248   2.150  -0.460  0.00  0.00    +0.073 C 
ATOM     10  C   UNL     1      -6.444   1.356   0.052  0.00  0.00    +0.022 C 
ATOM     11  C   UNL     1      -5.446   3.514   0.190  0.00  0.00    +0.022 C 
ATOM     16  C   UNL     1      -6.650   1.834   1.488  0.00  0.00    +0.002 C 
ATOM     17  C   UNL     1      -5.972   3.201   1.587  0.00  0.00    +0.002 C 
ENDBRANCH   4   8
ENDBRANCH   9  19
BRANCH   7  18
ATOM     18  C   UNL     1      -1.270  -3.455  -0.420  0.00  0.00    +0.026 C 
BRANCH  18  21
ATOM     21  C   UNL     1      -2.671  -4.070  -0.355  0.00  0.00    -0.015 C 
ATOM     27  C   UNL     1      -2.641  -5.462  -0.990  0.00  0.00    +0.007 C 
ATOM     28  C   UNL     1      -3.726  -3.208  -1.050  0.00  0.00    +0.007 C 
ENDBRANCH  18  21
ENDBRANCH   7  18
BRANCH   5  25
ATOM     25  C   UNL     1       3.788   1.669   0.971  0.00  0.00    +0.162 C 
BRANCH  25  29
ATOM      2  O   UNL     1       6.050   0.960  -1.867  0.00  0.00    -0.359 OA
ATOM      6  N   UNL     1       6.839   0.479  -0.829  0.00  0.00    -0.083 NA
ATOM     29  C   UNL     1       4.876   1.282   0.001  0.00  0.00    +0.037 A 
ATOM     30  C   UNL     1       4.884   1.436  -1.361  0.00  0.00    +0.139 A 
ATOM     31  C   UNL     1       6.117   0.682   0.276  0.00  0.00    +0.086 A 
ATOM     32  C   UNL     1       3.928   1.986  -2.330  0.00  0.00    +0.089 C 
ATOM     33  C   UNL     1       6.661   0.282   1.585  0.00  0.00    +0.069 C 
ENDBRANCH  25  29
ENDBRANCH   5  25
TORSDOF 6
