REMARK  Name = 75536666
REMARK  10 active torsions:
REMARK  status: ('A' for Active; 'I' for Inactive)
REMARK    1  A    between atoms: S_1  and  N_10
REMARK    2  A    between atoms: S_1  and  C_20
REMARK    3  A    between atoms: S_2  and  C_21
REMARK    4  A    between atoms: S_2  and  C_24
REMARK    5  A    between atoms: O_4  and  C_12
REMARK    6  A    between atoms: N_9  and  C_11
REMARK    7  A    between atoms: N_9  and  C_16
REMARK    8  A    between atoms: N_10  and  C_15
REMARK    9  A    between atoms: C_13  and  C_15
REMARK   10  A    between atoms: C_16  and  C_17
REMARK                            x       y       z     vdW  Elec       q    Type
REMARK                         _______ _______ _______ _____ _____    ______ ____
ROOT
ATOM      3  O   UNL     1       3.189   0.030  -1.278  0.00  0.00    -0.371 OA
ATOM     11  C   UNL     1       1.139   0.944  -0.502  0.00  0.00    +0.111 C 
ATOM     12  C   UNL     1       2.155   0.979   0.625  0.00  0.00    +0.164 C 
ATOM     13  C   UNL     1       3.460   0.882  -0.153  0.00  0.00    +0.164 C 
ATOM     14  C   UNL     1       1.764  -0.077  -1.438  0.00  0.00    +0.181 C 
ENDROOT
BRANCH  12   4
ATOM      4  O   UNL     1       2.083   2.167   1.389  0.00  0.00    -0.388 OA
ATOM     26  H   UNL     1       2.193   2.924   0.788  0.00  0.00    +0.210 HD
ENDBRANCH  12   4
BRANCH  11   9
ATOM      9  N   UNL     1      -0.198   0.572  -0.070  0.00  0.00    -0.305 NA
ATOM     25  H   UNL     1      -0.432   1.093   0.776  0.00  0.00    +0.123 HD
BRANCH   9  16
ATOM     16  C   UNL     1      -1.186   0.877  -1.099  0.00  0.00    +0.116 C 
BRANCH  16  17
ATOM     17  C   UNL     1      -2.576   0.484  -0.676  0.00  0.00    -0.033 A 
ATOM     18  C   UNL     1      -3.481   1.460  -0.260  0.00  0.00    +0.007 A 
ATOM     19  C   UNL     1      -2.958  -0.857  -0.699  0.00  0.00    +0.007 A 
ATOM     21  C   UNL     1      -5.152  -0.246   0.108  0.00  0.00    +0.088 A 
ATOM     22  C   UNL     1      -4.769   1.096   0.132  0.00  0.00    +0.027 A 
ATOM     23  C   UNL     1      -4.247  -1.222  -0.307  0.00  0.00    +0.027 A 
BRANCH  21   2
ATOM      2  S   UNL     1      -6.763  -0.703   0.602  0.00  0.00    -0.006 S 
ATOM      7  O   UNL     1      -6.747  -2.094   1.034  0.00  0.00    -0.170 OA
ATOM      8  O   UNL     1      -7.266   0.327   1.500  0.00  0.00    -0.170 OA
ATOM     24  C   UNL     1      -7.720  -0.638  -0.895  0.00  0.00    +0.200 C 
ENDBRANCH  21   2
ENDBRANCH  16  17
ENDBRANCH   9  16
ENDBRANCH  11   9
BRANCH  13  15
ATOM     15  C   UNL     1       4.605   0.308   0.662  0.00  0.00    +0.139 C 
BRANCH  15  10
ATOM     10  N   UNL     1       5.824   0.251  -0.167  0.00  0.00    -0.192 NA
ATOM     27  H   UNL     1       6.188   1.179  -0.422  0.00  0.00    +0.148 HD
BRANCH  10   1
ATOM      1  S   UNL     1       6.990  -0.954   0.151  0.00  0.00    +0.027 S 
ATOM      5  O   UNL     1       8.219  -0.649  -0.556  0.00  0.00    -0.158 OA
ATOM      6  O   UNL     1       6.357  -2.252   0.014  0.00  0.00    -0.158 OA
ATOM     20  C   UNL     1       7.275  -0.683   1.885  0.00  0.00    +0.214 C 
ENDBRANCH  10   1
ENDBRANCH  15  10
ENDBRANCH  13  15
TORSDOF 8
