REMARK  Name = 25046676
REMARK  6 active torsions:
REMARK  status: ('A' for Active; 'I' for Inactive)
REMARK    1  A    between atoms: S_2  and  N_9
REMARK    2  A    between atoms: S_2  and  C_31
REMARK    3  A    between atoms: N_6  and  C_17
REMARK    4  A    between atoms: N_8  and  C_28
REMARK    5  A    between atoms: N_9  and  C_21
REMARK    6  A    between atoms: C_17  and  C_20
REMARK                            x       y       z     vdW  Elec       q    Type
REMARK                         _______ _______ _______ _____ _____    ______ ____
ROOT
ATOM      3  O   UNL     1       0.371   1.728   2.438  0.00  0.00    -0.266 OA
ATOM      6  N   UNL     1      -3.188   1.006  -1.025  0.00  0.00    -0.297 NA
ATOM      7  N   UNL     1      -0.889   2.488   0.616  0.00  0.00    -0.310 N 
ATOM     10  C   UNL     1      -3.429   2.807   0.701  0.00  0.00    +0.024 C 
ATOM     11  C   UNL     1      -2.216   3.281  -1.373  0.00  0.00    +0.050 C 
ATOM     12  C   UNL     1      -3.182   3.878  -0.353  0.00  0.00    +0.017 C 
ATOM     13  C   UNL     1      -4.035   1.549   0.044  0.00  0.00    +0.090 C 
ATOM     14  C   UNL     1      -2.858   2.034  -2.023  0.00  0.00    +0.094 C 
ATOM     15  C   UNL     1      -2.111   2.515   1.431  0.00  0.00    +0.130 C 
ATOM     16  C   UNL     1      -0.896   2.918  -0.718  0.00  0.00    +0.026 A 
ATOM     18  C   UNL     1       0.252   2.991  -1.417  0.00  0.00    +0.024 A 
ATOM     19  C   UNL     1       0.300   2.101   1.268  0.00  0.00    +0.274 A 
ATOM     21  C   UNL     1       1.529   2.181   0.439  0.00  0.00    +0.112 A 
ATOM     22  C   UNL     1       1.505   2.610  -0.823  0.00  0.00    +0.031 A 
ENDROOT
BRANCH  21   9
ATOM      9  N   UNL     1       2.774   1.815   0.981  0.00  0.00    -0.211 N 
ATOM     37  H   UNL     1       3.569   2.169   0.431  0.00  0.00    +0.174 HD
BRANCH   9   2
ATOM      2  S   UNL     1       2.942   0.216   1.512  0.00  0.00    +0.072 S 
ATOM      4  O   UNL     1       3.428   0.204   2.879  0.00  0.00    -0.150 OA
ATOM      5  O   UNL     1       1.763  -0.546   1.149  0.00  0.00    -0.150 OA
BRANCH   2  31
ATOM      1 CL   UNL     1       7.644  -1.740  -2.161  0.00  0.00    -0.084 Cl
ATOM     31  C   UNL     1       4.266  -0.336   0.478  0.00  0.00    +0.109 A 
ATOM     32  C   UNL     1       5.588  -0.193   0.901  0.00  0.00    +0.030 A 
ATOM     33  C   UNL     1       3.990  -0.913  -0.761  0.00  0.00    +0.030 A 
ATOM     34  C   UNL     1       6.633  -0.627   0.085  0.00  0.00    +0.022 A 
ATOM     35  C   UNL     1       5.034  -1.347  -1.577  0.00  0.00    +0.022 A 
ATOM     36  C   UNL     1       6.355  -1.204  -1.154  0.00  0.00    +0.041 A 
ENDBRANCH   2  31
ENDBRANCH   9   2
ENDBRANCH  21   9
BRANCH   6  17
ATOM     17  C   UNL     1      -3.818  -0.152  -1.655  0.00  0.00    +0.121 C 
BRANCH  17  20
ATOM      8  N   UNL     1      -4.273  -3.023   0.601  0.00  0.00    -0.349 N 
ATOM     20  C   UNL     1      -3.729  -1.380  -0.789  0.00  0.00    -0.008 A 
ATOM     23  C   UNL     1      -2.579  -2.195  -0.591  0.00  0.00    +0.004 A 
ATOM     24  C   UNL     1      -4.754  -1.915  -0.043  0.00  0.00    +0.091 A 
ATOM     25  C   UNL     1      -2.947  -3.218   0.285  0.00  0.00    +0.049 A 
ATOM     26  C   UNL     1      -1.256  -2.159  -1.075  0.00  0.00    +0.010 A 
ATOM     27  C   UNL     1      -2.055  -4.212   0.703  0.00  0.00    +0.026 A 
ATOM     28  C   UNL     1      -5.059  -3.859   1.483  0.00  0.00    +0.149 C 
ATOM     29  C   UNL     1      -0.353  -3.147  -0.665  0.00  0.00    +0.001 A 
ATOM     30  C   UNL     1      -0.748  -4.157   0.210  0.00  0.00    +0.002 A 
ENDBRANCH  17  20
ENDBRANCH   6  17
TORSDOF 5
