REMARK  Name = 40587799
REMARK  4 active torsions:
REMARK  status: ('A' for Active; 'I' for Inactive)
REMARK    1  A    between atoms: S_1  and  C_25
REMARK    2  A    between atoms: S_1  and  C_31
REMARK    3  A    between atoms: N_6  and  C_22
REMARK    4  A    between atoms: C_14  and  C_19
REMARK                            x       y       z     vdW  Elec       q    Type
REMARK                         _______ _______ _______ _____ _____    ______ ____
ROOT
ATOM      2  O   UNL     1       1.720   3.189  -1.797  0.00  0.00    -0.268 OA
ATOM      3  O   UNL     1       1.197  -2.041   0.590  0.00  0.00    -0.252 OA
ATOM      4  N   UNL     1       0.290   2.182  -0.238  0.00  0.00    -0.311 N 
ATOM      5  N   UNL     1       0.946  -0.125   1.863  0.00  0.00    -0.284 N 
ATOM      6  N   UNL     1       3.096  -0.893   1.268  0.00  0.00    -0.269 N 
ATOM      7  C   UNL     1       0.735   2.332   2.280  0.00  0.00    +0.027 C 
ATOM      8  C   UNL     1      -1.201   1.069   1.453  0.00  0.00    +0.054 C 
ATOM      9  C   UNL     1      -0.770   2.174   2.415  0.00  0.00    +0.018 C 
ATOM     10  C   UNL     1       1.043   2.805   0.859  0.00  0.00    +0.130 C 
ATOM     11  C   UNL     1       1.472   1.022   2.618  0.00  0.00    +0.114 C 
ATOM     12  C   UNL     1      -0.515  -0.247   1.865  0.00  0.00    +0.119 C 
ATOM     13  C   UNL     1      -0.865   1.411  -0.002  0.00  0.00    +0.034 A 
ATOM     14  C   UNL     1      -1.615   0.979  -1.049  0.00  0.00    +0.002 A 
ATOM     15  C   UNL     1       0.729   2.507  -1.534  0.00  0.00    +0.252 A 
ATOM     16  C   UNL     1       1.718  -1.093   1.184  0.00  0.00    +0.306 C 
ATOM     17  C   UNL     1      -1.191   1.290  -2.400  0.00  0.00    +0.015 A 
ATOM     18  C   UNL     1      -0.088   1.993  -2.656  0.00  0.00    +0.071 A 
ATOM     32  H   UNL     1       3.463  -0.451   2.104  0.00  0.00    +0.156 HD
ENDROOT
BRANCH  14  19
ATOM     19  C   UNL     1      -2.844   0.179  -0.850  0.00  0.00    -0.016 A 
ATOM     20  C   UNL     1      -2.767  -1.212  -0.785  0.00  0.00    +0.009 A 
ATOM     21  C   UNL     1      -4.079   0.816  -0.729  0.00  0.00    +0.009 A 
ATOM     23  C   UNL     1      -3.925  -1.967  -0.598  0.00  0.00    +0.015 A 
ATOM     24  C   UNL     1      -5.237   0.061  -0.542  0.00  0.00    +0.015 A 
ATOM     25  C   UNL     1      -5.160  -1.330  -0.477  0.00  0.00    +0.008 A 
BRANCH  25   1
ATOM      1  S   UNL     1      -6.640  -2.294  -0.238  0.00  0.00    -0.129 S 
ATOM     31  C   UNL     1      -6.271  -3.157   1.316  0.00  0.00    +0.090 C 
ENDBRANCH  25   1
ENDBRANCH  14  19
BRANCH   6  22
ATOM     22  C   UNL     1       4.074  -1.254   0.309  0.00  0.00    +0.035 A 
ATOM     26  C   UNL     1       5.427  -1.055   0.584  0.00  0.00    +0.023 A 
ATOM     27  C   UNL     1       3.684  -1.808  -0.911  0.00  0.00    +0.023 A 
ATOM     28  C   UNL     1       6.390  -1.410  -0.360  0.00  0.00    +0.002 A 
ATOM     29  C   UNL     1       4.648  -2.162  -1.855  0.00  0.00    +0.002 A 
ATOM     30  C   UNL     1       6.001  -1.964  -1.580  0.00  0.00    +0.000 A 
ENDBRANCH   6  22
TORSDOF 3
