REMARK  Name = 25390274
REMARK  11 active torsions:
REMARK  status: ('A' for Active; 'I' for Inactive)
REMARK    1  A    between atoms: S_1  and  N_8
REMARK    2  A    between atoms: S_1  and  C_17
REMARK    3  A    between atoms: O_3  and  C_11
REMARK    4  A    between atoms: O_4  and  C_12
REMARK    5  A    between atoms: N_8  and  C_14
REMARK    6  A    between atoms: N_9  and  C_20
REMARK    7  A    between atoms: C_10  and  C_14
REMARK    8  A    between atoms: C_13  and  C_15
REMARK    9  A    between atoms: C_15  and  C_16
REMARK   10  A    between atoms: C_20  and  C_25
REMARK   11  A    between atoms: C_23  and  C_24
REMARK                            x       y       z     vdW  Elec       q    Type
REMARK                         _______ _______ _______ _____ _____    ______ ____
ROOT
ATOM      2  O   UNL     1      -1.472   1.238  -0.701  0.00  0.00    -0.366 OA
ATOM     10  C   UNL     1      -0.406   2.213  -0.763  0.00  0.00    +0.165 C 
ATOM     11  C   UNL     1      -0.712   3.254   0.308  0.00  0.00    +0.175 C 
ATOM     12  C   UNL     1      -1.482   2.440   1.328  0.00  0.00    +0.175 C 
ATOM     13  C   UNL     1      -2.308   1.533   0.432  0.00  0.00    +0.158 C 
ENDROOT
BRANCH  11   3
ATOM      3  O   UNL     1      -1.556   4.249  -0.270  0.00  0.00    -0.387 OA
ATOM     28  H   UNL     1      -1.033   4.720  -0.941  0.00  0.00    +0.210 HD
ENDBRANCH  11   3
BRANCH  12   4
ATOM      4  O   UNL     1      -2.290   3.226   2.176  0.00  0.00    -0.387 OA
ATOM     29  H   UNL     1      -1.707   3.858   2.631  0.00  0.00    +0.210 HD
ENDBRANCH  12   4
BRANCH  10  14
ATOM     14  C   UNL     1       0.908   1.482  -0.525  0.00  0.00    +0.140 C 
BRANCH  14   8
ATOM      8  N   UNL     1       1.125   0.499  -1.603  0.00  0.00    -0.187 NA
ATOM     27  H   UNL     1       0.389  -0.209  -1.715  0.00  0.00    +0.148 HD
BRANCH   8   1
ATOM      1  S   UNL     1       2.707   0.103  -2.092  0.00  0.00    +0.058 S 
ATOM      6  O   UNL     1       3.421   1.318  -2.434  0.00  0.00    -0.153 OA
ATOM      7  O   UNL     1       2.649  -0.999  -3.033  0.00  0.00    -0.153 OA
BRANCH   1  17
ATOM     17  C   UNL     1       3.399  -0.533  -0.595  0.00  0.00    +0.105 A 
ATOM     18  C   UNL     1       3.302  -1.894  -0.305  0.00  0.00    +0.029 A 
ATOM     19  C   UNL     1       4.040   0.327   0.297  0.00  0.00    +0.029 A 
ATOM     21  C   UNL     1       3.846  -2.395   0.877  0.00  0.00    +0.005 A 
ATOM     22  C   UNL     1       4.584  -0.175   1.480  0.00  0.00    +0.005 A 
ATOM     23  C   UNL     1       4.487  -1.536   1.770  0.00  0.00    -0.050 A 
ATOM     24  C   UNL     1       5.069  -2.073   3.034  0.00  0.00    +0.044 C 
ENDBRANCH   1  17
ENDBRANCH   8   1
ENDBRANCH  14   8
ENDBRANCH  10  14
BRANCH  13  15
ATOM     15  C   UNL     1      -2.728   0.239   1.108  0.00  0.00    +0.130 C 
BRANCH  15  16
ATOM      5  O   UNL     1      -4.370  -0.019  -0.650  0.00  0.00    -0.276 OA
ATOM      9  N   UNL     1      -4.192  -1.661   0.985  0.00  0.00    -0.304 N 
ATOM     16  C   UNL     1      -3.848  -0.468   0.367  0.00  0.00    +0.216 C 
ATOM     30  H   UNL     1      -3.687  -1.952   1.817  0.00  0.00    +0.150 HD
BRANCH   9  20
ATOM     20  C   UNL     1      -5.231  -2.535   0.490  0.00  0.00    +0.193 C 
BRANCH  20  25
ATOM     25  C   UNL     1      -4.691  -3.514  -0.453  0.00  0.00    -0.087 C 
ATOM     26  C   UNL     1      -4.251  -4.319  -1.228  0.00  0.00    +0.005 C 
ENDBRANCH  20  25
ENDBRANCH   9  20
ENDBRANCH  15  16
ENDBRANCH  13  15
TORSDOF 10
