REMARK  Name = 51138057
REMARK  8 active torsions:
REMARK  status: ('A' for Active; 'I' for Inactive)
REMARK    1  A    between atoms: N_2  and  C_6
REMARK    2  A    between atoms: N_4  and  C_22
REMARK    3  A    between atoms: C_9  and  C_16
REMARK    4  A    between atoms: C_10  and  C_15
REMARK    5  A    between atoms: C_15  and  C_18
REMARK    6  A    between atoms: C_18  and  C_24
REMARK    7  A    between atoms: C_18  and  C_25
REMARK    8  A    between atoms: C_22  and  C_26
REMARK                            x       y       z     vdW  Elec       q    Type
REMARK                         _______ _______ _______ _____ _____    ______ ____
ROOT
ATOM      3  N   UNL     1      -2.132  -0.250  -0.511  0.00  0.00    -0.299 NA
ATOM      4  N   UNL     1       2.569   0.902   0.931  0.00  0.00    -0.341 N 
ATOM      9  C   UNL     1      -2.085   1.000   0.235  0.00  0.00    +0.145 C 
ATOM     10  C   UNL     1      -1.643  -1.423   0.226  0.00  0.00    +0.085 C 
ATOM     11  C   UNL     1      -0.830   1.805  -0.097  0.00  0.00    +0.065 C 
ATOM     12  C   UNL     1      -0.161  -1.399   0.616  0.00  0.00    -0.021 A 
ATOM     13  C   UNL     1       0.664  -0.237   0.631  0.00  0.00    +0.008 A 
ATOM     14  C   UNL     1       0.440   1.153   0.338  0.00  0.00    -0.020 A 
ATOM     17  C   UNL     1       2.003  -0.348   1.022  0.00  0.00    +0.050 A 
ATOM     19  C   UNL     1       1.638   1.812   0.527  0.00  0.00    +0.091 A 
ATOM     20  C   UNL     1       0.439  -2.598   1.076  0.00  0.00    +0.006 A 
ATOM     21  C   UNL     1       2.589  -1.548   1.427  0.00  0.00    +0.026 A 
ATOM     23  C   UNL     1       1.777  -2.674   1.460  0.00  0.00    +0.002 A 
ATOM     32  H   UNL     1      -1.659  -0.161  -1.409  0.00  0.00    +0.123 HD
ENDROOT
BRANCH   9  16
ATOM      1  O   UNL     1      -3.256   2.545  -1.158  0.00  0.00    -0.274 OA
ATOM      2  N   UNL     1      -4.401   1.516   0.583  0.00  0.00    -0.311 N 
ATOM     16  C   UNL     1      -3.292   1.768  -0.208  0.00  0.00    +0.231 C 
ATOM     31  H   UNL     1      -4.337   0.854   1.352  0.00  0.00    +0.149 HD
BRANCH   2   6
ATOM      6  C   UNL     1      -5.665   2.160   0.366  0.00  0.00    +0.073 C 
ATOM      7  C   UNL     1      -6.948   1.532   0.824  0.00  0.00    +0.024 C 
ATOM      8  C   UNL     1      -6.642   1.629  -0.641  0.00  0.00    +0.024 C 
ENDBRANCH   2   6
ENDBRANCH   9  16
BRANCH  10  15
ATOM     15  C   UNL     1      -1.996  -2.622  -0.673  0.00  0.00    +0.026 C 
BRANCH  15  18
ATOM     18  C   UNL     1      -3.481  -2.996  -0.615  0.00  0.00    -0.015 C 
ATOM     24  C   UNL     1      -4.394  -1.854  -1.061  0.00  0.00    +0.007 C 
ATOM     25  C   UNL     1      -3.726  -4.227  -1.491  0.00  0.00    +0.007 C 
ENDBRANCH  15  18
ENDBRANCH  10  15
BRANCH   4  22
ATOM     22  C   UNL     1       3.946   1.228   1.235  0.00  0.00    +0.177 C 
BRANCH  22  26
ATOM      5  N   UNL     1       5.916   0.022   0.462  0.00  0.00    -0.258 NA
ATOM     26  C   UNL     1       4.906   0.858   0.132  0.00  0.00    +0.061 A 
ATOM     27  C   UNL     1       4.712   1.378  -1.138  0.00  0.00    +0.025 A 
ATOM     28  C   UNL     1       5.614   1.017  -2.133  0.00  0.00    +0.003 A 
ATOM     29  C   UNL     1       6.772  -0.306  -0.531  0.00  0.00    +0.111 A 
ATOM     30  C   UNL     1       6.666   0.159  -1.832  0.00  0.00    +0.020 A 
ENDBRANCH  22  26
ENDBRANCH   4  22
TORSDOF 6
