REMARK  Name = 45783610
REMARK  6 active torsions:
REMARK  status: ('A' for Active; 'I' for Inactive)
REMARK    1  A    between atoms: S_1  and  N_10
REMARK    2  A    between atoms: S_1  and  C_27
REMARK    3  A    between atoms: N_5  and  C_16
REMARK    4  A    between atoms: C_12  and  C_17
REMARK    5  A    between atoms: C_16  and  C_18
REMARK    6  A    between atoms: C_19  and  C_20
REMARK                            x       y       z     vdW  Elec       q    Type
REMARK                         _______ _______ _______ _____ _____    ______ ____
ROOT
ATOM      2  O   UNL     1      -2.281  -1.493  -0.916  0.00  0.00    -0.336 OA
ATOM      6  N   UNL     1      -0.909  -0.849   0.733  0.00  0.00    -0.190 NA
ATOM      9  N   UNL     1      -0.980  -1.729  -1.378  0.00  0.00    -0.056 NA
ATOM     17  C   UNL     1      -2.149  -0.975   0.334  0.00  0.00    +0.245 A 
ATOM     19  C   UNL     1      -0.228  -1.324  -0.350  0.00  0.00    +0.202 A 
ENDROOT
BRANCH  19  20
ATOM     10  N   UNL     1       4.135   0.111   1.308  0.00  0.00    -0.204 N 
ATOM     11  N   UNL     1       3.998  -1.486  -0.423  0.00  0.00    -0.239 NA
ATOM     20  C   UNL     1       1.205  -1.379  -0.374  0.00  0.00    +0.027 A 
ATOM     23  C   UNL     1       1.949  -0.590   0.497  0.00  0.00    +0.056 A 
ATOM     24  C   UNL     1       1.856  -2.221  -1.269  0.00  0.00    +0.031 A 
ATOM     25  C   UNL     1       3.331  -0.680   0.433  0.00  0.00    +0.138 A 
ATOM     26  C   UNL     1       3.241  -2.237  -1.254  0.00  0.00    +0.113 A 
ATOM     29  H   UNL     1       3.619   0.649   2.016  0.00  0.00    +0.175 HD
BRANCH  10   1
ATOM      1  S   UNL     1       5.561   0.837   0.670  0.00  0.00    +0.041 S 
ATOM      3  O   UNL     1       6.342   1.361   1.774  0.00  0.00    -0.155 OA
ATOM      4  O   UNL     1       6.175  -0.017  -0.327  0.00  0.00    -0.155 OA
ATOM     27  C   UNL     1       4.852   2.235  -0.170  0.00  0.00    +0.218 C 
ENDBRANCH  10   1
ENDBRANCH  19  20
BRANCH  17  12
ATOM      5  N   UNL     1      -4.269   0.328   0.311  0.00  0.00    -0.284 NA
ATOM     12  C   UNL     1      -3.432  -0.630   1.060  0.00  0.00    +0.146 C 
ATOM     13  C   UNL     1      -4.339  -1.855   1.279  0.00  0.00    +0.030 C 
ATOM     14  C   UNL     1      -5.681  -1.469   0.673  0.00  0.00    +0.017 C 
ATOM     15  C   UNL     1      -5.655   0.046   0.685  0.00  0.00    +0.085 C 
BRANCH   5  16
ATOM     16  C   UNL     1      -3.908   1.719   0.553  0.00  0.00    +0.159 C 
BRANCH  16  18
ATOM      7  N   UNL     1      -1.570   2.601   0.363  0.00  0.00    -0.347 N 
ATOM      8  N   UNL     1      -2.574   2.102  -1.554  0.00  0.00    -0.239 NA
ATOM     18  C   UNL     1      -2.701   2.132  -0.246  0.00  0.00    +0.121 A 
ATOM     21  C   UNL     1      -0.665   2.889  -0.619  0.00  0.00    +0.104 A 
ATOM     22  C   UNL     1      -1.307   2.573  -1.793  0.00  0.00    +0.130 A 
ATOM     28  H   UNL     1      -1.426   2.713   1.358  0.00  0.00    +0.167 HD
ENDBRANCH  16  18
ENDBRANCH   5  16
ENDBRANCH  17  12
TORSDOF 5
