REMARK  Name = 25314254
REMARK  6 active torsions:
REMARK  status: ('A' for Active; 'I' for Inactive)
REMARK    1  A    between atoms: O_3  and  C_10
REMARK    2  A    between atoms: N_5  and  C_8
REMARK    3  A    between atoms: N_6  and  C_9
REMARK    4  A    between atoms: N_6  and  C_15
REMARK    5  A    between atoms: C_14  and  C_15
REMARK    6  A    between atoms: C_25  and  C_26
REMARK                            x       y       z     vdW  Elec       q    Type
REMARK                         _______ _______ _______ _____ _____    ______ ____
ROOT
ATOM      1  O   UNL     1       0.769  -1.307  -1.377  0.00  0.00    -0.343 OA
ATOM      2  O   UNL     1       0.333  -3.547  -0.963  0.00  0.00    -0.347 OA
ATOM      8  C   UNL     1      -1.013  -1.875   0.149  0.00  0.00    +0.143 C 
ATOM      9  C   UNL     1       1.401  -1.374   0.956  0.00  0.00    +0.115 C 
ATOM     10  C   UNL     1      -0.025  -1.841   1.339  0.00  0.00    +0.156 C 
ATOM     11  C   UNL     1       1.788  -1.774  -0.486  0.00  0.00    +0.166 C 
ATOM     12  C   UNL     1      -0.278  -2.259  -1.148  0.00  0.00    +0.270 C 
ATOM     13  C   UNL     1       1.725  -3.267  -0.756  0.00  0.00    +0.196 C 
ENDROOT
BRANCH   8   5
ATOM      4  O   UNL     1      -5.662   2.182   1.083  0.00  0.00    -0.276 OA
ATOM      5  N   UNL     1      -1.672  -0.578  -0.014  0.00  0.00    -0.290 NA
ATOM      7  N   UNL     1      -3.904   1.217  -0.089  0.00  0.00    -0.299 N 
ATOM     16  C   UNL     1      -2.624  -0.620  -1.134  0.00  0.00    +0.104 C 
ATOM     17  C   UNL     1      -2.355  -0.185   1.227  0.00  0.00    +0.104 C 
ATOM     20  C   UNL     1      -3.295   0.740  -1.334  0.00  0.00    +0.123 C 
ATOM     21  C   UNL     1      -3.015   1.184   1.071  0.00  0.00    +0.123 C 
ATOM     25  C   UNL     1      -5.171   1.787   0.022  0.00  0.00    +0.213 C 
ATOM     26  C   UNL     1      -5.968   1.911  -1.251  0.00  0.00    +0.109 C 
ENDBRANCH   8   5
BRANCH  10   3
ATOM      3  O   UNL     1       0.057  -3.171   1.871  0.00  0.00    -0.388 OA
ATOM     28  H   UNL     1       0.644  -3.145   2.647  0.00  0.00    +0.210 HD
ENDBRANCH  10   3
BRANCH   9   6
ATOM      6  N   UNL     1       1.514   0.084   1.072  0.00  0.00    -0.308 NA
ATOM     27  H   UNL     1       0.966   0.427   1.860  0.00  0.00    +0.122 HD
BRANCH   6  15
ATOM     15  C   UNL     1       2.901   0.474   1.256  0.00  0.00    +0.084 C 
BRANCH  15  14
ATOM     14  C   UNL     1       3.122   1.946   0.899  0.00  0.00    +0.003 C 
ATOM     18  C   UNL     1       4.586   2.364   1.096  0.00  0.00    +0.005 C 
ATOM     19  C   UNL     1       2.652   2.259  -0.529  0.00  0.00    +0.005 C 
ATOM     22  C   UNL     1       5.518   1.805   0.022  0.00  0.00    +0.000 C 
ATOM     23  C   UNL     1       3.585   1.700  -1.602  0.00  0.00    +0.000 C 
ATOM     24  C   UNL     1       5.028   2.144  -1.382  0.00  0.00    +0.000 C 
ENDBRANCH  15  14
ENDBRANCH   6  15
ENDBRANCH   9   6
TORSDOF 5
