REMARK  Name = 45784297
REMARK  5 active torsions:
REMARK  status: ('A' for Active; 'I' for Inactive)
REMARK    1  A    between atoms: O_1  and  C_19
REMARK    2  A    between atoms: O_1  and  C_23
REMARK    3  A    between atoms: N_2  and  C_11
REMARK    4  A    between atoms: C_6  and  C_10
REMARK    5  A    between atoms: C_11  and  C_12
REMARK                            x       y       z     vdW  Elec       q    Type
REMARK                         _______ _______ _______ _____ _____    ______ ____
ROOT
ATOM      2  N   UNL     1      -2.367  -0.277  -0.116  0.00  0.00    -0.297 NA
ATOM      6  C   UNL     1      -0.150  -0.742   0.492  0.00  0.00    +0.070 C 
ATOM      7  C   UNL     1      -0.879  -0.077   1.673  0.00  0.00    +0.028 C 
ATOM      8  C   UNL     1      -1.048  -0.468  -0.723  0.00  0.00    +0.096 C 
ATOM      9  C   UNL     1      -2.123   0.555   1.062  0.00  0.00    +0.085 C 
ENDROOT
BRANCH   6  10
ATOM      3  N   UNL     1       2.319  -1.165   0.343  0.00  0.00    -0.341 N 
ATOM      4  N   UNL     1       1.679   0.942   0.042  0.00  0.00    -0.232 NA
ATOM     10  C   UNL     1       1.275  -0.284   0.286  0.00  0.00    +0.113 A 
ATOM     13  C   UNL     1       3.474  -0.459   0.120  0.00  0.00    +0.070 A 
ATOM     14  C   UNL     1       3.048   0.853  -0.065  0.00  0.00    +0.089 A 
ATOM     15  C   UNL     1       4.814  -0.845   0.067  0.00  0.00    +0.073 A 
ATOM     16  C   UNL     1       4.001   1.853  -0.320  0.00  0.00    +0.033 A 
ATOM     19  C   UNL     1       5.749   0.164  -0.188  0.00  0.00    +0.122 A 
ATOM     20  C   UNL     1       5.352   1.489  -0.378  0.00  0.00    +0.048 A 
ATOM     24  H   UNL     1       2.256  -2.159   0.518  0.00  0.00    +0.167 HD
BRANCH  19   1
ATOM      1  O   UNL     1       7.074  -0.155  -0.252  0.00  0.00    -0.495 OA
ATOM     23  C   UNL     1       7.419  -1.524  -0.050  0.00  0.00    +0.277 C 
ENDBRANCH  19   1
ENDBRANCH   6  10
BRANCH   2  11
ATOM     11  C   UNL     1      -3.318   0.330  -1.035  0.00  0.00    +0.121 C 
BRANCH  11  12
ATOM      5  N   UNL     1      -6.735   1.042   0.431  0.00  0.00    -0.263 NA
ATOM     12  C   UNL     1      -4.741   0.128  -0.585  0.00  0.00    -0.015 A 
ATOM     17  C   UNL     1      -5.376  -1.098  -0.746  0.00  0.00    +0.008 A 
ATOM     18  C   UNL     1      -5.457   1.157   0.004  0.00  0.00    +0.115 A 
ATOM     21  C   UNL     1      -6.690  -1.256  -0.319  0.00  0.00    +0.020 A 
ATOM     22  C   UNL     1      -7.319  -0.165   0.258  0.00  0.00    +0.111 A 
ENDBRANCH  11  12
ENDBRANCH   2  11
TORSDOF 4
