REMARK  Name = 11943122
REMARK  6 active torsions:
REMARK  status: ('A' for Active; 'I' for Inactive)
REMARK    1  A    between atoms: O_1  and  C_13
REMARK    2  A    between atoms: O_1  and  C_15
REMARK    3  A    between atoms: N_4  and  C_16
REMARK    4  A    between atoms: C_6  and  C_12
REMARK    5  A    between atoms: C_8  and  C_13
REMARK    6  A    between atoms: C_12  and  C_14
REMARK                            x       y       z     vdW  Elec       q    Type
REMARK                         _______ _______ _______ _____ _____    ______ ____
ROOT
ATOM      2  O   UNL     1      -0.368   2.039   0.825  0.00  0.00    -0.226 OA
ATOM      4  N   UNL     1      -1.566   0.086   0.347  0.00  0.00    -0.251 N 
ATOM     15  C   UNL     1      -0.440   0.831   0.637  0.00  0.00    +0.405 C 
ATOM     26  H   UNL     1      -1.390  -0.905   0.229  0.00  0.00    +0.158 HD
ENDROOT
BRANCH   4  16
ATOM     16  C   UNL     1      -2.896   0.541   0.201  0.00  0.00    +0.044 A 
ATOM     17  C   UNL     1      -3.937  -0.343  -0.097  0.00  0.00    +0.003 A 
ATOM     18  C   UNL     1      -3.120   1.902   0.365  0.00  0.00    +0.024 A 
ATOM     19  C   UNL     1      -5.249   0.170  -0.232  0.00  0.00    -0.016 A 
ATOM     20  C   UNL     1      -3.718  -1.720  -0.265  0.00  0.00    +0.010 A 
ATOM     21  C   UNL     1      -4.410   2.406   0.232  0.00  0.00    +0.002 A 
ATOM     22  C   UNL     1      -5.469   1.547  -0.065  0.00  0.00    +0.008 A 
ATOM     23  C   UNL     1      -6.303  -0.709  -0.531  0.00  0.00    +0.008 A 
ATOM     24  C   UNL     1      -4.777  -2.578  -0.561  0.00  0.00    +0.001 A 
ATOM     25  C   UNL     1      -6.067  -2.074  -0.695  0.00  0.00    +0.001 A 
ENDBRANCH   4  16
BRANCH  15   1
ATOM      1  O   UNL     1       0.657  -0.000   0.691  0.00  0.00    -0.449 OA
BRANCH   1  13
ATOM     13  C   UNL     1       1.902   0.607   0.978  0.00  0.00    +0.252 C 
BRANCH  13   8
ATOM      3  N   UNL     1       4.307   0.040   1.408  0.00  0.00    -0.296 NA
ATOM      5  C   UNL     1       4.551  -1.397  -0.746  0.00  0.00    -0.004 C 
ATOM      6  C   UNL     1       5.208  -0.010  -0.931  0.00  0.00    +0.006 C 
ATOM      7  C   UNL     1       3.070  -1.213  -0.367  0.00  0.00    +0.026 C 
ATOM      8  C   UNL     1       2.978  -0.481   0.991  0.00  0.00    +0.094 C 
ATOM      9  C   UNL     1       4.908   0.847   0.319  0.00  0.00    +0.088 C 
ATOM     10  C   UNL     1       5.249  -2.067   0.453  0.00  0.00    +0.019 C 
ATOM     11  C   UNL     1       5.193  -1.121   1.665  0.00  0.00    +0.085 C 
BRANCH   6  12
ATOM     12  C   UNL     1       4.776   0.695  -2.215  0.00  0.00    +0.002 C 
ATOM     14  C   UNL     1       5.522   2.001  -2.406  0.00  0.00    +0.004 C 
ENDBRANCH   6  12
ENDBRANCH  13   8
ENDBRANCH   1  13
ENDBRANCH  15   1
TORSDOF 5
