REMARK  Name = 26763569
REMARK  1 active torsions:
REMARK  status: ('A' for Active; 'I' for Inactive)
REMARK    1  A    between atoms: C_16  and  C_19
REMARK                            x       y       z     vdW  Elec       q    Type
REMARK                         _______ _______ _______ _____ _____    ______ ____
ROOT
ATOM      1 BR   UNL     1      -7.355  -1.147  -0.408  0.00  0.00    -0.050 Br
ATOM      2  O   UNL     1       0.158   2.168   0.587  0.00  0.00    -0.273 OA
ATOM      3  O   UNL     1      -2.303  -2.510   0.549  0.00  0.00    -0.270 OA
ATOM      4  O   UNL     1       3.309   1.528  -1.875  0.00  0.00    -0.270 OA
ATOM      5  N   UNL     1      -0.846  -0.873  -0.191  0.00  0.00    -0.283 N 
ATOM      6  N   UNL     1       1.831   0.087  -0.780  0.00  0.00    -0.294 N 
ATOM      7  N   UNL     1      -2.056   1.661   0.740  0.00  0.00    -0.283 N 
ATOM      9  C   UNL     1      -0.652   0.409  -0.854  0.00  0.00    +0.180 C 
ATOM     10  C   UNL     1       0.686   0.494  -1.598  0.00  0.00    +0.140 C 
ATOM     11  C   UNL     1       0.323  -1.745  -0.060  0.00  0.00    +0.128 C 
ATOM     12  C   UNL     1       1.589  -0.951   0.228  0.00  0.00    +0.127 C 
ATOM     13  C   UNL     1      -0.789   1.463   0.233  0.00  0.00    +0.239 C 
ATOM     14  C   UNL     1      -2.101  -1.357   0.164  0.00  0.00    +0.249 C 
ATOM     15  C   UNL     1      -3.269  -0.437   0.112  0.00  0.00    +0.059 A 
ATOM     16  C   UNL     1       3.083   0.657  -1.037  0.00  0.00    +0.248 C 
ATOM     17  C   UNL     1      -3.226   0.917   0.480  0.00  0.00    +0.046 A 
ATOM     18  C   UNL     1      -4.512  -1.040  -0.157  0.00  0.00    +0.030 A 
ATOM     20  C   UNL     1      -4.435   1.617   0.639  0.00  0.00    +0.025 A 
ATOM     21  C   UNL     1      -5.698  -0.316  -0.041  0.00  0.00    +0.019 A 
ATOM     22  C   UNL     1      -5.661   1.009   0.371  0.00  0.00    +0.017 A 
ATOM     27  H   UNL     1      -2.178   2.505   1.294  0.00  0.00    +0.155 HD
ENDROOT
BRANCH  16  19
ATOM      8  N   UNL     1       6.072  -1.357   0.009  0.00  0.00    -0.263 NA
ATOM     19  C   UNL     1       4.231   0.189  -0.245  0.00  0.00    +0.055 A 
ATOM     23  C   UNL     1       4.574   0.805   0.954  0.00  0.00    +0.016 A 
ATOM     24  C   UNL     1       5.005  -0.878  -0.670  0.00  0.00    +0.123 A 
ATOM     25  C   UNL     1       5.665   0.341   1.680  0.00  0.00    +0.020 A 
ATOM     26  C   UNL     1       6.375  -0.733   1.169  0.00  0.00    +0.111 A 
ENDBRANCH  16  19
TORSDOF 1
