REMARK  Name = 40777383
REMARK  9 active torsions:
REMARK  status: ('A' for Active; 'I' for Inactive)
REMARK    1  A    between atoms: O_3  and  C_26
REMARK    2  A    between atoms: O_3  and  C_31
REMARK    3  A    between atoms: O_4  and  C_27
REMARK    4  A    between atoms: O_4  and  C_32
REMARK    5  A    between atoms: C_8  and  C_12
REMARK    6  A    between atoms: C_9  and  C_14
REMARK    7  A    between atoms: C_12  and  C_15
REMARK    8  A    between atoms: C_14  and  C_16
REMARK    9  A    between atoms: C_25  and  C_28
REMARK                            x       y       z     vdW  Elec       q    Type
REMARK                         _______ _______ _______ _____ _____    ______ ____
ROOT
ATOM      5  N   UNL     1      -1.552   5.149  -1.018  0.00  0.00    -0.316 NA
ATOM      8  C   UNL     1      -1.375   2.213  -0.781  0.00  0.00    +0.004 C 
ATOM      9  C   UNL     1      -2.461   3.046  -0.059  0.00  0.00    +0.012 C 
ATOM     10  C   UNL     1      -0.884   2.989  -2.015  0.00  0.00    +0.019 C 
ATOM     11  C   UNL     1      -1.986   4.484   0.211  0.00  0.00    +0.085 C 
ATOM     13  C   UNL     1      -0.469   4.420  -1.676  0.00  0.00    +0.081 C 
ATOM     36  H   UNL     1      -1.238   6.093  -0.798  0.00  0.00    +0.122 HD
ENDROOT
BRANCH   8  12
ATOM     12  C   UNL     1      -0.197   1.812   0.115  0.00  0.00    +0.100 C 
BRANCH  12  15
ATOM      1  O   UNL     1       0.099   0.128  -1.527  0.00  0.00    -0.276 OA
ATOM      6  N   UNL     1       1.639   0.162   0.211  0.00  0.00    -0.297 N 
ATOM     15  C   UNL     1       0.519   0.626  -0.479  0.00  0.00    +0.216 C 
ATOM     17  C   UNL     1       2.107   0.669   1.504  0.00  0.00    +0.113 C 
ATOM     18  C   UNL     1       2.386  -0.986  -0.312  0.00  0.00    +0.143 C 
ATOM     19  C   UNL     1       3.552   1.143   1.384  0.00  0.00    +0.054 C 
ATOM     20  C   UNL     1       3.874  -0.897  -0.080  0.00  0.00    -0.023 A 
ATOM     21  C   UNL     1       4.430   0.097   0.747  0.00  0.00    -0.038 A 
ATOM     23  C   UNL     1       4.717  -1.846  -0.676  0.00  0.00    +0.054 A 
ATOM     24  C   UNL     1       5.818   0.145   0.935  0.00  0.00    +0.053 A 
ATOM     26  C   UNL     1       6.096  -1.797  -0.471  0.00  0.00    +0.162 A 
ATOM     27  C   UNL     1       6.646  -0.801   0.332  0.00  0.00    +0.162 A 
BRANCH  26   3
ATOM      3  O   UNL     1       6.894  -2.733  -1.058  0.00  0.00    -0.491 OA
ATOM     31  C   UNL     1       6.251  -3.718  -1.865  0.00  0.00    +0.277 C 
ENDBRANCH  26   3
BRANCH  27   4
ATOM      4  O   UNL     1       7.992  -0.740   0.535  0.00  0.00    -0.491 OA
ATOM     32  C   UNL     1       8.473   0.312   1.371  0.00  0.00    +0.277 C 
ENDBRANCH  27   4
ENDBRANCH  12  15
ENDBRANCH   8  12
BRANCH   9  14
ATOM     14  C   UNL     1      -2.957   2.393   1.232  0.00  0.00    +0.064 C 
BRANCH  14  16
ATOM      2  O   UNL     1      -3.531  -1.128   0.745  0.00  0.00    -0.354 OA
ATOM      7  N   UNL     1      -2.710  -0.043   1.030  0.00  0.00    -0.083 NA
ATOM     16  C   UNL     1      -3.513   1.023   0.972  0.00  0.00    +0.085 A 
ATOM     22  C   UNL     1      -4.839   0.676   0.659  0.00  0.00    +0.076 A 
ATOM     25  C   UNL     1      -4.796  -0.686   0.526  0.00  0.00    +0.167 A 
BRANCH  25  28
ATOM     28  C   UNL     1      -5.763  -1.700   0.218  0.00  0.00    +0.020 A 
ATOM     29  C   UNL     1      -7.091  -1.347  -0.024  0.00  0.00    +0.011 A 
ATOM     30  C   UNL     1      -5.376  -3.038   0.160  0.00  0.00    +0.011 A 
ATOM     33  C   UNL     1      -8.031  -2.332  -0.323  0.00  0.00    +0.001 A 
ATOM     34  C   UNL     1      -6.316  -4.024  -0.140  0.00  0.00    +0.001 A 
ATOM     35  C   UNL     1      -7.644  -3.671  -0.381  0.00  0.00    +0.000 A 
ENDBRANCH  25  28
ENDBRANCH  14  16
ENDBRANCH   9  14
TORSDOF 7
