REMARK  Name = 28963165
REMARK  6 active torsions:
REMARK  status: ('A' for Active; 'I' for Inactive)
REMARK    1  A    between atoms: N_4  and  C_14
REMARK    2  A    between atoms: N_5  and  C_22
REMARK    3  A    between atoms: C_7  and  C_17
REMARK    4  A    between atoms: C_10  and  C_18
REMARK    5  A    between atoms: C_16  and  C_20
REMARK    6  A    between atoms: C_22  and  C_23
REMARK                            x       y       z     vdW  Elec       q    Type
REMARK                         _______ _______ _______ _____ _____    ______ ____
ROOT
ATOM      1  O   UNL     1      -2.322   1.734   0.186  0.00  0.00    -0.461 OA
ATOM      2  O   UNL     1      -4.137   3.142   0.071  0.00  0.00    -0.251 OA
ATOM      6  C   UNL     1      -0.862  -0.310  -0.078  0.00  0.00    +0.041 C 
ATOM      7  C   UNL     1      -0.949  -1.870   0.116  0.00  0.00    -0.025 C 
ATOM      8  C   UNL     1      -2.171   0.331   0.416  0.00  0.00    +0.184 C 
ATOM      9  C   UNL     1      -3.349  -0.227  -0.365  0.00  0.00    +0.044 C 
ATOM     10  C   UNL     1       0.454   0.275   0.521  0.00  0.00    +0.013 C 
ATOM     11  C   UNL     1      -2.237  -2.435  -0.557  0.00  0.00    +0.007 C 
ATOM     12  C   UNL     1       0.282  -2.512  -0.564  0.00  0.00    +0.009 C 
ATOM     13  C   UNL     1      -3.526  -1.713  -0.135  0.00  0.00    +0.008 C 
ATOM     14  C   UNL     1       1.684  -0.439  -0.105  0.00  0.00    +0.078 C 
ATOM     15  C   UNL     1       1.603  -1.966  -0.035  0.00  0.00    +0.023 C 
ATOM     16  C   UNL     1      -4.451   0.715   0.080  0.00  0.00    +0.101 C 
ATOM     17  C   UNL     1      -0.975  -2.287   1.609  0.00  0.00    +0.011 C 
ATOM     18  C   UNL     1       0.574   1.794   0.314  0.00  0.00    +0.010 C 
ATOM     19  C   UNL     1      -3.668   2.015   0.107  0.00  0.00    +0.311 C 
ATOM     20  C   UNL     1      -5.626   0.761  -0.880  0.00  0.00    +0.019 C 
ENDROOT
BRANCH  14   4
ATOM      3  O   UNL     1       4.273  -0.219  -1.361  0.00  0.00    -0.253 OA
ATOM      4  N   UNL     1       2.920  -0.011   0.514  0.00  0.00    -0.296 N 
ATOM      5  N   UNL     1       5.153   0.504   0.660  0.00  0.00    -0.300 N 
ATOM     21  C   UNL     1       4.127   0.065  -0.173  0.00  0.00    +0.300 C 
ATOM     24  H   UNL     1       2.923   0.170   1.514  0.00  0.00    +0.151 HD
ATOM     25  H   UNL     1       4.936   0.728   1.626  0.00  0.00    +0.150 HD
BRANCH   5  22
ATOM     22  C   UNL     1       6.513   0.674   0.204  0.00  0.00    +0.102 C 
ATOM     23  C   UNL     1       6.689   1.979  -0.544  0.00  0.00    +0.024 C 
ENDBRANCH   5  22
ENDBRANCH  14   4
TORSDOF 2
