REMARK  Name = 40777440
REMARK  9 active torsions:
REMARK  status: ('A' for Active; 'I' for Inactive)
REMARK    1  A    between atoms: O_3  and  C_35
REMARK    2  A    between atoms: O_3  and  C_36
REMARK    3  A    between atoms: C_7  and  C_10
REMARK    4  A    between atoms: C_8  and  C_14
REMARK    5  A    between atoms: C_10  and  C_19
REMARK    6  A    between atoms: C_12  and  C_20
REMARK    7  A    between atoms: C_14  and  C_21
REMARK    8  A    between atoms: C_20  and  C_22
REMARK    9  A    between atoms: C_24  and  C_29
REMARK                            x       y       z     vdW  Elec       q    Type
REMARK                         _______ _______ _______ _____ _____    ______ ____
ROOT
ATOM      5  N   UNL     1       1.568  -3.388   2.333  0.00  0.00    -0.316 NA
ATOM      7  C   UNL     1      -0.132  -2.915  -0.032  0.00  0.00    +0.004 C 
ATOM      8  C   UNL     1       1.238  -2.225   0.164  0.00  0.00    +0.012 C 
ATOM      9  C   UNL     1      -0.153  -4.226   0.772  0.00  0.00    +0.019 C 
ATOM     11  C   UNL     1       1.601  -2.093   1.653  0.00  0.00    +0.085 C 
ATOM     13  C   UNL     1       0.256  -4.023   2.230  0.00  0.00    +0.081 C 
ATOM     37  H   UNL     1       1.805  -3.259   3.316  0.00  0.00    +0.122 HD
ENDROOT
BRANCH   7  10
ATOM     10  C   UNL     1      -1.333  -2.033   0.332  0.00  0.00    +0.100 C 
BRANCH  10  19
ATOM      1  O   UNL     1      -2.494  -3.535  -1.085  0.00  0.00    -0.276 OA
ATOM      4  N   UNL     1      -3.763  -1.868  -0.082  0.00  0.00    -0.301 N 
ATOM     12  C   UNL     1      -5.904   0.030  -0.557  0.00  0.00    -0.004 C 
ATOM     15  C   UNL     1      -4.562   0.460   0.055  0.00  0.00    +0.023 C 
ATOM     16  C   UNL     1      -5.711  -1.212  -1.440  0.00  0.00    +0.023 C 
ATOM     17  C   UNL     1      -3.892  -0.697   0.794  0.00  0.00    +0.108 C 
ATOM     18  C   UNL     1      -5.019  -2.334  -0.669  0.00  0.00    +0.108 C 
ATOM     19  C   UNL     1      -2.577  -2.552  -0.344  0.00  0.00    +0.216 C 
BRANCH  12  20
ATOM     20  C   UNL     1      -6.528   1.173  -1.356  0.00  0.00    +0.038 C 
BRANCH  20  22
ATOM     22  C   UNL     1      -7.191   2.180  -0.457  0.00  0.00    -0.047 A 
ATOM     25  C   UNL     1      -8.535   2.030  -0.114  0.00  0.00    +0.003 A 
ATOM     26  C   UNL     1      -6.463   3.264   0.032  0.00  0.00    +0.003 A 
ATOM     27  C   UNL     1      -9.150   2.965   0.719  0.00  0.00    +0.000 A 
ATOM     28  C   UNL     1      -7.078   4.198   0.866  0.00  0.00    +0.000 A 
ATOM     30  C   UNL     1      -8.422   4.049   1.209  0.00  0.00    +0.000 A 
ENDBRANCH  20  22
ENDBRANCH  12  20
ENDBRANCH  10  19
ENDBRANCH   7  10
BRANCH   8  14
ATOM     14  C   UNL     1       1.331  -0.867  -0.534  0.00  0.00    +0.064 C 
BRANCH  14  21
ATOM      2  O   UNL     1       4.641  -0.322  -1.841  0.00  0.00    -0.354 OA
ATOM      6  N   UNL     1       3.351  -0.832  -1.932  0.00  0.00    -0.083 NA
ATOM     21  C   UNL     1       2.758  -0.478  -0.788  0.00  0.00    +0.085 A 
ATOM     23  C   UNL     1       3.615   0.250   0.055  0.00  0.00    +0.076 A 
ATOM     24  C   UNL     1       4.786   0.321  -0.654  0.00  0.00    +0.167 A 
BRANCH  24  29
ATOM     29  C   UNL     1       6.074   0.904  -0.416  0.00  0.00    +0.020 A 
ATOM     31  C   UNL     1       6.322   1.586   0.775  0.00  0.00    +0.015 A 
ATOM     32  C   UNL     1       7.079   0.789  -1.377  0.00  0.00    +0.015 A 
ATOM     33  C   UNL     1       7.576   2.153   1.006  0.00  0.00    +0.046 A 
ATOM     34  C   UNL     1       8.333   1.355  -1.146  0.00  0.00    +0.046 A 
ATOM     35  C   UNL     1       8.581   2.038   0.045  0.00  0.00    +0.120 A 
BRANCH  35   3
ATOM      3  O   UNL     1       9.805   2.588   0.272  0.00  0.00    -0.495 OA
ATOM     36  C   UNL     1       9.991   3.269   1.512  0.00  0.00    +0.277 C 
ENDBRANCH  35   3
ENDBRANCH  24  29
ENDBRANCH  14  21
ENDBRANCH   8  14
TORSDOF 8
