REMARK  Name = 75536757
REMARK  8 active torsions:
REMARK  status: ('A' for Active; 'I' for Inactive)
REMARK    1  A    between atoms: S_1  and  C_25
REMARK    2  A    between atoms: S_1  and  C_28
REMARK    3  A    between atoms: O_3  and  C_12
REMARK    4  A    between atoms: N_8  and  C_11
REMARK    5  A    between atoms: N_8  and  C_16
REMARK    6  A    between atoms: N_9  and  C_15
REMARK    7  A    between atoms: C_13  and  C_15
REMARK    8  A    between atoms: C_16  and  C_18
REMARK                            x       y       z     vdW  Elec       q    Type
REMARK                         _______ _______ _______ _____ _____    ______ ____
ROOT
ATOM      2  O   UNL     1      -1.803   0.929  -0.282  0.00  0.00    -0.371 OA
ATOM     11  C   UNL     1       0.217  -0.309  -0.445  0.00  0.00    +0.111 C 
ATOM     12  C   UNL     1      -0.705  -0.993   0.548  0.00  0.00    +0.164 C 
ATOM     13  C   UNL     1      -2.055  -0.422   0.136  0.00  0.00    +0.165 C 
ATOM     14  C   UNL     1      -0.391   1.083  -0.510  0.00  0.00    +0.181 C 
ENDROOT
BRANCH  12   3
ATOM      3  O   UNL     1      -0.673  -2.403   0.439  0.00  0.00    -0.388 OA
ATOM     30  H   UNL     1      -0.895  -2.645  -0.476  0.00  0.00    +0.210 HD
ENDBRANCH  12   3
BRANCH  11   8
ATOM      8  N   UNL     1       1.612  -0.298  -0.034  0.00  0.00    -0.305 NA
ATOM     29  H   UNL     1       1.867  -1.227   0.302  0.00  0.00    +0.123 HD
BRANCH   8  16
ATOM     16  C   UNL     1       2.484   0.057  -1.147  0.00  0.00    +0.116 C 
BRANCH  16  18
ATOM     18  C   UNL     1       3.932   0.089  -0.737  0.00  0.00    -0.033 A 
ATOM     23  C   UNL     1       4.424   1.167  -0.001  0.00  0.00    +0.007 A 
ATOM     24  C   UNL     1       4.781  -0.959  -1.092  0.00  0.00    +0.007 A 
ATOM     25  C   UNL     1       6.615   0.149   0.025  0.00  0.00    +0.088 A 
ATOM     26  C   UNL     1       5.766   1.197   0.380  0.00  0.00    +0.027 A 
ATOM     27  C   UNL     1       6.123  -0.929  -0.711  0.00  0.00    +0.027 A 
BRANCH  25   1
ATOM      1  S   UNL     1       8.294   0.186   0.504  0.00  0.00    -0.006 S 
ATOM      6  O   UNL     1       8.431   1.038   1.678  0.00  0.00    -0.170 OA
ATOM      7  O   UNL     1       8.777  -1.187   0.547  0.00  0.00    -0.170 OA
ATOM     28  C   UNL     1       9.119   1.014  -0.836  0.00  0.00    +0.200 C 
ENDBRANCH  25   1
ENDBRANCH  16  18
ENDBRANCH   8  16
ENDBRANCH  11   8
BRANCH  13  15
ATOM     15  C   UNL     1      -3.077  -0.431   1.258  0.00  0.00    +0.140 C 
BRANCH  15   9
ATOM      4  O   UNL     1      -9.101   1.132  -0.312  0.00  0.00    -0.377 OA
ATOM      5  O   UNL     1      -5.203  -1.884   0.123  0.00  0.00    -0.253 OA
ATOM      9  N   UNL     1      -4.341   0.122   0.827  0.00  0.00    -0.297 N 
ATOM     10  N   UNL     1      -6.512   0.017  -0.103  0.00  0.00    -0.281 N 
ATOM     17  C   UNL     1      -5.344  -0.666   0.274  0.00  0.00    +0.302 C 
ATOM     19  C   UNL     1      -7.618  -0.735  -0.701  0.00  0.00    +0.137 C 
ATOM     20  C   UNL     1      -6.703   1.475  -0.100  0.00  0.00    +0.137 C 
ATOM     21  C   UNL     1      -8.955  -0.278  -0.139  0.00  0.00    +0.179 C 
ATOM     22  C   UNL     1      -8.093   1.838   0.412  0.00  0.00    +0.179 C 
ATOM     31  H   UNL     1      -4.448   1.121   0.934  0.00  0.00    +0.150 HD
ENDBRANCH  15   9
ENDBRANCH  13  15
TORSDOF 7
