REMARK  Name = 75536976
REMARK  5 active torsions:
REMARK  status: ('A' for Active; 'I' for Inactive)
REMARK    1  A    between atoms: S_1  and  N_6
REMARK    2  A    between atoms: S_1  and  C_16
REMARK    3  A    between atoms: N_7  and  C_15
REMARK    4  A    between atoms: C_15  and  C_17
REMARK    5  A    between atoms: C_16  and  C_18
REMARK                            x       y       z     vdW  Elec       q    Type
REMARK                         _______ _______ _______ _____ _____    ______ ____
ROOT
ATOM      2  O   UNL     1      -3.326  -2.120   1.630  0.00  0.00    -0.252 OA
ATOM      5  N   UNL     1      -1.387  -2.074   0.303  0.00  0.00    -0.278 N 
ATOM      6  N   UNL     1       1.312  -1.717  -0.333  0.00  0.00    -0.178 NA
ATOM      7  N   UNL     1      -3.268  -1.169  -0.527  0.00  0.00    -0.279 N 
ATOM      9  C   UNL     1      -1.041  -1.696  -1.054  0.00  0.00    +0.111 C 
ATOM     10  C   UNL     1       0.273  -0.924  -1.072  0.00  0.00    +0.133 C 
ATOM     11  C   UNL     1      -2.254  -0.900  -1.530  0.00  0.00    +0.133 C 
ATOM     12  C   UNL     1      -0.401  -2.730   1.139  0.00  0.00    +0.127 C 
ATOM     13  C   UNL     1       0.916  -1.961   1.094  0.00  0.00    +0.128 C 
ATOM     14  C   UNL     1      -2.735  -1.828   0.598  0.00  0.00    +0.305 C 
ENDROOT
BRANCH   6   1
ATOM      1  S   UNL     1       2.928  -1.194  -0.562  0.00  0.00    +0.036 S 
ATOM      3  O   UNL     1       3.107  -0.837  -1.952  0.00  0.00    -0.158 OA
ATOM      4  O   UNL     1       3.814  -2.120   0.107  0.00  0.00    -0.158 OA
BRANCH   1  16
ATOM     16  C   UNL     1       2.877   0.303   0.388  0.00  0.00    +0.220 C 
BRANCH  16  18
ATOM     18  C   UNL     1       4.233   0.935   0.316  0.00  0.00    -0.025 A 
ATOM     21  C   UNL     1       4.648   1.565  -0.858  0.00  0.00    +0.005 A 
ATOM     22  C   UNL     1       5.082   0.893   1.422  0.00  0.00    +0.005 A 
ATOM     24  C   UNL     1       5.911   2.154  -0.924  0.00  0.00    +0.000 A 
ATOM     25  C   UNL     1       6.345   1.481   1.355  0.00  0.00    +0.000 A 
ATOM     27  C   UNL     1       6.759   2.111   0.182  0.00  0.00    +0.000 A 
ENDBRANCH  16  18
ENDBRANCH   1  16
ENDBRANCH   6   1
BRANCH   7  15
ATOM     15  C   UNL     1      -4.623  -0.679  -0.657  0.00  0.00    +0.146 C 
BRANCH  15  17
ATOM      8  N   UNL     1      -4.982   3.082  -0.822  0.00  0.00    -0.263 NA
ATOM     17  C   UNL     1      -4.747   0.753  -0.220  0.00  0.00    -0.012 A 
ATOM     19  C   UNL     1      -4.742   1.094   1.128  0.00  0.00    +0.008 A 
ATOM     20  C   UNL     1      -4.868   1.775  -1.147  0.00  0.00    +0.115 A 
ATOM     23  C   UNL     1      -4.857   2.428   1.502  0.00  0.00    +0.020 A 
ATOM     26  C   UNL     1      -4.973   3.375   0.498  0.00  0.00    +0.111 A 
ENDBRANCH  15  17
ENDBRANCH   7  15
TORSDOF 5
