REMARK  Name = 75536859
REMARK  4 active torsions:
REMARK  status: ('A' for Active; 'I' for Inactive)
REMARK    1  A    between atoms: O_5  and  C_11
REMARK    2  A    between atoms: O_5  and  C_17
REMARK    3  A    between atoms: C_16  and  C_18
REMARK    4  A    between atoms: C_22  and  C_24
REMARK                            x       y       z     vdW  Elec       q    Type
REMARK                         _______ _______ _______ _____ _____    ______ ____
ROOT
ATOM      4  O   UNL     1       0.358  -2.967  -0.745  0.00  0.00    -0.375 OA
ATOM      6  O   UNL     1       4.784  -1.783   0.778  0.00  0.00    -0.268 OA
ATOM      7  N   UNL     1       2.528  -1.166   0.623  0.00  0.00    -0.290 N 
ATOM     11  C   UNL     1       0.147  -0.619  -0.117  0.00  0.00    +0.218 C 
ATOM     12  C   UNL     1       1.530  -0.132   0.326  0.00  0.00    +0.155 C 
ATOM     13  C   UNL     1       2.058  -2.511   0.958  0.00  0.00    +0.136 C 
ATOM     14  C   UNL     1       0.204  -1.643  -1.248  0.00  0.00    +0.206 C 
ATOM     15  C   UNL     1       1.672  -3.284  -0.297  0.00  0.00    +0.179 C 
ATOM     16  C   UNL     1       3.913  -0.939   0.567  0.00  0.00    +0.267 C 
ENDROOT
BRANCH  16  18
ATOM      9  N   UNL     1       4.007   1.408   1.059  0.00  0.00    -0.247 NA
ATOM     10  N   UNL     1       5.611   1.880  -1.193  0.00  0.00    -0.259 NA
ATOM     18  C   UNL     1       4.386   0.414   0.232  0.00  0.00    +0.144 A 
ATOM     20  C   UNL     1       5.174   0.646  -0.874  0.00  0.00    +0.143 A 
ATOM     25  C   UNL     1       4.444   2.643   0.741  0.00  0.00    +0.131 A 
ATOM     26  C   UNL     1       5.232   2.874  -0.365  0.00  0.00    +0.130 A 
ENDBRANCH  16  18
BRANCH  11   5
ATOM      5  O   UNL     1      -0.570   0.532  -0.567  0.00  0.00    -0.469 OA
BRANCH   5  17
ATOM      8  N   UNL     1      -2.537  -0.679  -0.375  0.00  0.00    -0.221 NA
ATOM     17  C   UNL     1      -1.923   0.525  -0.369  0.00  0.00    +0.215 A 
ATOM     19  C   UNL     1      -2.579   1.730  -0.175  0.00  0.00    +0.068 A 
ATOM     21  C   UNL     1      -3.955   1.697   0.024  0.00  0.00    +0.019 A 
ATOM     22  C   UNL     1      -4.623   0.477   0.024  0.00  0.00    +0.073 A 
ATOM     23  C   UNL     1      -3.875  -0.672  -0.178  0.00  0.00    +0.127 A 
BRANCH  22  24
ATOM      1  F   UNL     1      -6.774  -0.153  -0.810  0.00  0.00    -0.166 F 
ATOM      2  F   UNL     1      -6.460  -0.325   1.329  0.00  0.00    -0.166 F 
ATOM      3  F   UNL     1      -6.660   1.638   0.416  0.00  0.00    -0.166 F 
ATOM     24  C   UNL     1      -6.093   0.408   0.234  0.00  0.00    +0.419 C 
ENDBRANCH  22  24
ENDBRANCH   5  17
ENDBRANCH  11   5
TORSDOF 4
