REMARK  Name = 45361414
REMARK  13 active torsions:
REMARK  status: ('A' for Active; 'I' for Inactive)
REMARK    1  A    between atoms: O_1  and  C_9
REMARK    2  A    between atoms: N_4  and  C_13
REMARK    3  A    between atoms: N_5  and  C_22
REMARK    4  A    between atoms: C_6  and  C_16
REMARK    5  A    between atoms: C_8  and  C_18
REMARK    6  A    between atoms: C_11  and  C_17
REMARK    7  A    between atoms: C_17  and  C_19
REMARK    8  A    between atoms: C_17  and  C_20
REMARK    9  A    between atoms: C_21  and  C_23
REMARK   10  A    between atoms: C_23  and  C_24
REMARK   11  A    between atoms: C_24  and  C_30
REMARK   12  A    between atoms: C_24  and  C_31
REMARK   13  A    between atoms: C_24  and  C_32
REMARK                            x       y       z     vdW  Elec       q    Type
REMARK                         _______ _______ _______ _____ _____    ______ ____
ROOT
ATOM      6  C   UNL     1       0.359  -0.298  -1.357  0.00  0.00    -0.027 C 
ATOM      7  C   UNL     1       0.380  -0.339   0.207  0.00  0.00    +0.028 C 
ATOM      8  C   UNL     1       1.829  -0.631   0.739  0.00  0.00    +0.012 C 
ATOM      9  C   UNL     1      -0.736  -1.269   0.763  0.00  0.00    +0.122 C 
ATOM     10  C   UNL     1      -1.054   0.103  -1.844  0.00  0.00    +0.007 C 
ATOM     11  C   UNL     1      -2.133  -0.929   0.192  0.00  0.00    +0.029 C 
ATOM     12  C   UNL     1       1.350   0.782  -1.847  0.00  0.00    +0.009 C 
ATOM     13  C   UNL     1       2.830   0.418   0.179  0.00  0.00    +0.076 C 
ATOM     14  C   UNL     1      -2.145  -0.829  -1.334  0.00  0.00    +0.007 C 
ATOM     15  C   UNL     1       2.769   0.566  -1.341  0.00  0.00    +0.023 C 
ATOM     16  C   UNL     1       0.735  -1.661  -1.991  0.00  0.00    +0.011 C 
ATOM     18  C   UNL     1       1.928  -0.656   2.274  0.00  0.00    +0.010 C 
ENDROOT
BRANCH  13   4
ATOM      3  O   UNL     1       4.976   2.295   0.690  0.00  0.00    -0.276 OA
ATOM      4  N   UNL     1       4.194   0.111   0.555  0.00  0.00    -0.312 N 
ATOM     21  C   UNL     1       5.154   1.082   0.779  0.00  0.00    +0.214 C 
ATOM     33  H   UNL     1       4.455  -0.868   0.620  0.00  0.00    +0.149 HD
BRANCH  21  23
ATOM     23  C   UNL     1       6.508   0.502   1.153  0.00  0.00    +0.102 C 
BRANCH  23  24
ATOM     24  C   UNL     1       7.420   0.161  -0.050  0.00  0.00    -0.029 C 
ATOM     30  C   UNL     1       7.690   1.399  -0.920  0.00  0.00    +0.011 C 
ATOM     31  C   UNL     1       6.697  -0.892  -0.913  0.00  0.00    +0.011 C 
ATOM     32  C   UNL     1       8.759  -0.431   0.420  0.00  0.00    +0.011 C 
ENDBRANCH  23  24
ENDBRANCH  21  23
ENDBRANCH  13   4
BRANCH   9   1
ATOM      1  O   UNL     1      -0.826  -1.113   2.180  0.00  0.00    -0.391 OA
ATOM     34  H   UNL     1      -1.036  -0.183   2.369  0.00  0.00    +0.210 HD
ENDBRANCH   9   1
BRANCH  11  17
ATOM     17  C   UNL     1      -3.195  -1.936   0.648  0.00  0.00    +0.077 C 
ATOM     19  C   UNL     1      -2.817  -3.341   0.192  0.00  0.00    +0.017 C 
BRANCH  17  20
ATOM      2  O   UNL     1      -5.240  -2.258  -0.609  0.00  0.00    -0.276 OA
ATOM      5  N   UNL     1      -4.940  -0.258   0.527  0.00  0.00    -0.312 N 
ATOM     20  C   UNL     1      -4.564  -1.527   0.112  0.00  0.00    +0.216 C 
ATOM     35  H   UNL     1      -4.326   0.269   1.139  0.00  0.00    +0.149 HD
BRANCH   5  22
ATOM     22  C   UNL     1      -6.196   0.349   0.146  0.00  0.00    +0.073 C 
ATOM     25  C   UNL     1      -6.721   1.270   1.253  0.00  0.00    +0.022 C 
ATOM     26  C   UNL     1      -6.064   1.100  -1.184  0.00  0.00    +0.022 C 
ATOM     27  C   UNL     1      -5.904   2.555   1.382  0.00  0.00    +0.002 C 
ATOM     28  C   UNL     1      -5.248   2.386  -1.051  0.00  0.00    +0.002 C 
ATOM     29  C   UNL     1      -5.796   3.289   0.049  0.00  0.00    +0.000 C 
ENDBRANCH   5  22
ENDBRANCH  17  20
ENDBRANCH  11  17
TORSDOF 7
