REMARK  Name = 40777961
REMARK  10 active torsions:
REMARK  status: ('A' for Active; 'I' for Inactive)
REMARK    1  A    between atoms: O_2  and  C_8
REMARK    2  A    between atoms: O_3  and  C_10
REMARK    3  A    between atoms: N_6  and  C_13
REMARK    4  A    between atoms: N_7  and  C_15
REMARK    5  A    between atoms: N_7  and  C_17
REMARK    6  A    between atoms: C_9  and  C_12
REMARK    7  A    between atoms: C_11  and  C_13
REMARK    8  A    between atoms: C_12  and  C_14
REMARK    9  A    between atoms: C_15  and  C_18
REMARK   10  A    between atoms: C_16  and  C_19
REMARK                            x       y       z     vdW  Elec       q    Type
REMARK                         _______ _______ _______ _____ _____    ______ ____
ROOT
ATOM      1  O   UNL     1       2.049  -0.242  -0.630  0.00  0.00    -0.366 OA
ATOM      8  C   UNL     1       3.512   1.074   0.669  0.00  0.00    +0.175 C 
ATOM      9  C   UNL     1       2.291   1.120  -0.233  0.00  0.00    +0.159 C 
ATOM     10  C   UNL     1       4.327  -0.027   0.021  0.00  0.00    +0.176 C 
ATOM     11  C   UNL     1       3.246  -1.018  -0.396  0.00  0.00    +0.167 C 
ENDROOT
BRANCH   8   2
ATOM      2  O   UNL     1       4.184   2.314   0.714  0.00  0.00    -0.387 OA
ATOM     25  H   UNL     1       5.011   2.180   1.208  0.00  0.00    +0.210 HD
ENDBRANCH   8   2
BRANCH  10   3
ATOM      3  O   UNL     1       4.962   0.458  -1.162  0.00  0.00    -0.387 OA
ATOM     26  H   UNL     1       5.440  -0.288  -1.562  0.00  0.00    +0.210 HD
ENDBRANCH  10   3
BRANCH   9  12
ATOM     12  C   UNL     1       1.057   1.679   0.452  0.00  0.00    +0.130 C 
BRANCH  12  14
ATOM      4  O   UNL     1      -0.113   1.177  -1.578  0.00  0.00    -0.276 OA
ATOM      7  N   UNL     1      -1.367   2.110   0.136  0.00  0.00    -0.300 N 
ATOM     14  C   UNL     1      -0.183   1.627  -0.431  0.00  0.00    +0.218 C 
ATOM     17  C   UNL     1      -1.426   2.637   1.494  0.00  0.00    +0.132 C 
BRANCH   7  15
ATOM     15  C   UNL     1      -2.635   2.123  -0.591  0.00  0.00    +0.142 C 
BRANCH  15  18
ATOM     18  C   UNL     1      -3.433   0.875  -0.350  0.00  0.00    -0.030 A 
ATOM     20  C   UNL     1      -3.268  -0.231  -1.184  0.00  0.00    +0.005 A 
ATOM     21  C   UNL     1      -4.341   0.821   0.708  0.00  0.00    +0.005 A 
ATOM     22  C   UNL     1      -4.010  -1.391  -0.960  0.00  0.00    +0.000 A 
ATOM     23  C   UNL     1      -5.083  -0.339   0.931  0.00  0.00    +0.000 A 
ATOM     24  C   UNL     1      -4.917  -1.445   0.097  0.00  0.00    +0.000 A 
ENDBRANCH  15  18
ENDBRANCH   7  15
ENDBRANCH  12  14
ENDBRANCH   9  12
BRANCH  11  13
ATOM     13  C   UNL     1       2.931  -2.045   0.684  0.00  0.00    +0.138 C 
BRANCH  13   6
ATOM      5  O   UNL     1       0.061  -1.758   1.018  0.00  0.00    -0.276 OA
ATOM      6  N   UNL     1       1.909  -2.953   0.253  0.00  0.00    -0.313 N 
ATOM     16  C   UNL     1       0.551  -2.735   0.456  0.00  0.00    +0.210 C 
ATOM     19  C   UNL     1      -0.305  -3.832  -0.117  0.00  0.00    +0.109 C 
ATOM     27  H   UNL     1       2.202  -3.791  -0.242  0.00  0.00    +0.149 HD
ENDBRANCH  13   6
ENDBRANCH  11  13
TORSDOF 8
