REMARK  Name = 45360953
REMARK  8 active torsions:
REMARK  status: ('A' for Active; 'I' for Inactive)
REMARK    1  A    between atoms: N_4  and  C_17
REMARK    2  A    between atoms: N_5  and  C_15
REMARK    3  A    between atoms: N_7  and  C_24
REMARK    4  A    between atoms: C_12  and  C_16
REMARK    5  A    between atoms: C_15  and  C_19
REMARK    6  A    between atoms: C_16  and  C_18
REMARK    7  A    between atoms: C_18  and  C_20
REMARK    8  A    between atoms: C_24  and  C_25
REMARK                            x       y       z     vdW  Elec       q    Type
REMARK                         _______ _______ _______ _____ _____    ______ ____
ROOT
ATOM      2  O   UNL     1       3.208  -1.395  -1.381  0.00  0.00    -0.274 OA
ATOM      4  N   UNL     1       1.098   1.566  -0.051  0.00  0.00    -0.296 NA
ATOM      5  N   UNL     1       4.473   0.218   0.378  0.00  0.00    -0.285 NA
ATOM      6  N   UNL     1       1.184  -1.305  -0.317  0.00  0.00    -0.312 N 
ATOM      8  C   UNL     1       2.356   1.361   0.701  0.00  0.00    +0.084 C 
ATOM      9  C   UNL     1       3.042  -0.035   0.631  0.00  0.00    +0.161 C 
ATOM     10  C   UNL     1       3.499   2.301   0.275  0.00  0.00    +0.036 C 
ATOM     11  C   UNL     1       4.741   1.595   0.776  0.00  0.00    +0.087 C 
ATOM     12  C   UNL     1      -0.040   0.722   0.410  0.00  0.00    +0.074 C 
ATOM     13  C   UNL     1       2.514  -0.960  -0.463  0.00  0.00    +0.232 C 
ATOM     14  C   UNL     1       0.320  -0.747   0.705  0.00  0.00    +0.123 C 
ATOM     17  C   UNL     1       0.712   2.988  -0.048  0.00  0.00    +0.105 C 
ATOM     31  H   UNL     1       0.777  -1.937  -0.999  0.00  0.00    +0.149 HD
ENDROOT
BRANCH   5  15
ATOM     15  C   UNL     1       5.354  -0.728   1.050  0.00  0.00    +0.127 C 
BRANCH  15  19
ATOM      1  S   UNL     1       8.082  -1.154   1.359  0.00  0.00    -0.100 S 
ATOM     19  C   UNL     1       6.708  -0.792   0.404  0.00  0.00    +0.004 A 
ATOM     21  C   UNL     1       7.036  -0.592  -0.919  0.00  0.00    +0.012 A 
ATOM     22  C   UNL     1       8.434  -0.738  -1.151  0.00  0.00    +0.008 A 
ATOM     23  C   UNL     1       9.121  -1.044   0.003  0.00  0.00    +0.045 A 
ENDBRANCH  15  19
ENDBRANCH   5  15
BRANCH  12  16
ATOM     16  C   UNL     1      -1.171   0.721  -0.640  0.00  0.00    +0.029 C 
BRANCH  16  18
ATOM     18  C   UNL     1      -2.505   0.405   0.009  0.00  0.00    +0.097 C 
BRANCH  18  20
ATOM      3  O   UNL     1      -3.467   0.623  -2.203  0.00  0.00    -0.276 OA
ATOM      7  N   UNL     1      -4.854   0.108  -0.413  0.00  0.00    -0.311 N 
ATOM     20  C   UNL     1      -3.634   0.397  -1.007  0.00  0.00    +0.213 C 
ATOM     32  H   UNL     1      -4.886  -0.064   0.588  0.00  0.00    +0.149 HD
BRANCH   7  24
ATOM     24  C   UNL     1      -6.082   0.042  -1.169  0.00  0.00    +0.139 C 
BRANCH  24  25
ATOM     25  C   UNL     1      -7.261  -0.287  -0.299  0.00  0.00    -0.030 A 
ATOM     26  C   UNL     1      -7.624  -1.617  -0.091  0.00  0.00    +0.005 A 
ATOM     27  C   UNL     1      -7.992   0.738   0.303  0.00  0.00    +0.005 A 
ATOM     28  C   UNL     1      -8.719  -1.923   0.718  0.00  0.00    +0.000 A 
ATOM     29  C   UNL     1      -9.086   0.432   1.111  0.00  0.00    +0.000 A 
ATOM     30  C   UNL     1      -9.450  -0.899   1.319  0.00  0.00    +0.000 A 
ENDBRANCH  24  25
ENDBRANCH   7  24
ENDBRANCH  18  20
ENDBRANCH  16  18
ENDBRANCH  12  16
TORSDOF 7
