REMARK  Name = 11887601
REMARK  9 active torsions:
REMARK  status: ('A' for Active; 'I' for Inactive)
REMARK    1  A    between atoms: N_5  and  C_18
REMARK    2  A    between atoms: N_9  and  C_27
REMARK    3  A    between atoms: N_10  and  C_30
REMARK    4  A    between atoms: C_11  and  C_14
REMARK    5  A    between atoms: C_14  and  C_18
REMARK    6  A    between atoms: C_18  and  C_24
REMARK    7  A    between atoms: C_19  and  C_21
REMARK    8  A    between atoms: C_27  and  C_28
REMARK    9  A    between atoms: C_27  and  C_29
REMARK                            x       y       z     vdW  Elec       q    Type
REMARK                         _______ _______ _______ _____ _____    ______ ____
ROOT
ATOM      3  O   UNL     1      -2.069   4.471   0.345  0.00  0.00    -0.253 OA
ATOM      4  O   UNL     1       4.351   1.952   1.184  0.00  0.00    -0.252 OA
ATOM      6  N   UNL     1      -0.487   2.807  -0.010  0.00  0.00    -0.271 N 
ATOM      7  N   UNL     1       2.299   1.916   0.118  0.00  0.00    -0.282 N 
ATOM      9  N   UNL     1      -2.765   2.470  -0.549  0.00  0.00    -0.297 N 
ATOM     10  N   UNL     1       4.100   0.655  -0.733  0.00  0.00    -0.269 N 
ATOM     19  C   UNL     1      -0.085   1.519  -0.592  0.00  0.00    +0.181 C 
ATOM     20  C   UNL     1       1.403   1.445  -0.950  0.00  0.00    +0.141 C 
ATOM     22  C   UNL     1       0.585   3.656   0.513  0.00  0.00    +0.129 C 
ATOM     23  C   UNL     1       1.734   2.847   1.093  0.00  0.00    +0.128 C 
ATOM     25  C   UNL     1      -1.796   3.332  -0.045  0.00  0.00    +0.303 C 
ATOM     26  C   UNL     1       3.651   1.525   0.262  0.00  0.00    +0.307 C 
ATOM     39  H   UNL     1      -2.535   1.502  -0.737  0.00  0.00    +0.150 HD
ATOM     40  H   UNL     1       3.658   0.716  -1.646  0.00  0.00    +0.156 HD
ENDROOT
BRANCH  10  30
ATOM     30  C   UNL     1       5.096  -0.346  -0.620  0.00  0.00    +0.035 A 
ATOM     31  C   UNL     1       5.472  -1.086  -1.742  0.00  0.00    +0.023 A 
ATOM     32  C   UNL     1       5.701  -0.593   0.612  0.00  0.00    +0.023 A 
ATOM     33  C   UNL     1       6.453  -2.071  -1.631  0.00  0.00    +0.002 A 
ATOM     34  C   UNL     1       6.682  -1.578   0.723  0.00  0.00    +0.002 A 
ATOM     35  C   UNL     1       7.058  -2.317  -0.399  0.00  0.00    +0.000 A 
ENDBRANCH  10  30
BRANCH  19  21
ATOM      1  O   UNL     1      -0.388   0.640   1.610  0.00  0.00    -0.274 OA
ATOM      5  N   UNL     1      -0.765  -0.749  -0.219  0.00  0.00    -0.302 N 
ATOM     21  C   UNL     1      -0.430   0.444   0.398  0.00  0.00    +0.236 C 
ATOM     36  H   UNL     1      -0.691  -0.818  -1.230  0.00  0.00    +0.150 HD
BRANCH   5  18
ATOM     18  C   UNL     1      -1.115  -1.946   0.511  0.00  0.00    +0.159 C 
BRANCH  18  24
ATOM      2  O   UNL     1       1.150  -2.741   0.134  0.00  0.00    -0.274 OA
ATOM      8  N   UNL     1       0.088  -3.342   2.079  0.00  0.00    -0.328 N 
ATOM     24  C   UNL     1       0.163  -2.694   0.865  0.00  0.00    +0.231 C 
ATOM     37  H   UNL     1      -0.741  -3.312   2.664  0.00  0.00    +0.145 HD
ATOM     38  H   UNL     1       0.871  -3.885   2.429  0.00  0.00    +0.145 HD
ENDBRANCH  18  24
BRANCH  18  14
ATOM     14  C   UNL     1      -2.120  -2.816  -0.251  0.00  0.00    +0.035 C 
BRANCH  14  11
ATOM     11  C   UNL     1      -3.551  -2.281  -0.235  0.00  0.00    -0.009 C 
ATOM     12  C   UNL     1      -4.232  -2.599   1.103  0.00  0.00    +0.003 C 
ATOM     13  C   UNL     1      -4.357  -2.854  -1.408  0.00  0.00    +0.003 C 
ATOM     15  C   UNL     1      -5.682  -2.120   1.124  0.00  0.00    +0.000 C 
ATOM     16  C   UNL     1      -5.807  -2.376  -1.383  0.00  0.00    +0.000 C 
ATOM     17  C   UNL     1      -6.478  -2.685  -0.048  0.00  0.00    +0.000 C 
ENDBRANCH  14  11
ENDBRANCH  18  14
ENDBRANCH   5  18
ENDBRANCH  19  21
BRANCH   9  27
ATOM     27  C   UNL     1      -4.158   2.844  -0.652  0.00  0.00    +0.068 C 
ATOM     28  C   UNL     1      -4.892   2.513   0.641  0.00  0.00    +0.027 C 
ATOM     29  C   UNL     1      -4.808   2.160  -1.848  0.00  0.00    +0.027 C 
ENDBRANCH   9  27
TORSDOF 7
