REMARK  Name = 7051292
REMARK  8 active torsions:
REMARK  status: ('A' for Active; 'I' for Inactive)
REMARK    1  A    between atoms: S_1  and  N_12
REMARK    2  A    between atoms: S_1  and  C_27
REMARK    3  A    between atoms: O_7  and  C_26
REMARK    4  A    between atoms: O_7  and  C_30
REMARK    5  A    between atoms: N_12  and  C_23
REMARK    6  A    between atoms: C_22  and  C_25
REMARK    7  A    between atoms: C_25  and  C_26
REMARK    8  A    between atoms: C_31  and  C_34
REMARK                            x       y       z     vdW  Elec       q    Type
REMARK                         _______ _______ _______ _____ _____    ______ ____
ROOT
ATOM      5  O   UNL     1      -1.272   2.613   1.595  0.00  0.00    -0.266 OA
ATOM      6  O   UNL     1      -3.273  -2.357   1.700  0.00  0.00    -0.276 OA
ATOM     10  N   UNL     1      -3.979  -1.227  -0.203  0.00  0.00    -0.300 N 
ATOM     11  N   UNL     1      -2.545   1.628  -0.109  0.00  0.00    -0.310 N 
ATOM     13  C   UNL     1      -5.014   1.016   0.169  0.00  0.00    +0.027 C 
ATOM     14  C   UNL     1      -3.869   0.537  -1.955  0.00  0.00    +0.054 C 
ATOM     15  C   UNL     1      -5.090   1.219  -1.340  0.00  0.00    +0.018 C 
ATOM     16  C   UNL     1      -5.018  -0.483   0.512  0.00  0.00    +0.113 C 
ATOM     17  C   UNL     1      -3.765   1.726   0.703  0.00  0.00    +0.130 C 
ATOM     18  C   UNL     1      -3.913  -0.973  -1.651  0.00  0.00    +0.117 C 
ATOM     19  C   UNL     1      -2.581   1.134  -1.419  0.00  0.00    +0.027 A 
ATOM     20  C   UNL     1      -1.477   1.160  -2.188  0.00  0.00    +0.024 A 
ATOM     21  C   UNL     1      -1.363   2.151   0.458  0.00  0.00    +0.274 A 
ATOM     22  C   UNL     1      -3.202  -2.159   0.484  0.00  0.00    +0.218 C 
ATOM     23  C   UNL     1      -0.174   2.131  -0.430  0.00  0.00    +0.112 A 
ATOM     24  C   UNL     1      -0.233   1.672  -1.681  0.00  0.00    +0.031 A 
ENDROOT
BRANCH  23  12
ATOM     12  N   UNL     1       1.062   2.616   0.030  0.00  0.00    -0.211 N 
ATOM     35  H   UNL     1       1.724   2.812  -0.734  0.00  0.00    +0.174 HD
BRANCH  12   1
ATOM      1  S   UNL     1       1.744   1.840   1.371  0.00  0.00    +0.073 S 
ATOM      8  O   UNL     1       2.071   2.821   2.389  0.00  0.00    -0.150 OA
ATOM      9  O   UNL     1       0.957   0.669   1.710  0.00  0.00    -0.150 OA
BRANCH   1  27
ATOM     27  C   UNL     1       3.269   1.270   0.680  0.00  0.00    +0.109 A 
ATOM     28  C   UNL     1       3.336   0.012   0.081  0.00  0.00    +0.041 A 
ATOM     29  C   UNL     1       4.404   2.078   0.734  0.00  0.00    +0.029 A 
ATOM     31  C   UNL     1       4.539  -0.438  -0.463  0.00  0.00    +0.057 A 
ATOM     32  C   UNL     1       5.607   1.628   0.189  0.00  0.00    +0.002 A 
ATOM     33  C   UNL     1       5.674   0.370  -0.409  0.00  0.00    +0.012 A 
BRANCH  31  34
ATOM      2  F   UNL     1       5.849  -2.091  -1.593  0.00  0.00    -0.166 F 
ATOM      3  F   UNL     1       4.298  -2.809  -0.258  0.00  0.00    -0.166 F 
ATOM      4  F   UNL     1       3.758  -1.908  -2.162  0.00  0.00    -0.166 F 
ATOM     34  C   UNL     1       4.611  -1.783  -1.103  0.00  0.00    +0.417 C 
ENDBRANCH  31  34
ENDBRANCH   1  27
ENDBRANCH  12   1
ENDBRANCH  23  12
BRANCH  22  25
ATOM     25  C   UNL     1      -2.217  -2.953  -0.336  0.00  0.00    +0.124 C 
BRANCH  25  26
ATOM     26  C   UNL     1      -1.465  -3.909   0.565  0.00  0.00    +0.168 C 
BRANCH  26   7
ATOM      7  O   UNL     1      -0.734  -3.172   1.536  0.00  0.00    -0.382 OA
ATOM     30  C   UNL     1       0.004  -4.030   2.395  0.00  0.00    +0.194 C 
ENDBRANCH  26   7
ENDBRANCH  25  26
ENDBRANCH  22  25
TORSDOF 7
