REMARK  Name = 75536584
REMARK  9 active torsions:
REMARK  status: ('A' for Active; 'I' for Inactive)
REMARK    1  A    between atoms: O_2  and  C_9
REMARK    2  A    between atoms: O_4  and  C_18
REMARK    3  A    between atoms: O_4  and  C_21
REMARK    4  A    between atoms: N_5  and  C_8
REMARK    5  A    between atoms: N_5  and  C_13
REMARK    6  A    between atoms: N_6  and  C_12
REMARK    7  A    between atoms: C_10  and  C_12
REMARK    8  A    between atoms: C_13  and  C_14
REMARK    9  A    between atoms: C_15  and  C_18
REMARK                            x       y       z     vdW  Elec       q    Type
REMARK                         _______ _______ _______ _____ _____    ______ ____
ROOT
ATOM      1  O   UNL     1       1.248  -1.226  -0.026  0.00  0.00    -0.371 OA
ATOM      8  C   UNL     1      -0.726   0.066  -0.304  0.00  0.00    +0.111 C 
ATOM      9  C   UNL     1       0.246   0.830   0.577  0.00  0.00    +0.164 C 
ATOM     10  C   UNL     1       1.562   0.156   0.215  0.00  0.00    +0.165 C 
ATOM     11  C   UNL     1      -0.174  -1.347  -0.206  0.00  0.00    +0.181 C 
ENDROOT
BRANCH   9   2
ATOM      2  O   UNL     1       0.267   2.215   0.293  0.00  0.00    -0.388 OA
ATOM     23  H   UNL     1       0.476   2.331  -0.649  0.00  0.00    +0.210 HD
ENDBRANCH   9   2
BRANCH   8   5
ATOM      5  N   UNL     1      -2.109   0.165   0.131  0.00  0.00    -0.305 NA
ATOM     22  H   UNL     1      -2.320   1.138   0.353  0.00  0.00    +0.123 HD
BRANCH   5  13
ATOM     13  C   UNL     1      -3.021  -0.289  -0.912  0.00  0.00    +0.118 C 
BRANCH  13  14
ATOM      7  N   UNL     1      -6.587   0.934  -0.568  0.00  0.00    -0.263 NA
ATOM     14  C   UNL     1      -4.459  -0.209  -0.473  0.00  0.00    -0.015 A 
ATOM     16  C   UNL     1      -4.996  -1.151   0.397  0.00  0.00    +0.008 A 
ATOM     17  C   UNL     1      -5.289   0.805  -0.923  0.00  0.00    +0.115 A 
ATOM     19  C   UNL     1      -6.327  -1.052   0.786  0.00  0.00    +0.020 A 
ATOM     20  C   UNL     1      -7.074   0.000   0.280  0.00  0.00    +0.111 A 
ENDBRANCH  13  14
ENDBRANCH   5  13
ENDBRANCH   8   5
BRANCH  10  12
ATOM     12  C   UNL     1       2.611   0.261   1.308  0.00  0.00    +0.138 C 
BRANCH  12   6
ATOM      3  O   UNL     1       4.859   1.440  -0.080  0.00  0.00    -0.273 OA
ATOM      6  N   UNL     1       3.831  -0.390   0.925  0.00  0.00    -0.311 N 
ATOM     15  C   UNL     1       4.864   0.259   0.256  0.00  0.00    +0.239 C 
ATOM     24  H   UNL     1       3.932  -1.376   1.148  0.00  0.00    +0.149 HD
BRANCH  15  18
ATOM     18  C   UNL     1       6.030  -0.666  -0.022  0.00  0.00    +0.255 C 
BRANCH  18   4
ATOM      4  O   UNL     1       7.066   0.024  -0.688  0.00  0.00    -0.374 OA
ATOM     21  C   UNL     1       8.178  -0.823  -0.963  0.00  0.00    +0.194 C 
ENDBRANCH  18   4
ENDBRANCH  15  18
ENDBRANCH  12   6
ENDBRANCH  10  12
TORSDOF 8
