REMARK  Name = 40776867
REMARK  8 active torsions:
REMARK  status: ('A' for Active; 'I' for Inactive)
REMARK    1  A    between atoms: N_3  and  C_13
REMARK    2  A    between atoms: N_4  and  C_14
REMARK    3  A    between atoms: N_5  and  C_29
REMARK    4  A    between atoms: N_5  and  C_30
REMARK    5  A    between atoms: N_5  and  C_31
REMARK    6  A    between atoms: C_7  and  C_13
REMARK    7  A    between atoms: C_8  and  C_14
REMARK    8  A    between atoms: C_20  and  C_24
REMARK                            x       y       z     vdW  Elec       q    Type
REMARK                         _______ _______ _______ _____ _____    ______ ____
ROOT
ATOM      2  N   UNL     1       1.142  -2.418   0.725  0.00  0.00    -0.298 NA
ATOM      6  C   UNL     1       1.494  -1.375  -1.632  0.00  0.00    -0.002 C 
ATOM      7  C   UNL     1       2.621  -0.946  -0.665  0.00  0.00    +0.023 C 
ATOM      8  C   UNL     1      -0.097  -1.720   0.287  0.00  0.00    +0.074 C 
ATOM      9  C   UNL     1       0.132  -0.965  -1.041  0.00  0.00    +0.024 C 
ATOM     10  C   UNL     1       2.284  -1.473   0.749  0.00  0.00    +0.090 C 
ATOM     11  C   UNL     1       1.519  -2.914  -1.694  0.00  0.00    +0.019 C 
ATOM     12  C   UNL     1       1.441  -3.481  -0.265  0.00  0.00    +0.085 C 
ENDROOT
BRANCH   7  13
ATOM     13  C   UNL     1       2.869   0.561  -0.659  0.00  0.00    +0.110 C 
BRANCH  13   3
ATOM      3  N   UNL     1       3.984   0.868   0.201  0.00  0.00    -0.329 N 
ATOM     15  C   UNL     1       3.869   1.774   1.341  0.00  0.00    +0.110 C 
ATOM     16  C   UNL     1       5.304   0.912  -0.222  0.00  0.00    +0.033 A 
ATOM     17  C   UNL     1       5.297   1.975   1.890  0.00  0.00    +0.056 C 
ATOM     18  C   UNL     1       6.121   1.558   0.715  0.00  0.00    -0.025 A 
ATOM     19  C   UNL     1       5.861   0.407  -1.387  0.00  0.00    +0.023 A 
ATOM     21  C   UNL     1       7.484   1.709   0.523  0.00  0.00    +0.005 A 
ATOM     22  C   UNL     1       7.235   0.559  -1.601  0.00  0.00    +0.002 A 
ATOM     23  C   UNL     1       8.041   1.205  -0.652  0.00  0.00    +0.000 A 
ENDBRANCH  13   3
ENDBRANCH   7  13
BRANCH   8  14
ATOM     14  C   UNL     1      -0.664  -0.801   1.372  0.00  0.00    +0.123 C 
BRANCH  14   4
ATOM      1  O   UNL     1      -3.248  -1.970   1.823  0.00  0.00    -0.270 OA
ATOM      4  N   UNL     1      -1.931  -0.274   0.945  0.00  0.00    -0.310 N 
ATOM     20  C   UNL     1      -3.137  -0.911   1.210  0.00  0.00    +0.244 C 
ATOM     32  H   UNL     1      -1.907   0.568   0.379  0.00  0.00    +0.149 HD
BRANCH  20  24
ATOM     24  C   UNL     1      -4.357  -0.251   0.677  0.00  0.00    +0.037 A 
ATOM     25  C   UNL     1      -5.487  -1.011   0.378  0.00  0.00    +0.015 A 
ATOM     26  C   UNL     1      -4.371   1.129   0.475  0.00  0.00    +0.015 A 
ATOM     27  C   UNL     1      -6.632  -0.391  -0.123  0.00  0.00    +0.024 A 
ATOM     28  C   UNL     1      -5.515   1.749  -0.027  0.00  0.00    +0.024 A 
ATOM     29  C   UNL     1      -6.646   0.989  -0.326  0.00  0.00    +0.029 A 
BRANCH  29   5
ATOM      5  N   UNL     1      -7.803   1.617  -0.832  0.00  0.00    -0.336 N 
ATOM     30  C   UNL     1      -8.983   0.836  -1.146  0.00  0.00    +0.129 C 
ATOM     31  C   UNL     1      -7.829   3.051  -1.038  0.00  0.00    +0.129 C 
ENDBRANCH  29   5
ENDBRANCH  20  24
ENDBRANCH  14   4
ENDBRANCH   8  14
TORSDOF 6
