REMARK  Name = 45783993
REMARK  14 active torsions:
REMARK  status: ('A' for Active; 'I' for Inactive)
REMARK    1  A    between atoms: O_2  and  C_28
REMARK    2  A    between atoms: O_2  and  C_31
REMARK    3  A    between atoms: N_5  and  C_15
REMARK    4  A    between atoms: N_6  and  C_27
REMARK    5  A    between atoms: N_9  and  C_36
REMARK    6  A    between atoms: C_10  and  C_14
REMARK    7  A    between atoms: C_11  and  C_15
REMARK    8  A    between atoms: C_13  and  C_18
REMARK    9  A    between atoms: C_14  and  C_21
REMARK   10  A    between atoms: C_14  and  C_22
REMARK   11  A    between atoms: C_17  and  C_25
REMARK   12  A    between atoms: C_18  and  C_26
REMARK   13  A    between atoms: C_27  and  C_28
REMARK   14  A    between atoms: C_29  and  C_30
REMARK                            x       y       z     vdW  Elec       q    Type
REMARK                         _______ _______ _______ _____ _____    ______ ____
ROOT
ATOM     10  C   UNL     1       1.633  -0.292   0.725  0.00  0.00    +0.000 C 
ATOM     11  C   UNL     1       2.475  -1.581   0.573  0.00  0.00    +0.029 C 
ATOM     12  C   UNL     1       0.569  -0.212  -0.378  0.00  0.00    +0.012 C 
ATOM     13  C   UNL     1      -0.370  -1.438  -0.413  0.00  0.00    +0.024 C 
ATOM     16  C   UNL     1       1.630  -2.793   0.274  0.00  0.00    -0.023 C 
ATOM     17  C   UNL     1       0.355  -2.750  -0.156  0.00  0.00    -0.073 C 
ATOM     25  C   UNL     1      -0.425  -4.023  -0.341  0.00  0.00    +0.039 C 
ENDROOT
BRANCH  10  14
ATOM     14  C   UNL     1       0.996  -0.202   2.118  0.00  0.00    -0.013 C 
ATOM     21  C   UNL     1       0.219   1.103   2.264  0.00  0.00    +0.007 C 
ATOM     22  C   UNL     1       2.064  -0.318   3.201  0.00  0.00    +0.007 C 
ENDBRANCH  10  14
BRANCH  11  15
ATOM     15  C   UNL     1       3.546  -1.432  -0.513  0.00  0.00    +0.092 C 
BRANCH  15   5
ATOM      5  N   UNL     1       4.400  -0.279  -0.241  0.00  0.00    -0.299 NA
ATOM      6  N   UNL     1       6.956   1.072  -0.167  0.00  0.00    -0.298 NA
ATOM     19  C   UNL     1       5.052   0.189  -1.470  0.00  0.00    +0.100 C 
ATOM     20  C   UNL     1       5.404  -0.603   0.780  0.00  0.00    +0.100 C 
ATOM     23  C   UNL     1       5.951   1.397  -1.186  0.00  0.00    +0.100 C 
ATOM     24  C   UNL     1       6.304   0.605   1.064  0.00  0.00    +0.100 C 
BRANCH   6  27
ATOM     27  C   UNL     1       7.812   2.225   0.105  0.00  0.00    +0.112 C 
BRANCH  27  28
ATOM     28  C   UNL     1       9.160   1.776   0.648  0.00  0.00    +0.174 C 
BRANCH  28   2
ATOM      2  O   UNL     1       9.780   0.930  -0.311  0.00  0.00    -0.382 OA
ATOM     31  C   UNL     1      11.058   0.492   0.129  0.00  0.00    +0.194 C 
ENDBRANCH  28   2
ENDBRANCH  27  28
ENDBRANCH   6  27
ENDBRANCH  15   5
ENDBRANCH  11  15
BRANCH  13  18
ATOM     18  C   UNL     1      -1.135  -1.430  -1.742  0.00  0.00    +0.105 C 
BRANCH  18  26
ATOM      1  O   UNL     1      -3.338  -0.637  -1.054  0.00  0.00    -0.420 OA
ATOM      7  N   UNL     1      -2.213   0.796  -2.352  0.00  0.00    -0.112 NA
ATOM      8  N   UNL     1      -3.432   1.369  -2.039  0.00  0.00    -0.107 NA
ATOM     26  C   UNL     1      -2.202  -0.373  -1.755  0.00  0.00    +0.218 A 
ATOM     29  C   UNL     1      -4.055   0.498  -1.281  0.00  0.00    +0.248 A 
BRANCH  29  30
ATOM     30  C   UNL     1      -5.349   0.556  -0.666  0.00  0.00    +0.039 A 
ATOM     32  C   UNL     1      -6.155   1.681  -0.843  0.00  0.00    +0.015 A 
ATOM     33  C   UNL     1      -5.802  -0.511   0.109  0.00  0.00    +0.015 A 
ATOM     34  C   UNL     1      -7.414   1.738  -0.245  0.00  0.00    +0.033 A 
ATOM     35  C   UNL     1      -7.061  -0.455   0.707  0.00  0.00    +0.033 A 
ATOM     36  C   UNL     1      -7.867   0.670   0.530  0.00  0.00    +0.126 A 
BRANCH  36   9
ATOM      3  O   UNL     1      -9.859   1.747   0.963  0.00  0.00    -0.126 OA
ATOM      4  O   UNL     1      -9.537  -0.244   1.830  0.00  0.00    -0.126 OA
ATOM      9  N   UNL     1      -9.149   0.727   1.137  0.00  0.00    +0.056 N 
ENDBRANCH  36   9
ENDBRANCH  29  30
ENDBRANCH  18  26
ENDBRANCH  13  18
TORSDOF 10
