REMARK  Name = 75368547
REMARK  5 active torsions:
REMARK  status: ('A' for Active; 'I' for Inactive)
REMARK    1  A    between atoms: N_3  and  C_10
REMARK    2  A    between atoms: C_10  and  C_12
REMARK    3  A    between atoms: C_12  and  C_13
REMARK    4  A    between atoms: C_13  and  C_14
REMARK    5  A    between atoms: C_13  and  C_15
REMARK                            x       y       z     vdW  Elec       q    Type
REMARK                         _______ _______ _______ _____ _____    ______ ____
ROOT
ATOM      1  O   UNL     1      -4.124   1.586  -0.322  0.00  0.00    -0.253 OA
ATOM      2  N   UNL     1      -2.148   0.437   0.235  0.00  0.00    -0.279 N 
ATOM      3  N   UNL     1       0.578  -0.254   0.249  0.00  0.00    -0.299 NA
ATOM      4  N   UNL     1      -3.995  -0.755  -0.228  0.00  0.00    -0.297 N 
ATOM      5  C   UNL     1      -1.773  -0.936   0.502  0.00  0.00    +0.109 C 
ATOM      6  C   UNL     1      -0.430  -1.257  -0.152  0.00  0.00    +0.108 C 
ATOM      7  C   UNL     1      -1.181   1.492   0.454  0.00  0.00    +0.125 C 
ATOM      8  C   UNL     1       0.165   1.103  -0.164  0.00  0.00    +0.103 C 
ATOM      9  C   UNL     1      -2.956  -1.741  -0.030  0.00  0.00    +0.129 C 
ATOM     11  C   UNL     1      -3.494   0.556  -0.124  0.00  0.00    +0.303 C 
ATOM     16  H   UNL     1      -4.949  -0.975  -0.494  0.00  0.00    +0.150 HD
ENDROOT
BRANCH   3  10
ATOM     10  C   UNL     1       1.882  -0.585  -0.323  0.00  0.00    +0.085 C 
BRANCH  10  12
ATOM     12  C   UNL     1       3.000   0.040   0.514  0.00  0.00    +0.018 C 
BRANCH  12  13
ATOM     13  C   UNL     1       4.410  -0.270  -0.023  0.00  0.00    -0.016 C 
ATOM     14  C   UNL     1       5.513   0.314   0.862  0.00  0.00    +0.007 C 
ATOM     15  C   UNL     1       4.553   0.269  -1.449  0.00  0.00    +0.007 C 
ENDBRANCH  12  13
ENDBRANCH  10  12
ENDBRANCH   3  10
TORSDOF 3
