REMARK  Name = 38028638
REMARK  13 active torsions:
REMARK  status: ('A' for Active; 'I' for Inactive)
REMARK    1  A    between atoms: O_3  and  C_26
REMARK    2  A    between atoms: O_3  and  C_30
REMARK    3  A    between atoms: N_4  and  C_14
REMARK    4  A    between atoms: N_5  and  C_21
REMARK    5  A    between atoms: N_6  and  C_22
REMARK    6  A    between atoms: C_7  and  C_11
REMARK    7  A    between atoms: C_8  and  C_14
REMARK    8  A    between atoms: C_10  and  C_15
REMARK    9  A    between atoms: C_11  and  C_16
REMARK   10  A    between atoms: C_11  and  C_17
REMARK   11  A    between atoms: C_12  and  C_18
REMARK   12  A    between atoms: C_15  and  C_19
REMARK   13  A    between atoms: C_21  and  C_23
REMARK                            x       y       z     vdW  Elec       q    Type
REMARK                         _______ _______ _______ _____ _____    ______ ____
ROOT
ATOM      7  C   UNL     1      -2.334  -1.443   0.709  0.00  0.00    +0.000 C 
ATOM      8  C   UNL     1      -2.298  -2.671  -0.235  0.00  0.00    +0.032 C 
ATOM      9  C   UNL     1      -3.465  -0.486   0.302  0.00  0.00    +0.012 C 
ATOM     10  C   UNL     1      -3.309   0.016  -1.146  0.00  0.00    +0.023 C 
ATOM     12  C   UNL     1      -3.002  -1.116  -2.105  0.00  0.00    -0.073 C 
ATOM     13  C   UNL     1      -2.563  -2.314  -1.679  0.00  0.00    -0.022 C 
ATOM     18  C   UNL     1      -3.253  -0.854  -3.564  0.00  0.00    +0.039 C 
ENDROOT
BRANCH   7  11
ATOM     11  C   UNL     1      -2.508  -1.858   2.174  0.00  0.00    -0.013 C 
ATOM     16  C   UNL     1      -1.958  -0.779   3.101  0.00  0.00    +0.007 C 
ATOM     17  C   UNL     1      -3.977  -2.134   2.478  0.00  0.00    +0.007 C 
ENDBRANCH   7  11
BRANCH   8  14
ATOM     14  C   UNL     1      -0.959  -3.410  -0.130  0.00  0.00    +0.113 C 
BRANCH  14   4
ATOM      2  O   UNL     1       1.331  -2.538   1.354  0.00  0.00    -0.253 OA
ATOM      4  N   UNL     1       0.111  -2.593  -0.611  0.00  0.00    -0.299 N 
ATOM      6  N   UNL     1       2.092  -1.409  -0.558  0.00  0.00    -0.269 N 
ATOM     20  C   UNL     1       1.208  -2.203   0.178  0.00  0.00    +0.304 C 
ATOM     31  H   UNL     1       0.118  -2.332  -1.593  0.00  0.00    +0.150 HD
ATOM     33  H   UNL     1       1.840  -1.222  -1.525  0.00  0.00    +0.156 HD
BRANCH   6  22
ATOM     22  C   UNL     1       3.305  -0.826  -0.121  0.00  0.00    +0.038 A 
ATOM     24  C   UNL     1       4.065  -0.057  -1.002  0.00  0.00    +0.069 A 
ATOM     25  C   UNL     1       3.741  -1.020   1.190  0.00  0.00    +0.023 A 
ATOM     26  C   UNL     1       5.261   0.517  -0.572  0.00  0.00    +0.122 A 
ATOM     27  C   UNL     1       4.937  -0.446   1.619  0.00  0.00    +0.005 A 
ATOM     28  C   UNL     1       5.697   0.323   0.738  0.00  0.00    +0.046 A 
BRANCH  26   3
ATOM      3  O   UNL     1       6.003   1.268  -1.431  0.00  0.00    -0.495 OA
ATOM     30  C   UNL     1       7.215   1.827  -0.925  0.00  0.00    +0.277 C 
ENDBRANCH  26   3
ENDBRANCH   6  22
ENDBRANCH  14   4
ENDBRANCH   8  14
BRANCH  10  15
ATOM     15  C   UNL     1      -2.246   1.117  -1.237  0.00  0.00    +0.103 C 
BRANCH  15  19
ATOM      1  O   UNL     1      -3.862   2.593  -0.206  0.00  0.00    -0.276 OA
ATOM      5  N   UNL     1      -1.753   3.405  -0.751  0.00  0.00    -0.304 N 
ATOM     19  C   UNL     1      -2.736   2.430  -0.671  0.00  0.00    +0.214 C 
ATOM     32  H   UNL     1      -0.846   3.164  -1.139  0.00  0.00    +0.150 HD
BRANCH   5  21
ATOM     21  C   UNL     1      -1.945   4.759  -0.286  0.00  0.00    +0.193 C 
BRANCH  21  23
ATOM     23  C   UNL     1      -1.558   4.894   1.118  0.00  0.00    -0.087 C 
ATOM     29  C   UNL     1      -1.242   5.008   2.271  0.00  0.00    +0.005 C 
ENDBRANCH  21  23
ENDBRANCH   5  21
ENDBRANCH  15  19
ENDBRANCH  10  15
TORSDOF 9
