REMARK  Name = 38027160
REMARK  12 active torsions:
REMARK  status: ('A' for Active; 'I' for Inactive)
REMARK    1  A    between atoms: N_3  and  C_13
REMARK    2  A    between atoms: N_4  and  C_20
REMARK    3  A    between atoms: N_4  and  C_21
REMARK    4  A    between atoms: C_6  and  C_10
REMARK    5  A    between atoms: C_7  and  C_13
REMARK    6  A    between atoms: C_9  and  C_14
REMARK    7  A    between atoms: C_10  and  C_15
REMARK    8  A    between atoms: C_10  and  C_16
REMARK    9  A    between atoms: C_11  and  C_17
REMARK   10  A    between atoms: C_14  and  C_18
REMARK   11  A    between atoms: C_19  and  C_22
REMARK   12  A    between atoms: C_20  and  C_23
REMARK                            x       y       z     vdW  Elec       q    Type
REMARK                         _______ _______ _______ _____ _____    ______ ____
ROOT
ATOM      6  C   UNL     1       1.292   2.044  -0.933  0.00  0.00    +0.000 C 
ATOM      7  C   UNL     1       2.701   2.391  -0.392  0.00  0.00    +0.032 C 
ATOM      8  C   UNL     1       0.211   2.783  -0.129  0.00  0.00    +0.012 C 
ATOM      9  C   UNL     1       0.259   2.430   1.370  0.00  0.00    +0.023 C 
ATOM     11  C   UNL     1       1.670   2.490   1.918  0.00  0.00    -0.073 C 
ATOM     12  C   UNL     1       2.749   2.485   1.115  0.00  0.00    -0.022 C 
ATOM     17  C   UNL     1       1.812   2.601   3.411  0.00  0.00    +0.039 C 
ENDROOT
BRANCH   6  10
ATOM     10  C   UNL     1       1.154   2.385  -2.421  0.00  0.00    -0.013 C 
ATOM     15  C   UNL     1       0.064   1.533  -3.063  0.00  0.00    +0.007 C 
ATOM     16  C   UNL     1       0.857   3.870  -2.601  0.00  0.00    +0.007 C 
ENDBRANCH   6  10
BRANCH   7  13
ATOM     13  C   UNL     1       3.744   1.376  -0.874  0.00  0.00    +0.112 C 
BRANCH  13   3
ATOM      2  O   UNL     1       3.200  -1.036  -2.332  0.00  0.00    -0.270 OA
ATOM      3  N   UNL     1       3.488   0.084  -0.320  0.00  0.00    -0.311 N 
ATOM     19  C   UNL     1       3.231  -1.040  -1.104  0.00  0.00    +0.244 C 
ATOM     33  H   UNL     1       3.586  -0.018   0.685  0.00  0.00    +0.149 HD
BRANCH  19  22
ATOM      5  N   UNL     1       2.445  -4.687   0.997  0.00  0.00    -0.263 NA
ATOM     22  C   UNL     1       2.958  -2.306  -0.375  0.00  0.00    +0.040 A 
ATOM     24  C   UNL     1       3.241  -3.530  -0.971  0.00  0.00    +0.033 A 
ATOM     25  C   UNL     1       2.419  -2.271   0.906  0.00  0.00    +0.033 A 
ATOM     28  C   UNL     1       2.968  -4.681  -0.249  0.00  0.00    +0.111 A 
ATOM     29  C   UNL     1       2.183  -3.478   1.544  0.00  0.00    +0.111 A 
ENDBRANCH  19  22
ENDBRANCH  13   3
ENDBRANCH   7  13
BRANCH   9  14
ATOM     14  C   UNL     1      -0.376   1.060   1.636  0.00  0.00    +0.103 C 
BRANCH  14  18
ATOM      1  O   UNL     1      -2.480   2.150   1.274  0.00  0.00    -0.276 OA
ATOM      4  N   UNL     1      -2.545  -0.115   1.771  0.00  0.00    -0.300 N 
ATOM     18  C   UNL     1      -1.890   1.099   1.540  0.00  0.00    +0.216 C 
ATOM     21  C   UNL     1      -1.826  -1.344   2.084  0.00  0.00    +0.132 C 
BRANCH   4  20
ATOM     20  C   UNL     1      -3.999  -0.243   1.716  0.00  0.00    +0.142 C 
BRANCH  20  23
ATOM     23  C   UNL     1      -4.477  -0.640   0.350  0.00  0.00    -0.030 A 
ATOM     26  C   UNL     1      -4.791   0.341  -0.592  0.00  0.00    +0.005 A 
ATOM     27  C   UNL     1      -4.608  -1.989   0.021  0.00  0.00    +0.005 A 
ATOM     30  C   UNL     1      -5.235  -0.028  -1.862  0.00  0.00    +0.000 A 
ATOM     31  C   UNL     1      -5.052  -2.358  -1.249  0.00  0.00    +0.000 A 
ATOM     32  C   UNL     1      -5.366  -1.377  -2.190  0.00  0.00    +0.000 A 
ENDBRANCH  20  23
ENDBRANCH   4  20
ENDBRANCH  14  18
ENDBRANCH   9  14
TORSDOF 8
