REMARK  Name = 45361246
REMARK  12 active torsions:
REMARK  status: ('A' for Active; 'I' for Inactive)
REMARK    1  A    between atoms: O_1  and  C_16
REMARK    2  A    between atoms: O_4  and  C_35
REMARK    3  A    between atoms: O_4  and  C_40
REMARK    4  A    between atoms: N_5  and  C_12
REMARK    5  A    between atoms: N_7  and  C_33
REMARK    6  A    between atoms: C_9  and  C_17
REMARK    7  A    between atoms: C_11  and  C_19
REMARK    8  A    between atoms: C_11  and  C_20
REMARK    9  A    between atoms: C_16  and  C_22
REMARK   10  A    between atoms: C_17  and  C_21
REMARK   11  A    between atoms: C_21  and  C_24
REMARK   12  A    between atoms: C_23  and  C_25
REMARK                            x       y       z     vdW  Elec       q    Type
REMARK                         _______ _______ _______ _____ _____    ______ ____
ROOT
ATOM      9  C   UNL     1       2.305  -1.171   0.081  0.00  0.00    -0.007 C 
ATOM     10  C   UNL     1       2.111  -2.654   0.542  0.00  0.00    +0.005 C 
ATOM     11  C   UNL     1       2.974  -2.794   1.855  0.00  0.00    -0.030 C 
ATOM     12  C   UNL     1       3.800  -0.965   0.413  0.00  0.00    +0.080 C 
ATOM     13  C   UNL     1       3.972  -1.607   1.797  0.00  0.00    +0.029 C 
ATOM     14  C   UNL     1       1.954  -0.923  -1.405  0.00  0.00    +0.012 C 
ATOM     15  C   UNL     1       2.518  -3.682  -0.544  0.00  0.00    +0.039 C 
ATOM     16  C   UNL     1       1.946  -3.387  -1.931  0.00  0.00    +0.064 C 
ATOM     18  C   UNL     1       2.412  -2.001  -2.377  0.00  0.00    +0.035 C 
ATOM     19  C   UNL     1       3.754  -4.116   1.999  0.00  0.00    +0.011 C 
ATOM     20  C   UNL     1       2.074  -2.699   3.106  0.00  0.00    +0.011 C 
ATOM     22  C   UNL     1       2.392  -4.454  -2.933  0.00  0.00    +0.041 C 
ENDROOT
BRANCH  12   5
ATOM      2  O   UNL     1       4.939   0.447  -1.813  0.00  0.00    -0.270 OA
ATOM      5  N   UNL     1       4.237   0.406   0.397  0.00  0.00    -0.308 N 
ATOM     23  C   UNL     1       4.778   1.007  -0.732  0.00  0.00    +0.246 C 
ATOM     41  H   UNL     1       4.149   0.928   1.262  0.00  0.00    +0.149 HD
BRANCH  23  25
ATOM      8  N   UNL     1       4.950   4.544   0.552  0.00  0.00    -0.263 NA
ATOM     25  C   UNL     1       5.206   2.422  -0.577  0.00  0.00    +0.055 A 
ATOM     28  C   UNL     1       6.216   2.956  -1.369  0.00  0.00    +0.016 A 
ATOM     29  C   UNL     1       4.610   3.250   0.360  0.00  0.00    +0.123 A 
ATOM     32  C   UNL     1       6.594   4.284  -1.201  0.00  0.00    +0.020 A 
ATOM     34  C   UNL     1       5.936   5.029  -0.236  0.00  0.00    +0.111 A 
ENDBRANCH  23  25
ENDBRANCH  12   5
BRANCH  16   1
ATOM      1  O   UNL     1       0.521  -3.424  -1.855  0.00  0.00    -0.389 OA
ATOM     42  H   UNL     1       0.259  -4.308  -1.545  0.00  0.00    +0.210 HD
ENDBRANCH  16   1
BRANCH   9  17
ATOM     17  C   UNL     1       1.413  -0.193   0.891  0.00  0.00    +0.018 C 
BRANCH  17  21
ATOM     21  C   UNL     1      -0.058  -0.492   0.703  0.00  0.00    +0.096 C 
BRANCH  21  24
ATOM      3  O   UNL     1      -0.376   1.324   2.192  0.00  0.00    -0.276 OA
ATOM      6  N   UNL     1      -2.294   0.274   1.412  0.00  0.00    -0.298 N 
ATOM      7  N   UNL     1      -4.868   0.789   0.376  0.00  0.00    -0.324 N 
ATOM     24  C   UNL     1      -0.916   0.453   1.505  0.00  0.00    +0.216 C 
ATOM     26  C   UNL     1      -3.203   1.145   2.153  0.00  0.00    +0.126 C 
ATOM     27  C   UNL     1      -2.972  -0.761   0.629  0.00  0.00    +0.126 C 
ATOM     30  C   UNL     1      -4.208   1.804   1.211  0.00  0.00    +0.124 C 
ATOM     31  C   UNL     1      -3.978  -0.137  -0.338  0.00  0.00    +0.124 C 
BRANCH   7  33
ATOM     33  C   UNL     1      -6.115   1.109  -0.173  0.00  0.00    +0.072 A 
ATOM     35  C   UNL     1      -7.061   0.114  -0.417  0.00  0.00    +0.141 A 
ATOM     36  C   UNL     1      -6.409   2.439  -0.476  0.00  0.00    +0.027 A 
ATOM     37  C   UNL     1      -8.300   0.447  -0.965  0.00  0.00    +0.047 A 
ATOM     38  C   UNL     1      -7.647   2.773  -1.023  0.00  0.00    +0.002 A 
ATOM     39  C   UNL     1      -8.593   1.777  -1.268  0.00  0.00    +0.004 A 
BRANCH  35   4
ATOM      4  O   UNL     1      -6.794  -1.192  -0.129  0.00  0.00    -0.493 OA
ATOM     40  C   UNL     1      -7.820  -2.140  -0.412  0.00  0.00    +0.277 C 
ENDBRANCH  35   4
ENDBRANCH   7  33
ENDBRANCH  21  24
ENDBRANCH  17  21
ENDBRANCH   9  17
TORSDOF 8
