REMARK  Name = 75536802
REMARK  8 active torsions:
REMARK  status: ('A' for Active; 'I' for Inactive)
REMARK    1  A    between atoms: O_2  and  C_9
REMARK    2  A    between atoms: N_4  and  C_8
REMARK    3  A    between atoms: N_4  and  C_13
REMARK    4  A    between atoms: N_5  and  C_12
REMARK    5  A    between atoms: C_10  and  C_12
REMARK    6  A    between atoms: C_13  and  C_14
REMARK    7  A    between atoms: C_15  and  C_18
REMARK    8  A    between atoms: C_19  and  C_24
REMARK                            x       y       z     vdW  Elec       q    Type
REMARK                         _______ _______ _______ _____ _____    ______ ____
ROOT
ATOM      1  O   UNL     1       0.977   0.683   0.370  0.00  0.00    -0.371 OA
ATOM      8  C   UNL     1      -0.995  -0.638   0.282  0.00  0.00    +0.111 C 
ATOM      9  C   UNL     1      -0.084  -1.030  -0.867  0.00  0.00    +0.164 C 
ATOM     10  C   UNL     1       1.259  -0.520  -0.364  0.00  0.00    +0.165 C 
ATOM     11  C   UNL     1      -0.432   0.722   0.661  0.00  0.00    +0.181 C 
ENDROOT
BRANCH   9   2
ATOM      2  O   UNL     1      -0.066  -2.426  -1.096  0.00  0.00    -0.388 OA
ATOM     28  H   UNL     1       0.194  -2.868  -0.271  0.00  0.00    +0.210 HD
ENDBRANCH   9   2
BRANCH   8   4
ATOM      4  N   UNL     1      -2.402  -0.586  -0.081  0.00  0.00    -0.305 NA
ATOM     27  H   UNL     1      -2.637  -1.418  -0.623  0.00  0.00    +0.123 HD
BRANCH   4  13
ATOM     13  C   UNL     1      -3.249  -0.540   1.105  0.00  0.00    +0.116 C 
BRANCH  13  14
ATOM     14  C   UNL     1      -4.710  -0.470   0.749  0.00  0.00    -0.032 A 
ATOM     16  C   UNL     1      -5.263   0.730   0.301  0.00  0.00    +0.023 A 
ATOM     17  C   UNL     1      -5.511  -1.606   0.865  0.00  0.00    +0.005 A 
ATOM     19  C   UNL     1      -6.616   0.794  -0.030  0.00  0.00    +0.052 A 
ATOM     20  C   UNL     1      -6.864  -1.542   0.533  0.00  0.00    +0.002 A 
ATOM     21  C   UNL     1      -7.417  -0.342   0.086  0.00  0.00    +0.019 A 
BRANCH  19  24
ATOM      7  N   UNL     1      -7.644   3.021  -0.862  0.00  0.00    -0.191 NA
ATOM     24  C   UNL     1      -7.183   2.023  -0.489  0.00  0.00    +0.099 C 
ENDBRANCH  19  24
ENDBRANCH  13  14
ENDBRANCH   4  13
ENDBRANCH   8   4
BRANCH  10  12
ATOM     12  C   UNL     1       2.244  -0.221  -1.480  0.00  0.00    +0.138 C 
BRANCH  12   5
ATOM      3  O   UNL     1       4.521  -1.807  -0.744  0.00  0.00    -0.270 OA
ATOM      5  N   UNL     1       3.491   0.261  -0.960  0.00  0.00    -0.309 N 
ATOM     15  C   UNL     1       4.546  -0.585  -0.628  0.00  0.00    +0.244 C 
ATOM     29  H   UNL     1       3.554   1.256  -0.776  0.00  0.00    +0.149 HD
BRANCH  15  18
ATOM      6  N   UNL     1       8.046   1.297   0.964  0.00  0.00    -0.263 NA
ATOM     18  C   UNL     1       5.761   0.068  -0.077  0.00  0.00    +0.040 A 
ATOM     22  C   UNL     1       6.604  -0.635   0.777  0.00  0.00    +0.033 A 
ATOM     23  C   UNL     1       6.060   1.384  -0.412  0.00  0.00    +0.033 A 
ATOM     25  C   UNL     1       7.723   0.019   1.267  0.00  0.00    +0.111 A 
ATOM     26  C   UNL     1       7.204   1.948   0.130  0.00  0.00    +0.111 A 
ENDBRANCH  15  18
ENDBRANCH  12   5
ENDBRANCH  10  12
TORSDOF 8
