REMARK  Name = 26761949
REMARK  4 active torsions:
REMARK  status: ('A' for Active; 'I' for Inactive)
REMARK    1  A    between atoms: N_5  and  C_15
REMARK    2  A    between atoms: C_10  and  C_16
REMARK    3  A    between atoms: C_15  and  C_17
REMARK    4  A    between atoms: C_21  and  C_24
REMARK                            x       y       z     vdW  Elec       q    Type
REMARK                         _______ _______ _______ _____ _____    ______ ____
ROOT
ATOM      5  N   UNL     1       1.863   0.349   0.550  0.00  0.00    -0.281 NA
ATOM      6  N   UNL     1       1.180   3.420  -1.444  0.00  0.00    -0.347 N 
ATOM      7  N   UNL     1       0.627   4.317   0.528  0.00  0.00    -0.240 NA
ATOM     10  C   UNL     1       0.912   0.665   1.660  0.00  0.00    +0.152 C 
ATOM     11  C   UNL     1       0.829   2.210   1.931  0.00  0.00    +0.086 C 
ATOM     12  C   UNL     1       1.553   0.984  -0.749  0.00  0.00    +0.140 C 
ATOM     13  C   UNL     1       1.232   2.411  -0.531  0.00  0.00    +0.053 A 
ATOM     14  C   UNL     1       0.886   2.983   0.667  0.00  0.00    +0.065 A 
ATOM     18  C   UNL     1       0.811   4.550  -0.757  0.00  0.00    +0.197 A 
ATOM     31  H   UNL     1       1.369   3.354  -2.435  0.00  0.00    +0.167 HD
ENDROOT
BRANCH  10  16
ATOM      4  O   UNL     1      -0.768  -0.907   2.522  0.00  0.00    -0.336 OA
ATOM      8  N   UNL     1      -1.400   0.166   0.660  0.00  0.00    -0.190 NA
ATOM      9  N   UNL     1      -2.052  -1.377   2.219  0.00  0.00    -0.056 NA
ATOM     16  C   UNL     1      -0.460  -0.003   1.556  0.00  0.00    +0.245 A 
ATOM     21  C   UNL     1      -2.357  -0.698   1.109  0.00  0.00    +0.202 A 
BRANCH  21  24
ATOM      1 CL   UNL     1      -5.407   0.635  -2.819  0.00  0.00    -0.081 Cl
ATOM      3  F   UNL     1      -7.214  -1.331  -1.532  0.00  0.00    -0.204 F 
ATOM     24  C   UNL     1      -3.607  -0.858   0.425  0.00  0.00    +0.024 A 
ATOM     26  C   UNL     1      -3.871  -0.121  -0.729  0.00  0.00    +0.034 A 
ATOM     27  C   UNL     1      -4.560  -1.751   0.915  0.00  0.00    +0.014 A 
ATOM     28  C   UNL     1      -5.087  -0.277  -1.394  0.00  0.00    +0.077 A 
ATOM     29  C   UNL     1      -5.777  -1.907   0.251  0.00  0.00    +0.040 A 
ATOM     30  C   UNL     1      -6.040  -1.170  -0.904  0.00  0.00    +0.142 A 
ENDBRANCH  21  24
ENDBRANCH  10  16
BRANCH   5  15
ATOM     15  C   UNL     1       2.147  -1.073   0.396  0.00  0.00    +0.120 C 
BRANCH  15  17
ATOM      2  F   UNL     1       7.414  -1.979  -1.390  0.00  0.00    -0.205 F 
ATOM     17  C   UNL     1       3.554  -1.315  -0.081  0.00  0.00    -0.033 A 
ATOM     19  C   UNL     1       3.826  -1.380  -1.448  0.00  0.00    +0.008 A 
ATOM     20  C   UNL     1       4.586  -1.475   0.843  0.00  0.00    +0.008 A 
ATOM     22  C   UNL     1       5.129  -1.604  -1.890  0.00  0.00    +0.038 A 
ATOM     23  C   UNL     1       5.890  -1.700   0.401  0.00  0.00    +0.038 A 
ATOM     25  C   UNL     1       6.161  -1.765  -0.965  0.00  0.00    +0.123 A 
ENDBRANCH  15  17
ENDBRANCH   5  15
TORSDOF 4
