REMARK  Name = 44716830
REMARK  10 active torsions:
REMARK  status: ('A' for Active; 'I' for Inactive)
REMARK    1  A    between atoms: S_1  and  N_9
REMARK    2  A    between atoms: S_1  and  C_23
REMARK    3  A    between atoms: N_9  and  C_14
REMARK    4  A    between atoms: N_10  and  C_21
REMARK    5  A    between atoms: N_12  and  C_34
REMARK    6  A    between atoms: C_16  and  C_19
REMARK    7  A    between atoms: C_20  and  C_22
REMARK    8  A    between atoms: C_21  and  C_24
REMARK    9  A    between atoms: C_21  and  C_25
REMARK   10  A    between atoms: C_24  and  C_28
REMARK                            x       y       z     vdW  Elec       q    Type
REMARK                         _______ _______ _______ _____ _____    ______ ____
ROOT
ATOM      3  O   UNL     1      -3.759   3.403   0.610  0.00  0.00    -0.267 OA
ATOM      8  N   UNL     1      -1.693   2.375   0.194  0.00  0.00    -0.283 N 
ATOM     14  C   UNL     1       1.204   2.589   0.001  0.00  0.00    +0.080 C 
ATOM     15  C   UNL     1       0.431   1.628  -0.904  0.00  0.00    +0.052 C 
ATOM     16  C   UNL     1      -0.930   1.228  -0.331  0.00  0.00    +0.164 C 
ATOM     17  C   UNL     1       0.336   3.785   0.381  0.00  0.00    +0.039 C 
ATOM     18  C   UNL     1      -0.959   3.324   1.038  0.00  0.00    +0.110 C 
ATOM     20  C   UNL     1      -3.081   2.530   0.069  0.00  0.00    +0.283 C 
ENDROOT
BRANCH  20  22
ATOM      6  O   UNL     1      -3.468   1.513  -2.094  0.00  0.00    -0.458 OA
ATOM     22  C   UNL     1      -3.811   1.583  -0.781  0.00  0.00    +0.189 A 
ATOM     27  C   UNL     1      -4.829   0.702  -0.499  0.00  0.00    +0.054 A 
ATOM     30  C   UNL     1      -5.130   0.048  -1.717  0.00  0.00    +0.042 A 
ATOM     31  C   UNL     1      -4.275   0.576  -2.657  0.00  0.00    +0.196 A 
ENDBRANCH  20  22
BRANCH  16  19
ATOM      2  O   UNL     1      -0.212   0.512   1.832  0.00  0.00    -0.274 OA
ATOM     10  N   UNL     1      -1.396  -0.975   0.489  0.00  0.00    -0.302 N 
ATOM     19  C   UNL     1      -0.802   0.239   0.791  0.00  0.00    +0.234 C 
ATOM     39  H   UNL     1      -1.941  -1.064  -0.364  0.00  0.00    +0.150 HD
BRANCH  10  21
ATOM     21  C   UNL     1      -1.392  -2.103   1.392  0.00  0.00    +0.163 C 
BRANCH  21  25
ATOM      7  O   UNL     1      -3.667  -1.464   1.958  0.00  0.00    -0.274 OA
ATOM     13  N   UNL     1      -2.365  -2.443   3.578  0.00  0.00    -0.328 N 
ATOM     25  C   UNL     1      -2.593  -1.944   2.313  0.00  0.00    +0.231 C 
ATOM     40  H   UNL     1      -3.090  -2.412   4.288  0.00  0.00    +0.145 HD
ATOM     41  H   UNL     1      -1.480  -2.857   3.850  0.00  0.00    +0.145 HD
ENDBRANCH  21  25
BRANCH  21  24
ATOM     24  C   UNL     1      -1.464  -3.442   0.648  0.00  0.00    +0.067 C 
BRANCH  24  28
ATOM     28  C   UNL     1      -0.310  -3.643  -0.304  0.00  0.00    -0.045 A 
ATOM     32  C   UNL     1      -0.414  -3.212  -1.626  0.00  0.00    +0.004 A 
ATOM     33  C   UNL     1       0.859  -4.261   0.138  0.00  0.00    +0.004 A 
ATOM     35  C   UNL     1       0.652  -3.398  -2.507  0.00  0.00    +0.000 A 
ATOM     36  C   UNL     1       1.925  -4.447  -0.742  0.00  0.00    +0.000 A 
ATOM     37  C   UNL     1       1.821  -4.016  -2.065  0.00  0.00    +0.000 A 
ENDBRANCH  24  28
ENDBRANCH  21  24
ENDBRANCH  10  21
ENDBRANCH  16  19
BRANCH  14   9
ATOM      9  N   UNL     1       2.414   3.069  -0.709  0.00  0.00    -0.185 NA
ATOM     38  H   UNL     1       2.321   3.183  -1.726  0.00  0.00    +0.148 HD
BRANCH   9   1
ATOM      1  S   UNL     1       3.952   2.762  -0.059  0.00  0.00    +0.077 S 
ATOM      4  O   UNL     1       4.005   3.245   1.308  0.00  0.00    -0.152 OA
ATOM      5  O   UNL     1       4.957   3.178  -1.019  0.00  0.00    -0.152 OA
BRANCH   1  23
ATOM     11  N   UNL     1       4.050   0.235  -1.155  0.00  0.00    -0.216 NA
ATOM     12  N   UNL     1       3.990  -1.079   0.635  0.00  0.00    -0.338 N 
ATOM     23  C   UNL     1       3.983   0.995  -0.013  0.00  0.00    +0.211 A 
ATOM     26  C   UNL     1       3.944   0.201   1.109  0.00  0.00    +0.135 A 
ATOM     29  C   UNL     1       4.053  -1.009  -0.729  0.00  0.00    +0.201 A 
ATOM     34  C   UNL     1       3.974  -2.285   1.427  0.00  0.00    +0.150 C 
ENDBRANCH   1  23
ENDBRANCH   9   1
ENDBRANCH  14   9
TORSDOF 9
