REMARK  Name = 45783692
REMARK  6 active torsions:
REMARK  status: ('A' for Active; 'I' for Inactive)
REMARK    1  A    between atoms: O_3  and  C_25
REMARK    2  A    between atoms: O_3  and  C_26
REMARK    3  A    between atoms: N_4  and  C_12
REMARK    4  A    between atoms: C_8  and  C_13
REMARK    5  A    between atoms: C_12  and  C_14
REMARK    6  A    between atoms: C_17  and  C_20
REMARK                            x       y       z     vdW  Elec       q    Type
REMARK                         _______ _______ _______ _____ _____    ______ ____
ROOT
ATOM      4  N   UNL     1      -3.258  -0.827  -0.481  0.00  0.00    -0.287 NA
ATOM      8  C   UNL     1      -2.643  -1.511   0.674  0.00  0.00    +0.146 C 
ATOM      9  C   UNL     1      -2.808  -3.012   0.374  0.00  0.00    +0.030 C 
ATOM     10  C   UNL     1      -3.579  -3.073  -0.937  0.00  0.00    +0.017 C 
ATOM     11  C   UNL     1      -4.284  -1.732  -0.999  0.00  0.00    +0.085 C 
ENDROOT
BRANCH   8  13
ATOM      2  O   UNL     1      -0.884  -0.589   2.099  0.00  0.00    -0.336 OA
ATOM      5  N   UNL     1      -0.184  -1.195   0.059  0.00  0.00    -0.190 NA
ATOM      6  N   UNL     1       0.486  -0.301   2.055  0.00  0.00    -0.056 NA
ATOM     13  C   UNL     1      -1.197  -1.112   0.884  0.00  0.00    +0.245 A 
ATOM     17  C   UNL     1       0.826  -0.686   0.821  0.00  0.00    +0.204 A 
BRANCH  17  20
ATOM      7  N   UNL     1       4.464   0.074   0.693  0.00  0.00    -0.221 NA
ATOM     20  C   UNL     1       2.166  -0.577   0.320  0.00  0.00    +0.041 A 
ATOM     22  C   UNL     1       2.484  -0.989  -0.969  0.00  0.00    +0.018 A 
ATOM     23  C   UNL     1       3.183  -0.057   1.104  0.00  0.00    +0.126 A 
ATOM     24  C   UNL     1       3.791  -0.870  -1.428  0.00  0.00    +0.068 A 
ATOM     25  C   UNL     1       4.736  -0.337  -0.566  0.00  0.00    +0.214 A 
BRANCH  25   3
ATOM      3  O   UNL     1       6.031  -0.209  -0.995  0.00  0.00    -0.480 OA
ATOM     26  C   UNL     1       6.960   0.344  -0.071  0.00  0.00    +0.279 C 
ENDBRANCH  25   3
ENDBRANCH  17  20
ENDBRANCH   8  13
BRANCH   4  12
ATOM     12  C   UNL     1      -3.801   0.484  -0.150  0.00  0.00    +0.123 C 
BRANCH  12  14
ATOM      1  F   UNL     1      -2.111   1.103  -2.338  0.00  0.00    -0.205 F 
ATOM     14  C   UNL     1      -2.725   1.536  -0.086  0.00  0.00    +0.002 A 
ATOM     15  C   UNL     1      -1.928   1.790  -1.202  0.00  0.00    +0.128 A 
ATOM     16  C   UNL     1      -2.528   2.258   1.091  0.00  0.00    +0.008 A 
ATOM     18  C   UNL     1      -0.932   2.766  -1.141  0.00  0.00    +0.038 A 
ATOM     19  C   UNL     1      -1.532   3.233   1.153  0.00  0.00    +0.000 A 
ATOM     21  C   UNL     1      -0.735   3.487   0.037  0.00  0.00    +0.003 A 
ENDBRANCH  12  14
ENDBRANCH   4  12
TORSDOF 5
