REMARK  Name = 75536994
REMARK  4 active torsions:
REMARK  status: ('A' for Active; 'I' for Inactive)
REMARK    1  A    between atoms: S_1  and  N_7
REMARK    2  A    between atoms: S_1  and  C_16
REMARK    3  A    between atoms: N_8  and  C_15
REMARK    4  A    between atoms: C_15  and  C_17
REMARK                            x       y       z     vdW  Elec       q    Type
REMARK                         _______ _______ _______ _____ _____    ______ ____
ROOT
ATOM      3  O   UNL     1       0.631  -2.644  -1.241  0.00  0.00    -0.252 OA
ATOM      6  N   UNL     1      -1.153  -1.535  -0.189  0.00  0.00    -0.278 N 
ATOM      7  N   UNL     1      -3.411   0.096   0.054  0.00  0.00    -0.178 NA
ATOM      8  N   UNL     1       0.867  -1.476   0.794  0.00  0.00    -0.279 N 
ATOM      9  C   UNL     1      -1.381  -0.854   1.071  0.00  0.00    +0.111 C 
ATOM     10  C   UNL     1      -2.180   0.426   0.847  0.00  0.00    +0.133 C 
ATOM     11  C   UNL     1       0.024  -0.637   1.628  0.00  0.00    +0.133 C 
ATOM     12  C   UNL     1      -2.267  -1.782  -1.083  0.00  0.00    +0.127 C 
ATOM     13  C   UNL     1      -3.071  -0.501  -1.281  0.00  0.00    +0.128 C 
ATOM     14  C   UNL     1       0.172  -1.973  -0.326  0.00  0.00    +0.305 C 
ENDROOT
BRANCH   7   1
ATOM      1  S   UNL     1      -4.608   1.322   0.021  0.00  0.00    +0.029 S 
ATOM      4  O   UNL     1      -4.701   1.913   1.338  0.00  0.00    -0.158 OA
ATOM      5  O   UNL     1      -5.771   0.816  -0.671  0.00  0.00    -0.158 OA
ATOM     16  C   UNL     1      -3.794   2.482  -1.046  0.00  0.00    +0.215 C 
ENDBRANCH   7   1
BRANCH   8  15
ATOM     15  C   UNL     1       2.279  -1.642   1.055  0.00  0.00    +0.144 C 
BRANCH  15  17
ATOM      2  F   UNL     1       5.315   2.636  -0.989  0.00  0.00    -0.205 F 
ATOM     17  C   UNL     1       3.089  -0.501   0.510  0.00  0.00    -0.030 A 
ATOM     18  C   UNL     1       3.589  -0.560  -0.791  0.00  0.00    +0.008 A 
ATOM     19  C   UNL     1       3.341   0.617   1.304  0.00  0.00    +0.008 A 
ATOM     20  C   UNL     1       4.341   0.500  -1.298  0.00  0.00    +0.038 A 
ATOM     21  C   UNL     1       4.093   1.677   0.798  0.00  0.00    +0.038 A 
ATOM     22  C   UNL     1       4.594   1.618  -0.503  0.00  0.00    +0.123 A 
ENDBRANCH  15  17
ENDBRANCH   8  15
TORSDOF 3
