REMARK  Name = 75536053
REMARK  7 active torsions:
REMARK  status: ('A' for Active; 'I' for Inactive)
REMARK    1  A    between atoms: O_1  and  C_8
REMARK    2  A    between atoms: O_2  and  C_10
REMARK    3  A    between atoms: O_4  and  C_22
REMARK    4  A    between atoms: O_4  and  C_23
REMARK    5  A    between atoms: N_5  and  C_6
REMARK    6  A    between atoms: C_7  and  C_12
REMARK    7  A    between atoms: C_11  and  C_15
REMARK                            x       y       z     vdW  Elec       q    Type
REMARK                         _______ _______ _______ _____ _____    ______ ____
ROOT
ATOM      6  C   UNL     1      -0.363   1.797  -0.076  0.00  0.00    +0.111 C 
ATOM      7  C   UNL     1       0.639   1.397   1.031  0.00  0.00    +0.044 C 
ATOM      8  C   UNL     1      -0.409   3.321   0.019  0.00  0.00    +0.164 C 
ATOM      9  C   UNL     1       1.522   2.648   1.273  0.00  0.00    +0.044 C 
ATOM     10  C   UNL     1       1.046   3.696   0.269  0.00  0.00    +0.145 C 
ENDROOT
BRANCH   7  12
ATOM     12  C   UNL     1       1.415   0.140   0.701  0.00  0.00    -0.042 A 
ATOM     18  C   UNL     1       1.331  -0.972   1.539  0.00  0.00    +0.007 A 
ATOM     19  C   UNL     1       2.215   0.094  -0.441  0.00  0.00    +0.007 A 
ATOM     20  C   UNL     1       2.047  -2.130   1.234  0.00  0.00    +0.046 A 
ATOM     21  C   UNL     1       2.930  -1.064  -0.746  0.00  0.00    +0.046 A 
ATOM     22  C   UNL     1       2.846  -2.176   0.092  0.00  0.00    +0.120 A 
BRANCH  22   4
ATOM      4  O   UNL     1       3.544  -3.306  -0.205  0.00  0.00    -0.495 OA
ATOM     23  C   UNL     1       4.342  -3.284  -1.388  0.00  0.00    +0.277 C 
ENDBRANCH  22   4
ENDBRANCH   7  12
BRANCH   6   5
ATOM      3  O   UNL     1      -1.360  -0.699  -1.177  0.00  0.00    -0.276 OA
ATOM      5  N   UNL     1      -1.661   1.205   0.130  0.00  0.00    -0.309 N 
ATOM     15  C   UNL     1      -2.049   0.002  -0.441  0.00  0.00    +0.216 C 
ATOM     24  H   UNL     1      -2.292   1.665   0.780  0.00  0.00    +0.149 HD
BRANCH  15  11
ATOM     11  C   UNL     1      -3.438  -0.396  -0.044  0.00  0.00    +0.075 C 
ATOM     13  C   UNL     1      -3.402  -1.258   1.223  0.00  0.00    +0.013 C 
ATOM     14  C   UNL     1      -4.083  -1.259  -1.130  0.00  0.00    +0.013 C 
ATOM     16  C   UNL     1      -4.117  -2.556   0.864  0.00  0.00    +0.001 C 
ATOM     17  C   UNL     1      -3.917  -2.688  -0.635  0.00  0.00    +0.001 C 
ENDBRANCH  15  11
ENDBRANCH   6   5
BRANCH   8   1
ATOM      1  O   UNL     1      -0.895   3.918  -1.168  0.00  0.00    -0.387 OA
ATOM     25  H   UNL     1      -0.806   4.881  -1.068  0.00  0.00    +0.210 HD
ENDBRANCH   8   1
BRANCH  10   2
ATOM      2  O   UNL     1       1.817   3.569  -0.922  0.00  0.00    -0.389 OA
ATOM     26  H   UNL     1       2.740   3.781  -0.697  0.00  0.00    +0.210 HD
ENDBRANCH  10   2
TORSDOF 6
