REMARK  Name = 45784245
REMARK  5 active torsions:
REMARK  status: ('A' for Active; 'I' for Inactive)
REMARK    1  A    between atoms: O_1  and  C_24
REMARK    2  A    between atoms: N_3  and  C_11
REMARK    3  A    between atoms: C_6  and  C_10
REMARK    4  A    between atoms: C_11  and  C_12
REMARK    5  A    between atoms: C_23  and  C_24
REMARK                            x       y       z     vdW  Elec       q    Type
REMARK                         _______ _______ _______ _____ _____    ______ ____
ROOT
ATOM      3  N   UNL     1      -0.625  -0.265  -0.240  0.00  0.00    -0.297 NA
ATOM      6  C   UNL     1       1.549  -0.813   0.448  0.00  0.00    +0.070 C 
ATOM      7  C   UNL     1       0.819  -0.079   1.585  0.00  0.00    +0.028 C 
ATOM      8  C   UNL     1       0.700  -0.537  -0.801  0.00  0.00    +0.096 C 
ATOM      9  C   UNL     1      -0.376   0.591   0.919  0.00  0.00    +0.085 C 
ENDROOT
BRANCH   6  10
ATOM      4  N   UNL     1       3.999  -1.354   0.386  0.00  0.00    -0.342 N 
ATOM      5  N   UNL     1       3.468   0.770   0.002  0.00  0.00    -0.232 NA
ATOM     10  C   UNL     1       2.999  -0.428   0.271  0.00  0.00    +0.113 A 
ATOM     13  C   UNL     1       5.191  -0.711   0.176  0.00  0.00    +0.066 A 
ATOM     14  C   UNL     1       4.833   0.613  -0.061  0.00  0.00    +0.089 A 
ATOM     17  C   UNL     1       6.513  -1.160   0.174  0.00  0.00    +0.028 A 
ATOM     18  C   UNL     1       5.840   1.559  -0.318  0.00  0.00    +0.030 A 
ATOM     21  C   UNL     1       7.502  -0.205  -0.083  0.00  0.00    +0.002 A 
ATOM     22  C   UNL     1       7.174   1.131  -0.325  0.00  0.00    +0.002 A 
ATOM     25  H   UNL     1       3.883  -2.338   0.588  0.00  0.00    +0.167 HD
ENDBRANCH   6  10
BRANCH   3  11
ATOM     11  C   UNL     1      -1.520   0.355  -1.206  0.00  0.00    +0.119 C 
BRANCH  11  12
ATOM     12  C   UNL     1      -2.963   0.234  -0.792  0.00  0.00    -0.033 A 
ATOM     15  C   UNL     1      -3.631  -0.981  -0.946  0.00  0.00    +0.006 A 
ATOM     16  C   UNL     1      -3.630   1.335  -0.257  0.00  0.00    +0.006 A 
ATOM     19  C   UNL     1      -4.968  -1.094  -0.563  0.00  0.00    +0.015 A 
ATOM     20  C   UNL     1      -4.967   1.222   0.126  0.00  0.00    +0.015 A 
ATOM     23  C   UNL     1      -5.636   0.007  -0.027  0.00  0.00    +0.059 A 
BRANCH  23  24
ATOM      2  O   UNL     1      -7.716  -1.133   0.284  0.00  0.00    -0.245 OA
ATOM     24  C   UNL     1      -7.029  -0.110   0.373  0.00  0.00    +0.337 C 
BRANCH  24   1
ATOM      1  O   UNL     1      -7.526   1.053   0.875  0.00  0.00    -0.477 OA
ATOM     26  H   UNL     1      -8.466   0.963   1.142  0.00  0.00    +0.295 HD
ENDBRANCH  24   1
ENDBRANCH  23  24
ENDBRANCH  11  12
ENDBRANCH   3  11
TORSDOF 5
