REMARK  Name = 38027741
REMARK  14 active torsions:
REMARK  status: ('A' for Active; 'I' for Inactive)
REMARK    1  A    between atoms: O_3  and  C_29
REMARK    2  A    between atoms: O_3  and  C_30
REMARK    3  A    between atoms: N_4  and  C_14
REMARK    4  A    between atoms: N_5  and  C_21
REMARK    5  A    between atoms: N_6  and  C_23
REMARK    6  A    between atoms: C_7  and  C_11
REMARK    7  A    between atoms: C_8  and  C_14
REMARK    8  A    between atoms: C_10  and  C_15
REMARK    9  A    between atoms: C_11  and  C_16
REMARK   10  A    between atoms: C_11  and  C_17
REMARK   11  A    between atoms: C_12  and  C_18
REMARK   12  A    between atoms: C_15  and  C_19
REMARK   13  A    between atoms: C_21  and  C_22
REMARK   14  A    between atoms: C_23  and  C_26
REMARK                            x       y       z     vdW  Elec       q    Type
REMARK                         _______ _______ _______ _____ _____    ______ ____
ROOT
ATOM      7  C   UNL     1      -1.583  -0.311  -1.363  0.00  0.00    +0.000 C 
ATOM      8  C   UNL     1      -3.090  -0.019  -1.572  0.00  0.00    +0.032 C 
ATOM      9  C   UNL     1      -1.353  -1.813  -1.140  0.00  0.00    +0.012 C 
ATOM     10  C   UNL     1      -2.127  -2.345   0.081  0.00  0.00    +0.023 C 
ATOM     12  C   UNL     1      -3.567  -1.873   0.085  0.00  0.00    -0.073 C 
ATOM     13  C   UNL     1      -3.981  -0.840  -0.670  0.00  0.00    -0.022 C 
ATOM     18  C   UNL     1      -4.530  -2.644   0.944  0.00  0.00    +0.039 C 
ENDROOT
BRANCH   7  11
ATOM     11  C   UNL     1      -0.741   0.172  -2.549  0.00  0.00    -0.013 C 
ATOM     16  C   UNL     1       0.696   0.436  -2.108  0.00  0.00    +0.007 C 
ATOM     17  C   UNL     1      -0.780  -0.850  -3.680  0.00  0.00    +0.007 C 
ENDBRANCH   7  11
BRANCH   8  14
ATOM     14  C   UNL     1      -3.398   1.470  -1.376  0.00  0.00    +0.113 C 
BRANCH  14   4
ATOM      2  O   UNL     1      -1.548   3.471  -0.428  0.00  0.00    -0.253 OA
ATOM      4  N   UNL     1      -3.172   1.860  -0.020  0.00  0.00    -0.299 N 
ATOM      6  N   UNL     1      -2.234   3.026   1.743  0.00  0.00    -0.300 N 
ATOM     20  C   UNL     1      -2.252   2.845   0.362  0.00  0.00    +0.300 C 
ATOM     31  H   UNL     1      -3.753   1.451   0.705  0.00  0.00    +0.150 HD
ATOM     33  H   UNL     1      -2.842   2.452   2.319  0.00  0.00    +0.150 HD
BRANCH   6  23
ATOM     23  C   UNL     1      -1.372   3.984   2.395  0.00  0.00    +0.102 C 
ATOM     26  C   UNL     1       0.038   3.451   2.542  0.00  0.00    +0.024 C 
ENDBRANCH   6  23
ENDBRANCH  14   4
ENDBRANCH   8  14
BRANCH  10  15
ATOM     15  C   UNL     1      -1.422  -1.968   1.389  0.00  0.00    +0.103 C 
BRANCH  15  19
ATOM      1  O   UNL     1       0.438  -3.405   0.814  0.00  0.00    -0.276 OA
ATOM      5  N   UNL     1       0.800  -1.550   2.167  0.00  0.00    -0.311 N 
ATOM     19  C   UNL     1       0.024  -2.411   1.404  0.00  0.00    +0.214 C 
ATOM     32  H   UNL     1       0.366  -0.749   2.616  0.00  0.00    +0.149 HD
BRANCH   5  21
ATOM     21  C   UNL     1       2.220  -1.730   2.359  0.00  0.00    +0.139 C 
BRANCH  21  22
ATOM     22  C   UNL     1       3.024  -1.025   1.305  0.00  0.00    -0.030 A 
ATOM     24  C   UNL     1       3.886  -1.751   0.482  0.00  0.00    +0.009 A 
ATOM     25  C   UNL     1       2.907   0.356   1.147  0.00  0.00    +0.009 A 
ATOM     27  C   UNL     1       4.632  -1.095  -0.497  0.00  0.00    +0.046 A 
ATOM     28  C   UNL     1       3.653   1.012   0.168  0.00  0.00    +0.046 A 
ATOM     29  C   UNL     1       4.516   0.286  -0.654  0.00  0.00    +0.120 A 
BRANCH  29   3
ATOM      3  O   UNL     1       5.243   0.925  -1.611  0.00  0.00    -0.495 OA
ATOM     30  C   UNL     1       5.075   2.338  -1.717  0.00  0.00    +0.277 C 
ENDBRANCH  29   3
ENDBRANCH  21  22
ENDBRANCH   5  21
ENDBRANCH  15  19
ENDBRANCH  10  15
TORSDOF 9
