REMARK  Name = 51136643
REMARK  11 active torsions:
REMARK  status: ('A' for Active; 'I' for Inactive)
REMARK    1  A    between atoms: S_1  and  N_9
REMARK    2  A    between atoms: S_1  and  C_21
REMARK    3  A    between atoms: O_5  and  C_20
REMARK    4  A    between atoms: O_7  and  C_28
REMARK    5  A    between atoms: O_7  and  C_32
REMARK    6  A    between atoms: O_8  and  C_29
REMARK    7  A    between atoms: O_8  and  C_33
REMARK    8  A    between atoms: C_11  and  C_16
REMARK    9  A    between atoms: C_12  and  C_17
REMARK   10  A    between atoms: C_16  and  C_18
REMARK   11  A    between atoms: C_17  and  C_20
REMARK                            x       y       z     vdW  Elec       q    Type
REMARK                         _______ _______ _______ _____ _____    ______ ____
ROOT
ATOM      9  N   UNL     1      -1.178   0.745  -0.414  0.00  0.00    -0.176 NA
ATOM     11  C   UNL     1      -1.555  -1.451   0.686  0.00  0.00    +0.014 C 
ATOM     12  C   UNL     1      -2.821  -1.644  -0.183  0.00  0.00    +0.006 C 
ATOM     13  C   UNL     1      -1.293   0.049   0.902  0.00  0.00    +0.113 C 
ATOM     14  C   UNL     1      -2.734  -0.839  -1.488  0.00  0.00    +0.021 C 
ATOM     15  C   UNL     1      -2.427   0.630  -1.219  0.00  0.00    +0.110 C 
ENDROOT
BRANCH   9   1
ATOM      1  S   UNL     1      -0.485   2.312  -0.355  0.00  0.00    +0.067 S 
ATOM      3  O   UNL     1      -0.307   2.800  -1.705  0.00  0.00    -0.152 OA
ATOM      4  O   UNL     1       0.613   2.304   0.587  0.00  0.00    -0.152 OA
BRANCH   1  21
ATOM      2  S   UNL     1      -2.604   4.307  -0.680  0.00  0.00    -0.077 S 
ATOM     21  C   UNL     1      -1.819   3.210   0.374  0.00  0.00    +0.143 A 
ATOM     26  C   UNL     1      -2.373   3.218   1.635  0.00  0.00    +0.036 A 
ATOM     30  C   UNL     1      -3.458   4.136   1.737  0.00  0.00    +0.010 A 
ATOM     31  C   UNL     1      -3.691   4.795   0.550  0.00  0.00    +0.047 A 
ENDBRANCH   1  21
ENDBRANCH   9   1
BRANCH  11  16
ATOM     16  C   UNL     1      -0.303  -2.141   0.130  0.00  0.00    +0.060 C 
BRANCH  16  18
ATOM     10  N   UNL     1       0.756  -2.325   2.278  0.00  0.00    -0.287 NA
ATOM     18  C   UNL     1       0.865  -1.911   1.059  0.00  0.00    +0.044 C 
ATOM     19  C   UNL     1       2.070  -1.219   0.534  0.00  0.00    +0.003 A 
ATOM     22  C   UNL     1       2.952  -0.682   1.481  0.00  0.00    -0.033 A 
ATOM     23  C   UNL     1       2.620  -0.825   2.937  0.00  0.00    +0.059 C 
ATOM     24  C   UNL     1       1.913  -2.155   3.163  0.00  0.00    +0.146 C 
ATOM     25  C   UNL     1       2.329  -1.083  -0.831  0.00  0.00    +0.059 A 
ATOM     27  C   UNL     1       4.084   0.016   1.052  0.00  0.00    +0.053 A 
ATOM     28  C   UNL     1       3.470  -0.398  -1.249  0.00  0.00    +0.162 A 
ATOM     29  C   UNL     1       4.344   0.153  -0.311  0.00  0.00    +0.162 A 
BRANCH  28   7
ATOM      7  O   UNL     1       3.720  -0.269  -2.583  0.00  0.00    -0.491 OA
ATOM     32  C   UNL     1       3.177   0.876  -3.236  0.00  0.00    +0.277 C 
ENDBRANCH  28   7
BRANCH  29   8
ATOM      8  O   UNL     1       5.455   0.829  -0.715  0.00  0.00    -0.491 OA
ATOM     33  C   UNL     1       6.649   0.068  -0.891  0.00  0.00    +0.277 C 
ENDBRANCH  29   8
ENDBRANCH  16  18
ENDBRANCH  11  16
BRANCH  12  17
ATOM     17  C   UNL     1      -3.132  -3.112  -0.474  0.00  0.00    +0.124 C 
BRANCH  17  20
ATOM      6  O   UNL     1      -5.442  -2.449  -0.883  0.00  0.00    -0.251 OA
ATOM     20  C   UNL     1      -4.581  -3.314  -0.822  0.00  0.00    +0.305 C 
BRANCH  20   5
ATOM      5  O   UNL     1      -4.814  -4.629  -1.067  0.00  0.00    -0.481 OA
ATOM     34  H   UNL     1      -5.752  -4.798  -1.298  0.00  0.00    +0.295 HD
ENDBRANCH  20   5
ENDBRANCH  17  20
ENDBRANCH  12  17
TORSDOF 9
