REMARK  Name = 11884215
REMARK  6 active torsions:
REMARK  status: ('A' for Active; 'I' for Inactive)
REMARK    1  A    between atoms: O_5  and  C_27
REMARK    2  A    between atoms: O_5  and  C_35
REMARK    3  A    between atoms: O_6  and  C_34
REMARK    4  A    between atoms: O_6  and  C_36
REMARK    5  A    between atoms: C_18  and  C_21
REMARK    6  A    between atoms: C_22  and  C_24
REMARK                            x       y       z     vdW  Elec       q    Type
REMARK                         _______ _______ _______ _____ _____    ______ ____
ROOT
ATOM      2  O   UNL     1       2.507   2.285   0.495  0.00  0.00    -0.273 OA
ATOM      3  O   UNL     1      -0.558  -2.005   0.873  0.00  0.00    -0.270 OA
ATOM      4  O   UNL     1       5.321   1.127  -2.178  0.00  0.00    -0.270 OA
ATOM      7  N   UNL     1       1.038  -0.613  -0.056  0.00  0.00    -0.283 N 
ATOM      8  N   UNL     1       3.760  -0.054  -0.901  0.00  0.00    -0.294 N 
ATOM      9  N   UNL     1       0.266   2.096   0.847  0.00  0.00    -0.283 N 
ATOM     10  C   UNL     1       1.346   0.605  -0.793  0.00  0.00    +0.180 C 
ATOM     11  C   UNL     1       2.615   0.477  -1.644  0.00  0.00    +0.140 C 
ATOM     12  C   UNL     1       2.086  -1.633   0.023  0.00  0.00    +0.128 C 
ATOM     13  C   UNL     1       3.467  -1.012   0.171  0.00  0.00    +0.127 C 
ATOM     14  C   UNL     1       1.446   1.707   0.251  0.00  0.00    +0.239 C 
ATOM     15  C   UNL     1      -0.236  -0.905   0.420  0.00  0.00    +0.249 C 
ATOM     16  C   UNL     1      -1.269   0.165   0.416  0.00  0.00    +0.059 A 
ATOM     17  C   UNL     1      -1.012   1.513   0.716  0.00  0.00    +0.046 A 
ATOM     18  C   UNL     1       5.051   0.327  -1.284  0.00  0.00    +0.247 C 
ATOM     19  C   UNL     1      -2.600  -0.268   0.276  0.00  0.00    +0.023 A 
ATOM     20  C   UNL     1      -2.098   2.379   0.937  0.00  0.00    +0.024 A 
ATOM     22  C   UNL     1      -3.664   0.616   0.451  0.00  0.00    -0.014 A 
ATOM     23  C   UNL     1      -3.413   1.938   0.795  0.00  0.00    +0.010 A 
ATOM     37  H   UNL     1       0.306   2.969   1.368  0.00  0.00    +0.155 HD
ENDROOT
BRANCH  18  21
ATOM      1  F   UNL     1       8.259   0.401   2.346  0.00  0.00    -0.205 F 
ATOM     21  C   UNL     1       6.189  -0.266  -0.564  0.00  0.00    +0.040 A 
ATOM     25  C   UNL     1       6.693   0.362   0.571  0.00  0.00    +0.051 A 
ATOM     26  C   UNL     1       6.756  -1.452  -1.024  0.00  0.00    +0.013 A 
ATOM     29  C   UNL     1       7.772  -0.200   1.253  0.00  0.00    +0.124 A 
ATOM     30  C   UNL     1       7.835  -2.014  -0.342  0.00  0.00    +0.004 A 
ATOM     31  C   UNL     1       8.343  -1.388   0.797  0.00  0.00    +0.038 A 
ENDBRANCH  18  21
BRANCH  22  24
ATOM     24  C   UNL     1      -5.026   0.152   0.298  0.00  0.00    +0.024 A 
ATOM     27  C   UNL     1      -5.672   0.219  -0.938  0.00  0.00    +0.131 A 
ATOM     28  C   UNL     1      -5.697  -0.368   1.405  0.00  0.00    +0.016 A 
ATOM     32  C   UNL     1      -6.986  -0.233  -1.065  0.00  0.00    +0.091 A 
ATOM     33  C   UNL     1      -7.011  -0.820   1.278  0.00  0.00    +0.046 A 
ATOM     34  C   UNL     1      -7.655  -0.752   0.043  0.00  0.00    +0.124 A 
BRANCH  27   5
ATOM      5  O   UNL     1      -5.042   0.722  -2.038  0.00  0.00    -0.494 OA
ATOM     35  C   UNL     1      -4.315  -0.202  -2.845  0.00  0.00    +0.277 C 
ENDBRANCH  27   5
BRANCH  34   6
ATOM      6  O   UNL     1      -8.936  -1.193  -0.081  0.00  0.00    -0.495 OA
ATOM     36  C   UNL     1      -9.561  -1.712   1.092  0.00  0.00    +0.277 C 
ENDBRANCH  34   6
ENDBRANCH  22  24
TORSDOF 4
