REMARK  Name = 75367673
REMARK  3 active torsions:
REMARK  status: ('A' for Active; 'I' for Inactive)
REMARK    1  A    between atoms: O_2  and  C_7
REMARK    2  A    between atoms: O_2  and  C_13
REMARK    3  A    between atoms: C_12  and  C_14
REMARK                            x       y       z     vdW  Elec       q    Type
REMARK                         _______ _______ _______ _____ _____    ______ ____
ROOT
ATOM      1  O   UNL     1      -0.778  -3.194  -0.684  0.00  0.00    -0.375 OA
ATOM      3  O   UNL     1       3.470  -1.715   1.068  0.00  0.00    -0.268 OA
ATOM      4  N   UNL     1       1.226  -1.187   0.651  0.00  0.00    -0.290 N 
ATOM      7  C   UNL     1      -1.091  -0.797  -0.349  0.00  0.00    +0.216 C 
ATOM      8  C   UNL     1       0.237  -0.223   0.152  0.00  0.00    +0.155 C 
ATOM      9  C   UNL     1       0.754  -2.500   1.095  0.00  0.00    +0.136 C 
ATOM     10  C   UNL     1      -0.913  -1.940  -1.347  0.00  0.00    +0.206 C 
ATOM     11  C   UNL     1       0.497  -3.420  -0.092  0.00  0.00    +0.179 C 
ATOM     12  C   UNL     1       2.605  -0.927   0.689  0.00  0.00    +0.267 C 
ENDROOT
BRANCH  12  14
ATOM      5  N   UNL     1       2.608   1.462   0.915  0.00  0.00    -0.247 NA
ATOM      6  N   UNL     1       4.396   1.726  -1.229  0.00  0.00    -0.259 NA
ATOM     14  C   UNL     1       3.079   0.393   0.243  0.00  0.00    +0.144 A 
ATOM     17  C   UNL     1       3.957   0.523  -0.810  0.00  0.00    +0.143 A 
ATOM     21  C   UNL     1       3.047   2.666   0.496  0.00  0.00    +0.131 A 
ATOM     22  C   UNL     1       3.926   2.795  -0.557  0.00  0.00    +0.130 A 
ENDBRANCH  12  14
BRANCH   7   2
ATOM      2  O   UNL     1      -1.787   0.274  -0.988  0.00  0.00    -0.485 OA
BRANCH   2  13
ATOM     13  C   UNL     1      -2.985   0.638  -0.437  0.00  0.00    +0.121 A 
ATOM     15  C   UNL     1      -4.023  -0.289  -0.348  0.00  0.00    +0.045 A 
ATOM     16  C   UNL     1      -3.167   1.938   0.036  0.00  0.00    +0.045 A 
ATOM     18  C   UNL     1      -5.244   0.083   0.213  0.00  0.00    +0.004 A 
ATOM     19  C   UNL     1      -4.389   2.310   0.598  0.00  0.00    +0.004 A 
ATOM     20  C   UNL     1      -5.427   1.383   0.686  0.00  0.00    +0.000 A 
ENDBRANCH   2  13
ENDBRANCH   7   2
TORSDOF 3
