REMARK  Name = 26742923
REMARK  7 active torsions:
REMARK  status: ('A' for Active; 'I' for Inactive)
REMARK    1  A    between atoms: N_6  and  C_19
REMARK    2  A    between atoms: C_8  and  C_14
REMARK    3  A    between atoms: C_9  and  C_13
REMARK    4  A    between atoms: C_13  and  C_15
REMARK    5  A    between atoms: C_14  and  C_16
REMARK    6  A    between atoms: C_18  and  C_20
REMARK    7  A    between atoms: C_19  and  C_21
REMARK                            x       y       z     vdW  Elec       q    Type
REMARK                         _______ _______ _______ _____ _____    ______ ____
ROOT
ATOM      5  N   UNL     1       5.865   0.863  -0.414  0.00  0.00    -0.316 NA
ATOM      8  C   UNL     1       2.983   0.252  -0.576  0.00  0.00    +0.004 C 
ATOM      9  C   UNL     1       3.540   1.447   0.234  0.00  0.00    +0.012 C 
ATOM     10  C   UNL     1       3.985  -0.115  -1.683  0.00  0.00    +0.019 C 
ATOM     11  C   UNL     1       4.981   1.191   0.706  0.00  0.00    +0.085 C 
ATOM     12  C   UNL     1       5.401  -0.314  -1.146  0.00  0.00    +0.081 C 
ATOM     30  H   UNL     1       6.806   0.692  -0.061  0.00  0.00    +0.122 HD
ENDROOT
BRANCH   9  13
ATOM     13  C   UNL     1       2.650   1.838   1.414  0.00  0.00    +0.064 C 
BRANCH  13  15
ATOM      3  O   UNL     1      -0.376   3.415   0.267  0.00  0.00    -0.354 OA
ATOM      7  N   UNL     1       0.964   3.446   0.633  0.00  0.00    -0.083 NA
ATOM     15  C   UNL     1       1.262   2.186   0.961  0.00  0.00    +0.085 A 
ATOM     17  C   UNL     1       0.160   1.323   0.822  0.00  0.00    +0.076 A 
ATOM     18  C   UNL     1      -0.844   2.146   0.384  0.00  0.00    +0.167 A 
BRANCH  18  20
ATOM      1  F   UNL     1      -6.191   1.413  -0.964  0.00  0.00    -0.205 F 
ATOM     20  C   UNL     1      -2.222   1.957   0.037  0.00  0.00    +0.020 A 
ATOM     22  C   UNL     1      -2.796   0.689   0.124  0.00  0.00    +0.014 A 
ATOM     23  C   UNL     1      -2.989   3.042  -0.388  0.00  0.00    +0.014 A 
ATOM     25  C   UNL     1      -4.137   0.505  -0.214  0.00  0.00    +0.039 A 
ATOM     26  C   UNL     1      -4.330   2.858  -0.726  0.00  0.00    +0.039 A 
ATOM     29  C   UNL     1      -4.904   1.590  -0.639  0.00  0.00    +0.123 A 
ENDBRANCH  18  20
ENDBRANCH  13  15
ENDBRANCH   9  13
BRANCH   8  14
ATOM     14  C   UNL     1       2.640  -0.974   0.278  0.00  0.00    +0.099 C 
BRANCH  14  16
ATOM      2  O   UNL     1       1.188  -1.676  -1.525  0.00  0.00    -0.276 OA
ATOM      6  N   UNL     1       1.383  -3.010   0.367  0.00  0.00    -0.308 N 
ATOM     16  C   UNL     1       1.662  -1.899  -0.415  0.00  0.00    +0.214 C 
ATOM     31  H   UNL     1       1.815  -3.094   1.283  0.00  0.00    +0.149 HD
BRANCH   6  19
ATOM     19  C   UNL     1       0.479  -4.059  -0.045  0.00  0.00    +0.178 C 
BRANCH  19  21
ATOM      4  O   UNL     1      -1.905  -4.261  -0.474  0.00  0.00    -0.466 OA
ATOM     21  C   UNL     1      -0.941  -3.762   0.343  0.00  0.00    +0.122 A 
ATOM     24  C   UNL     1      -1.505  -3.066   1.387  0.00  0.00    +0.046 A 
ATOM     27  C   UNL     1      -2.905  -3.143   1.200  0.00  0.00    +0.041 A 
ATOM     28  C   UNL     1      -3.098  -3.880   0.054  0.00  0.00    +0.195 A 
ENDBRANCH  19  21
ENDBRANCH   6  19
ENDBRANCH  14  16
ENDBRANCH   8  14
TORSDOF 7
