REMARK  Name = 75537033
REMARK  4 active torsions:
REMARK  status: ('A' for Active; 'I' for Inactive)
REMARK    1  A    between atoms: N_5  and  C_15
REMARK    2  A    between atoms: N_7  and  C_22
REMARK    3  A    between atoms: C_15  and  C_17
REMARK    4  A    between atoms: C_16  and  C_18
REMARK                            x       y       z     vdW  Elec       q    Type
REMARK                         _______ _______ _______ _____ _____    ______ ____
ROOT
ATOM      2  O   UNL     1      -2.967  -2.611  -0.813  0.00  0.00    -0.252 OA
ATOM      3  O   UNL     1       3.838  -2.467   0.762  0.00  0.00    -0.270 OA
ATOM      4  N   UNL     1      -0.778  -1.790  -0.575  0.00  0.00    -0.278 N 
ATOM      5  N   UNL     1      -2.422  -0.326  -1.025  0.00  0.00    -0.276 N 
ATOM      6  N   UNL     1       1.733  -1.470   0.571  0.00  0.00    -0.294 N 
ATOM      9  C   UNL     1      -0.098  -0.519  -0.756  0.00  0.00    +0.112 C 
ATOM     10  C   UNL     1      -1.237   0.493  -0.846  0.00  0.00    +0.134 C 
ATOM     11  C   UNL     1       0.882  -0.279   0.389  0.00  0.00    +0.132 C 
ATOM     12  C   UNL     1      -0.008  -2.989  -0.294  0.00  0.00    +0.128 C 
ATOM     13  C   UNL     1       0.996  -2.716   0.825  0.00  0.00    +0.127 C 
ATOM     14  C   UNL     1      -2.157  -1.693  -0.809  0.00  0.00    +0.306 C 
ATOM     16  C   UNL     1       3.129  -1.481   0.567  0.00  0.00    +0.247 C 
ENDROOT
BRANCH  16  18
ATOM      1 CL   UNL     1       5.985   3.654  -0.536  0.00  0.00    -0.084 Cl
ATOM     18  C   UNL     1       3.830  -0.220   0.296  0.00  0.00    +0.037 A 
ATOM     20  C   UNL     1       4.158   0.128  -1.014  0.00  0.00    +0.014 A 
ATOM     21  C   UNL     1       4.168   0.630   1.349  0.00  0.00    +0.014 A 
ATOM     24  C   UNL     1       4.825   1.326  -1.272  0.00  0.00    +0.021 A 
ATOM     25  C   UNL     1       4.835   1.828   1.092  0.00  0.00    +0.021 A 
ATOM     26  C   UNL     1       5.163   2.176  -0.219  0.00  0.00    +0.041 A 
ENDBRANCH  16  18
BRANCH   5  15
ATOM     15  C   UNL     1      -3.725   0.254  -1.262  0.00  0.00    +0.183 C 
BRANCH  15  17
ATOM      7  N   UNL     1      -5.243   1.767   0.049  0.00  0.00    -0.336 N 
ATOM      8  N   UNL     1      -4.212   0.172   1.199  0.00  0.00    -0.239 NA
ATOM     17  C   UNL     1      -4.379   0.709   0.011  0.00  0.00    +0.127 A 
ATOM     19  C   UNL     1      -5.654   1.915   1.343  0.00  0.00    +0.106 A 
ATOM     22  C   UNL     1      -5.657   2.589  -1.064  0.00  0.00    +0.150 C 
ATOM     23  C   UNL     1      -5.004   0.919   2.034  0.00  0.00    +0.130 A 
ENDBRANCH  15  17
ENDBRANCH   5  15
TORSDOF 3
