REMARK  Name = 51137936
REMARK  6 active torsions:
REMARK  status: ('A' for Active; 'I' for Inactive)
REMARK    1  A    between atoms: N_6  and  C_22
REMARK    2  A    between atoms: N_6  and  C_26
REMARK    3  A    between atoms: N_6  and  C_27
REMARK    4  A    between atoms: C_8  and  C_12
REMARK    5  A    between atoms: C_15  and  C_16
REMARK    6  A    between atoms: C_19  and  C_25
REMARK                            x       y       z     vdW  Elec       q    Type
REMARK                         _______ _______ _______ _____ _____    ______ ____
ROOT
ATOM      1  O   UNL     1       0.651   1.791   0.233  0.00  0.00    -0.420 OA
ATOM      3  N   UNL     1       1.280   3.937   0.289  0.00  0.00    -0.112 NA
ATOM      5  N   UNL     1       2.421   3.160   0.209  0.00  0.00    -0.107 NA
ATOM     12  C   UNL     1       0.272   3.096   0.300  0.00  0.00    +0.222 A 
ATOM     15  C   UNL     1       2.006   1.915   0.179  0.00  0.00    +0.248 A 
ENDROOT
BRANCH  12   8
ATOM      2  N   UNL     1      -2.529   1.468  -0.167  0.00  0.00    -0.314 N 
ATOM      4  N   UNL     1      -3.368  -0.281   1.158  0.00  0.00    -0.239 NA
ATOM      8  C   UNL     1      -1.220   3.375   0.376  0.00  0.00    +0.095 C 
ATOM      9  C   UNL     1      -1.832   3.551  -1.018  0.00  0.00    +0.033 C 
ATOM     10  C   UNL     1      -2.099   2.265   0.983  0.00  0.00    +0.119 C 
ATOM     11  C   UNL     1      -2.233   2.135  -1.432  0.00  0.00    +0.107 C 
ATOM     13  C   UNL     1      -3.145   0.239  -0.070  0.00  0.00    +0.121 A 
ATOM     14  C   UNL     1      -3.498  -0.388  -1.253  0.00  0.00    +0.045 A 
ATOM     17  C   UNL     1      -4.121  -1.629  -1.172  0.00  0.00    +0.024 A 
ATOM     18  C   UNL     1      -3.975  -1.488   1.198  0.00  0.00    +0.131 A 
ATOM     19  C   UNL     1      -4.368  -2.196   0.073  0.00  0.00    +0.070 A 
BRANCH  19  25
ATOM      7  N   UNL     1      -5.522  -4.502   0.283  0.00  0.00    -0.191 NA
ATOM     25  C   UNL     1      -5.004  -3.468   0.189  0.00  0.00    +0.101 C 
ENDBRANCH  19  25
ENDBRANCH  12   8
BRANCH  15  16
ATOM     16  C   UNL     1       2.745   0.689   0.099  0.00  0.00    +0.039 A 
ATOM     20  C   UNL     1       4.139   0.718   0.039  0.00  0.00    +0.015 A 
ATOM     21  C   UNL     1       2.072  -0.532   0.081  0.00  0.00    +0.015 A 
ATOM     22  C   UNL     1       4.184  -1.696  -0.057  0.00  0.00    +0.029 A 
ATOM     23  C   UNL     1       4.858  -0.475  -0.039  0.00  0.00    +0.024 A 
ATOM     24  C   UNL     1       2.791  -1.725   0.003  0.00  0.00    +0.024 A 
BRANCH  22   6
ATOM      6  N   UNL     1       4.912  -2.901  -0.136  0.00  0.00    -0.336 N 
ATOM     26  C   UNL     1       4.221  -4.176  -0.148  0.00  0.00    +0.129 C 
ATOM     27  C   UNL     1       6.360  -2.882  -0.200  0.00  0.00    +0.129 C 
ENDBRANCH  22   6
ENDBRANCH  15  16
TORSDOF 4
