REMARK  Name = 11912019
REMARK  9 active torsions:
REMARK  status: ('A' for Active; 'I' for Inactive)
REMARK    1  A    between atoms: N_3  and  C_10
REMARK    2  A    between atoms: N_3  and  C_15
REMARK    3  A    between atoms: N_4  and  C_11
REMARK    4  A    between atoms: N_7  and  C_23
REMARK    5  A    between atoms: N_7  and  C_24
REMARK    6  A    between atoms: N_7  and  C_25
REMARK    7  A    between atoms: C_14  and  C_15
REMARK    8  A    between atoms: C_22  and  C_23
REMARK    9  A    between atoms: C_24  and  C_26
REMARK                            x       y       z     vdW  Elec       q    Type
REMARK                         _______ _______ _______ _____ _____    ______ ____
ROOT
ATOM      1  O   UNL     1       0.999   4.074  -0.734  0.00  0.00    -0.370 OA
ATOM      2  O   UNL     1      -0.052   2.839   1.933  0.00  0.00    -0.370 OA
ATOM      8  C   UNL     1       0.697   2.308   0.826  0.00  0.00    +0.168 C 
ATOM      9  C   UNL     1       0.155   2.945  -0.438  0.00  0.00    +0.175 C 
ATOM     10  C   UNL     1       2.135   2.775   0.896  0.00  0.00    +0.111 C 
ATOM     11  C   UNL     1      -1.232   3.429  -0.059  0.00  0.00    +0.166 C 
ATOM     12  C   UNL     1       2.050   4.143   0.240  0.00  0.00    +0.181 C 
ATOM     13  C   UNL     1      -1.108   3.675   1.441  0.00  0.00    +0.189 C 
ENDROOT
BRANCH  11   4
ATOM      4  N   UNL     1      -2.282   2.485  -0.452  0.00  0.00    -0.244 N 
ATOM      5  N   UNL     1      -2.904   2.556  -1.624  0.00  0.00    -0.065 NA
ATOM      6  N   UNL     1      -3.796   1.554  -1.663  0.00  0.00    -0.133 NA
ATOM     21  C   UNL     1      -2.801   1.424   0.236  0.00  0.00    +0.135 A 
ATOM     22  C   UNL     1      -3.771   0.815  -0.520  0.00  0.00    +0.097 A 
BRANCH  22  23
ATOM     23  C   UNL     1      -4.630  -0.341  -0.274  0.00  0.00    +0.143 C 
BRANCH  23   7
ATOM      7  N   UNL     1      -3.913  -1.496   0.300  0.00  0.00    -0.295 NA
ATOM     25  C   UNL     1      -4.858  -2.399   0.944  0.00  0.00    +0.105 C 
BRANCH   7  24
ATOM     24  C   UNL     1      -3.162  -2.183  -0.743  0.00  0.00    +0.119 C 
BRANCH  24  26
ATOM     26  C   UNL     1      -2.032  -3.001  -0.175  0.00  0.00    -0.033 A 
ATOM     27  C   UNL     1      -0.772  -2.428  -0.007  0.00  0.00    +0.005 A 
ATOM     28  C   UNL     1      -2.247  -4.332   0.185  0.00  0.00    +0.005 A 
ATOM     29  C   UNL     1       0.275  -3.185   0.520  0.00  0.00    +0.000 A 
ATOM     30  C   UNL     1      -1.200  -5.089   0.712  0.00  0.00    +0.000 A 
ATOM     31  C   UNL     1       0.060  -4.516   0.879  0.00  0.00    +0.000 A 
ENDBRANCH  24  26
ENDBRANCH   7  24
ENDBRANCH  23   7
ENDBRANCH  22  23
ENDBRANCH  11   4
BRANCH  10   3
ATOM      3  N   UNL     1       2.997   1.900   0.103  0.00  0.00    -0.309 NA
ATOM     32  H   UNL     1       3.807   2.422  -0.232  0.00  0.00    +0.122 HD
BRANCH   3  15
ATOM     15  C   UNL     1       3.468   0.774   0.894  0.00  0.00    +0.084 C 
BRANCH  15  14
ATOM     14  C   UNL     1       4.359  -0.143   0.059  0.00  0.00    +0.003 C 
ATOM     16  C   UNL     1       3.623  -0.610  -1.204  0.00  0.00    +0.005 C 
ATOM     17  C   UNL     1       4.833  -1.342   0.891  0.00  0.00    +0.005 C 
ATOM     18  C   UNL     1       4.475  -1.572  -2.030  0.00  0.00    +0.000 C 
ATOM     19  C   UNL     1       5.683  -2.302   0.062  0.00  0.00    +0.000 C 
ATOM     20  C   UNL     1       4.952  -2.758  -1.197  0.00  0.00    +0.000 C 
ENDBRANCH  15  14
ENDBRANCH   3  15
ENDBRANCH  10   3
TORSDOF 8
