REMARK  Name = 26742925
REMARK  9 active torsions:
REMARK  status: ('A' for Active; 'I' for Inactive)
REMARK    1  A    between atoms: O_4  and  C_30
REMARK    2  A    between atoms: O_4  and  C_32
REMARK    3  A    between atoms: N_6  and  C_19
REMARK    4  A    between atoms: C_8  and  C_14
REMARK    5  A    between atoms: C_9  and  C_13
REMARK    6  A    between atoms: C_13  and  C_15
REMARK    7  A    between atoms: C_14  and  C_16
REMARK    8  A    between atoms: C_18  and  C_20
REMARK    9  A    between atoms: C_19  and  C_21
REMARK                            x       y       z     vdW  Elec       q    Type
REMARK                         _______ _______ _______ _____ _____    ______ ____
ROOT
ATOM      5  N   UNL     1      -2.364   4.433   0.187  0.00  0.00    -0.316 NA
ATOM      8  C   UNL     1      -3.899   1.940   0.274  0.00  0.00    +0.004 C 
ATOM      9  C   UNL     1      -2.356   1.947   0.394  0.00  0.00    +0.012 C 
ATOM     10  C   UNL     1      -4.399   3.184  -0.476  0.00  0.00    +0.019 C 
ATOM     11  C   UNL     1      -1.895   3.295   0.980  0.00  0.00    +0.085 C 
ATOM     12  C   UNL     1      -3.825   4.466   0.125  0.00  0.00    +0.081 C 
ATOM     33  H   UNL     1      -1.984   4.383  -0.756  0.00  0.00    +0.122 HD
ENDROOT
BRANCH   9  13
ATOM     13  C   UNL     1      -1.630   1.651  -0.926  0.00  0.00    +0.064 C 
BRANCH  13  15
ATOM      3  O   UNL     1       1.400  -0.201  -0.331  0.00  0.00    -0.354 OA
ATOM      7  N   UNL     1       0.028  -0.120  -0.535  0.00  0.00    -0.083 NA
ATOM     15  C   UNL     1      -0.224   1.183  -0.683  0.00  0.00    +0.085 A 
ATOM     17  C   UNL     1       0.939   1.966  -0.584  0.00  0.00    +0.076 A 
ATOM     18  C   UNL     1       1.931   1.048  -0.363  0.00  0.00    +0.167 A 
BRANCH  18  20
ATOM      1  F   UNL     1       7.435   1.345   0.397  0.00  0.00    -0.205 F 
ATOM     20  C   UNL     1       3.350   1.125  -0.166  0.00  0.00    +0.020 A 
ATOM     22  C   UNL     1       3.990   2.364  -0.181  0.00  0.00    +0.014 A 
ATOM     23  C   UNL     1       4.089  -0.040   0.040  0.00  0.00    +0.014 A 
ATOM     26  C   UNL     1       5.370   2.438   0.009  0.00  0.00    +0.039 A 
ATOM     27  C   UNL     1       5.469   0.035   0.230  0.00  0.00    +0.039 A 
ATOM     31  C   UNL     1       6.110   1.274   0.215  0.00  0.00    +0.123 A 
ENDBRANCH  18  20
ENDBRANCH  13  15
ENDBRANCH   9  13
BRANCH   8  14
ATOM     14  C   UNL     1      -4.453   0.664  -0.359  0.00  0.00    +0.099 C 
BRANCH  14  16
ATOM      2  O   UNL     1      -3.821  -0.589   1.611  0.00  0.00    -0.276 OA
ATOM      6  N   UNL     1      -3.960  -1.678  -0.437  0.00  0.00    -0.311 N 
ATOM     16  C   UNL     1      -4.045  -0.578   0.404  0.00  0.00    +0.214 C 
ATOM     34  H   UNL     1      -4.157  -1.567  -1.427  0.00  0.00    +0.149 HD
BRANCH   6  19
ATOM     19  C   UNL     1      -3.589  -2.996   0.023  0.00  0.00    +0.139 C 
BRANCH  19  21
ATOM     21  C   UNL     1      -2.106  -3.218  -0.043  0.00  0.00    -0.030 A 
ATOM     24  C   UNL     1      -1.489  -3.451  -1.273  0.00  0.00    +0.009 A 
ATOM     25  C   UNL     1      -1.343  -3.190   1.125  0.00  0.00    +0.009 A 
ATOM     28  C   UNL     1      -0.111  -3.657  -1.334  0.00  0.00    +0.046 A 
ATOM     29  C   UNL     1       0.035  -3.395   1.063  0.00  0.00    +0.046 A 
ATOM     30  C   UNL     1       0.651  -3.629  -0.166  0.00  0.00    +0.120 A 
BRANCH  30   4
ATOM      4  O   UNL     1       1.996  -3.829  -0.226  0.00  0.00    -0.495 OA
ATOM     32  C   UNL     1       2.714  -3.787   1.006  0.00  0.00    +0.277 C 
ENDBRANCH  30   4
ENDBRANCH  19  21
ENDBRANCH   6  19
ENDBRANCH  14  16
ENDBRANCH   8  14
TORSDOF 8
