REMARK  Name = 51137714
REMARK  7 active torsions:
REMARK  status: ('A' for Active; 'I' for Inactive)
REMARK    1  A    between atoms: O_3  and  C_18
REMARK    2  A    between atoms: O_3  and  C_22
REMARK    3  A    between atoms: O_4  and  C_21
REMARK    4  A    between atoms: O_4  and  C_23
REMARK    5  A    between atoms: C_8  and  C_12
REMARK    6  A    between atoms: C_13  and  C_14
REMARK    7  A    between atoms: C_15  and  C_20
REMARK                            x       y       z     vdW  Elec       q    Type
REMARK                         _______ _______ _______ _____ _____    ______ ____
ROOT
ATOM      2  O   UNL     1      -0.607  -2.060   2.362  0.00  0.00    -0.270 OA
ATOM      5  N   UNL     1       0.637  -1.511   0.479  0.00  0.00    -0.297 N 
ATOM      8  C   UNL     1       2.383  -0.856  -0.999  0.00  0.00    +0.095 C 
ATOM      9  C   UNL     1       2.716  -2.223  -0.380  0.00  0.00    +0.033 C 
ATOM     10  C   UNL     1       0.871  -0.755  -0.752  0.00  0.00    +0.121 C 
ATOM     11  C   UNL     1       1.802  -2.307   0.835  0.00  0.00    +0.109 C 
ATOM     13  C   UNL     1      -0.482  -1.462   1.295  0.00  0.00    +0.247 C 
ENDROOT
BRANCH   8  12
ATOM      1  O   UNL     1       4.427   0.503  -1.031  0.00  0.00    -0.425 OA
ATOM      6  N   UNL     1       3.018   1.020   0.629  0.00  0.00    -0.112 NA
ATOM      7  N   UNL     1       4.117   1.853   0.726  0.00  0.00    -0.113 NA
ATOM     12  C   UNL     1       3.243   0.249  -0.410  0.00  0.00    +0.222 A 
ATOM     15  C   UNL     1       4.913   1.516  -0.262  0.00  0.00    +0.214 A 
ATOM     20  C   UNL     1       6.218   2.070  -0.642  0.00  0.00    +0.111 C 
ENDBRANCH   8  12
BRANCH  13  14
ATOM     14  C   UNL     1      -1.605  -0.617   0.859  0.00  0.00    +0.041 A 
ATOM     16  C   UNL     1      -2.238  -0.871  -0.357  0.00  0.00    +0.062 A 
ATOM     17  C   UNL     1      -2.035   0.440   1.662  0.00  0.00    +0.017 A 
ATOM     18  C   UNL     1      -3.302  -0.070  -0.771  0.00  0.00    +0.162 A 
ATOM     19  C   UNL     1      -3.099   1.241   1.248  0.00  0.00    +0.050 A 
ATOM     21  C   UNL     1      -3.733   0.986   0.032  0.00  0.00    +0.162 A 
BRANCH  18   3
ATOM      3  O   UNL     1      -3.913  -0.329  -1.961  0.00  0.00    -0.491 OA
ATOM     22  C   UNL     1      -3.412  -1.427  -2.721  0.00  0.00    +0.277 C 
ENDBRANCH  18   3
BRANCH  21   4
ATOM      4  O   UNL     1      -4.771   1.776  -0.360  0.00  0.00    -0.491 OA
ATOM     23  C   UNL     1      -5.149   2.834   0.518  0.00  0.00    +0.277 C 
ENDBRANCH  21   4
ENDBRANCH  13  14
TORSDOF 4
