REMARK  Name = 75536974
REMARK  4 active torsions:
REMARK  status: ('A' for Active; 'I' for Inactive)
REMARK    1  A    between atoms: S_1  and  N_6
REMARK    2  A    between atoms: S_1  and  C_16
REMARK    3  A    between atoms: N_7  and  C_15
REMARK    4  A    between atoms: C_15  and  C_17
REMARK                            x       y       z     vdW  Elec       q    Type
REMARK                         _______ _______ _______ _____ _____    ______ ____
ROOT
ATOM      2  O   UNL     1       2.195  -2.094  -2.027  0.00  0.00    -0.252 OA
ATOM      5  N   UNL     1       0.354  -2.057  -0.567  0.00  0.00    -0.278 N 
ATOM      6  N   UNL     1      -2.226  -1.475   0.339  0.00  0.00    -0.173 NA
ATOM      7  N   UNL     1       2.389  -1.603   0.271  0.00  0.00    -0.279 N 
ATOM      9  C   UNL     1       0.137  -1.921   0.861  0.00  0.00    +0.111 C 
ATOM     10  C   UNL     1      -1.045  -0.997   1.133  0.00  0.00    +0.133 C 
ATOM     11  C   UNL     1       1.477  -1.409   1.385  0.00  0.00    +0.133 C 
ATOM     12  C   UNL     1      -0.759  -2.390  -1.433  0.00  0.00    +0.127 C 
ATOM     13  C   UNL     1      -1.943  -1.475  -1.136  0.00  0.00    +0.128 C 
ATOM     14  C   UNL     1       1.707  -1.941  -0.914  0.00  0.00    +0.305 C 
ENDROOT
BRANCH   6   1
ATOM      1  S   UNL     1      -3.733  -0.796   0.792  0.00  0.00    +0.061 S 
ATOM      3  O   UNL     1      -3.796  -0.712   2.235  0.00  0.00    -0.153 OA
ATOM      4  O   UNL     1      -4.784  -1.440   0.035  0.00  0.00    -0.153 OA
BRANCH   1  16
ATOM     16  C   UNL     1      -3.534   0.841   0.163  0.00  0.00    +0.105 A 
ATOM     18  C   UNL     1      -3.930   1.139  -1.141  0.00  0.00    +0.028 A 
ATOM     19  C   UNL     1      -2.978   1.835   0.967  0.00  0.00    +0.028 A 
ATOM     22  C   UNL     1      -3.770   2.432  -1.640  0.00  0.00    +0.002 A 
ATOM     23  C   UNL     1      -2.817   3.128   0.469  0.00  0.00    +0.002 A 
ATOM     25  C   UNL     1      -3.213   3.426  -0.835  0.00  0.00    +0.000 A 
ENDBRANCH   1  16
ENDBRANCH   6   1
BRANCH   7  15
ATOM     15  C   UNL     1       3.806  -1.338   0.386  0.00  0.00    +0.146 C 
BRANCH  15  17
ATOM      8  N   UNL     1       4.727   2.227   1.250  0.00  0.00    -0.263 NA
ATOM     17  C   UNL     1       4.118   0.122   0.228  0.00  0.00    -0.012 A 
ATOM     20  C   UNL     1       4.096   0.728  -1.024  0.00  0.00    +0.008 A 
ATOM     21  C   UNL     1       4.437   0.908   1.323  0.00  0.00    +0.115 A 
ATOM     24  C   UNL     1       4.389   2.082  -1.139  0.00  0.00    +0.020 A 
ATOM     26  C   UNL     1       4.696   2.781   0.018  0.00  0.00    +0.111 A 
ENDBRANCH  15  17
ENDBRANCH   7  15
TORSDOF 4
