REMARK  Name = 11884018
REMARK  9 active torsions:
REMARK  status: ('A' for Active; 'I' for Inactive)
REMARK    1  A    between atoms: O_3  and  C_13
REMARK    2  A    between atoms: O_3  and  C_17
REMARK    3  A    between atoms: O_6  and  C_24
REMARK    4  A    between atoms: O_6  and  C_30
REMARK    5  A    between atoms: O_7  and  C_29
REMARK    6  A    between atoms: O_7  and  C_31
REMARK    7  A    between atoms: N_8  and  C_12
REMARK    8  A    between atoms: N_9  and  C_21
REMARK    9  A    between atoms: C_16  and  C_18
REMARK                            x       y       z     vdW  Elec       q    Type
REMARK                         _______ _______ _______ _____ _____    ______ ____
ROOT
ATOM      1  O   UNL     1      -1.990   1.969   0.919  0.00  0.00    -0.368 OA
ATOM      2  O   UNL     1      -2.540   3.559  -1.645  0.00  0.00    -0.368 OA
ATOM     10  C   UNL     1      -2.892   2.214  -1.260  0.00  0.00    +0.173 C 
ATOM     11  C   UNL     1      -1.727   1.666  -0.461  0.00  0.00    +0.192 C 
ATOM     12  C   UNL     1      -4.032   2.239  -0.269  0.00  0.00    +0.130 C 
ATOM     13  C   UNL     1      -0.561   2.462  -0.996  0.00  0.00    +0.235 C 
ATOM     14  C   UNL     1      -3.313   2.514   1.041  0.00  0.00    +0.185 C 
ATOM     15  C   UNL     1      -1.186   3.817  -1.243  0.00  0.00    +0.207 C 
ENDROOT
BRANCH  12   8
ATOM      4  O   UNL     1      -6.756   1.793   0.522  0.00  0.00    -0.270 OA
ATOM      8  N   UNL     1      -4.722   0.973  -0.233  0.00  0.00    -0.304 N 
ATOM     16  C   UNL     1      -6.046   0.856   0.166  0.00  0.00    +0.244 C 
ATOM     37  H   UNL     1      -4.169   0.141  -0.410  0.00  0.00    +0.149 HD
BRANCH  16  18
ATOM     18  C   UNL     1      -6.604  -0.521   0.173  0.00  0.00    +0.037 A 
ATOM     19  C   UNL     1      -6.083  -1.490  -0.685  0.00  0.00    +0.016 A 
ATOM     20  C   UNL     1      -7.650  -0.845   1.037  0.00  0.00    +0.016 A 
ATOM     22  C   UNL     1      -6.608  -2.782  -0.679  0.00  0.00    +0.046 A 
ATOM     23  C   UNL     1      -8.175  -2.137   1.044  0.00  0.00    +0.046 A 
ATOM     24  C   UNL     1      -7.653  -3.106   0.186  0.00  0.00    +0.120 A 
BRANCH  24   6
ATOM      6  O   UNL     1      -8.167  -4.367   0.190  0.00  0.00    -0.495 OA
ATOM     30  C   UNL     1      -7.587  -5.307  -0.712  0.00  0.00    +0.277 C 
ENDBRANCH  24   6
ENDBRANCH  16  18
ENDBRANCH  12   8
BRANCH  13   3
ATOM      3  O   UNL     1       0.528   2.535  -0.103  0.00  0.00    -0.442 OA
BRANCH   3  17
ATOM      5  O   UNL     1       1.473   0.707  -1.100  0.00  0.00    -0.226 OA
ATOM      9  N   UNL     1       2.502   1.797   0.698  0.00  0.00    -0.251 N 
ATOM     17  C   UNL     1       1.516   1.584  -0.246  0.00  0.00    +0.405 C 
ATOM     38  H   UNL     1       2.360   2.584   1.327  0.00  0.00    +0.158 HD
BRANCH   9  21
ATOM     21  C   UNL     1       3.688   1.055   0.901  0.00  0.00    +0.037 A 
ATOM     25  C   UNL     1       3.971  -0.044   0.089  0.00  0.00    +0.027 A 
ATOM     26  C   UNL     1       4.575   1.420   1.913  0.00  0.00    +0.027 A 
ATOM     27  C   UNL     1       5.141  -0.776   0.289  0.00  0.00    +0.048 A 
ATOM     28  C   UNL     1       5.745   0.687   2.114  0.00  0.00    +0.048 A 
ATOM     29  C   UNL     1       6.028  -0.411   1.302  0.00  0.00    +0.129 A 
BRANCH  29   7
ATOM      7  O   UNL     1       7.168  -1.127   1.499  0.00  0.00    -0.456 OA
BRANCH   7  31
ATOM     31  C   UNL     1       7.912  -1.474   0.383  0.00  0.00    +0.128 A 
ATOM     32  C   UNL     1       8.163  -0.526  -0.610  0.00  0.00    +0.046 A 
ATOM     33  C   UNL     1       8.409  -2.770   0.251  0.00  0.00    +0.046 A 
ATOM     34  C   UNL     1       8.911  -0.875  -1.734  0.00  0.00    +0.004 A 
ATOM     35  C   UNL     1       9.157  -3.119  -0.874  0.00  0.00    +0.004 A 
ATOM     36  C   UNL     1       9.408  -2.171  -1.866  0.00  0.00    +0.000 A 
ENDBRANCH   7  31
ENDBRANCH  29   7
ENDBRANCH   9  21
ENDBRANCH   3  17
ENDBRANCH  13   3
TORSDOF 8
