REMARK  Name = 56774253
REMARK  11 active torsions:
REMARK  status: ('A' for Active; 'I' for Inactive)
REMARK    1  A    between atoms: N_2  and  C_8
REMARK    2  A    between atoms: N_2  and  C_14
REMARK    3  A    between atoms: N_5  and  C_19
REMARK    4  A    between atoms: N_5  and  C_23
REMARK    5  A    between atoms: N_5  and  C_24
REMARK    6  A    between atoms: C_6  and  C_11
REMARK    7  A    between atoms: C_6  and  C_12
REMARK    8  A    between atoms: C_7  and  C_10
REMARK    9  A    between atoms: C_10  and  C_13
REMARK   10  A    between atoms: C_14  and  C_16
REMARK   11  A    between atoms: C_17  and  C_19
REMARK                            x       y       z     vdW  Elec       q    Type
REMARK                         _______ _______ _______ _____ _____    ______ ____
ROOT
ATOM      6  C   UNL     1      -2.016   1.670   0.918  0.00  0.00    -0.016 C 
ATOM      7  C   UNL     1      -0.531   1.419   0.584  0.00  0.00    +0.004 C 
ATOM      8  C   UNL     1      -2.210   0.141   0.849  0.00  0.00    +0.060 C 
ATOM      9  C   UNL     1      -0.982   0.104  -0.084  0.00  0.00    +0.023 C 
ATOM     11  C   UNL     1      -2.235   2.344   2.256  0.00  0.00    +0.013 C 
ATOM     12  C   UNL     1      -2.815   2.394  -0.152  0.00  0.00    +0.013 C 
ENDROOT
BRANCH   8   2
ATOM      2  N   UNL     1      -3.404  -0.208   0.078  0.00  0.00    -0.307 NA
ATOM     30  H   UNL     1      -3.248  -0.970  -0.583  0.00  0.00    +0.123 HD
BRANCH   2  14
ATOM     14  C   UNL     1      -4.475  -0.599   0.988  0.00  0.00    +0.136 C 
BRANCH  14  16
ATOM      4  N   UNL     1      -6.104  -2.163   0.084  0.00  0.00    -0.259 NA
ATOM     16  C   UNL     1      -5.763  -0.867   0.255  0.00  0.00    +0.055 A 
ATOM     18  C   UNL     1      -6.521   0.201  -0.198  0.00  0.00    +0.024 A 
ATOM     20  C   UNL     1      -7.705  -0.080  -0.869  0.00  0.00    +0.003 A 
ATOM     21  C   UNL     1      -7.262  -2.398  -0.573  0.00  0.00    +0.111 A 
ATOM     22  C   UNL     1      -8.090  -1.402  -1.064  0.00  0.00    +0.020 A 
ENDBRANCH  14  16
ENDBRANCH   2  14
ENDBRANCH   8   2
BRANCH   7  10
ATOM     10  C   UNL     1       0.151   2.416  -0.363  0.00  0.00    +0.063 C 
BRANCH  10  13
ATOM      1  O   UNL     1       3.695   2.333   0.068  0.00  0.00    -0.358 OA
ATOM      3  N   UNL     1       2.426   2.783   0.411  0.00  0.00    -0.083 NA
ATOM     13  C   UNL     1       1.600   2.169  -0.441  0.00  0.00    +0.084 A 
ATOM     15  C   UNL     1       2.284   1.327  -1.335  0.00  0.00    +0.072 A 
ATOM     17  C   UNL     1       3.597   1.466  -0.972  0.00  0.00    +0.155 A 
BRANCH  17  19
ATOM     19  C   UNL     1       4.886   0.875  -1.478  0.00  0.00    +0.181 C 
BRANCH  19   5
ATOM      5  N   UNL     1       5.593   0.152  -0.440  0.00  0.00    -0.326 N 
ATOM     24  C   UNL     1       6.684   0.803   0.257  0.00  0.00    +0.129 C 
BRANCH   5  23
ATOM     23  C   UNL     1       5.228  -1.172  -0.117  0.00  0.00    +0.030 A 
ATOM     25  C   UNL     1       4.176  -1.790  -0.793  0.00  0.00    +0.023 A 
ATOM     26  C   UNL     1       5.918  -1.862   0.880  0.00  0.00    +0.023 A 
ATOM     27  C   UNL     1       3.815  -3.099  -0.473  0.00  0.00    +0.002 A 
ATOM     28  C   UNL     1       5.557  -3.171   1.199  0.00  0.00    +0.002 A 
ATOM     29  C   UNL     1       4.505  -3.789   0.523  0.00  0.00    +0.000 A 
ENDBRANCH   5  23
ENDBRANCH  19   5
ENDBRANCH  17  19
ENDBRANCH  10  13
ENDBRANCH   7  10
TORSDOF 8
