REMARK  Name = 7127938
REMARK  12 active torsions:
REMARK  status: ('A' for Active; 'I' for Inactive)
REMARK    1  A    between atoms: S_1  and  C_20
REMARK    2  A    between atoms: S_1  and  C_26
REMARK    3  A    between atoms: O_7  and  C_34
REMARK    4  A    between atoms: O_7  and  C_35
REMARK    5  A    between atoms: N_9  and  C_13
REMARK    6  A    between atoms: N_10  and  C_19
REMARK    7  A    between atoms: N_11  and  C_25
REMARK    8  A    between atoms: C_14  and  C_17
REMARK    9  A    between atoms: C_18  and  C_20
REMARK   10  A    between atoms: C_19  and  C_22
REMARK   11  A    between atoms: C_19  and  C_23
REMARK   12  A    between atoms: C_22  and  C_24
REMARK                            x       y       z     vdW  Elec       q    Type
REMARK                         _______ _______ _______ _____ _____    ______ ____
ROOT
ATOM      4  O   UNL     1      -4.284   2.418   0.260  0.00  0.00    -0.275 OA
ATOM      8  N   UNL     1      -2.164   2.569  -0.657  0.00  0.00    -0.287 N 
ATOM     13  C   UNL     1      -0.004   2.293  -1.606  0.00  0.00    +0.094 C 
ATOM     14  C   UNL     1      -2.144   1.234  -1.237  0.00  0.00    +0.164 C 
ATOM     15  C   UNL     1      -0.943   1.229  -2.180  0.00  0.00    +0.055 C 
ATOM     16  C   UNL     1      -0.958   3.321  -1.004  0.00  0.00    +0.131 C 
ATOM     18  C   UNL     1      -3.283   3.081  -0.017  0.00  0.00    +0.226 C 
ENDROOT
BRANCH  13   9
ATOM      5  O   UNL     1       2.623   1.243  -2.060  0.00  0.00    -0.253 OA
ATOM      9  N   UNL     1       0.888   1.745  -0.616  0.00  0.00    -0.295 N 
ATOM     11  N   UNL     1       2.795   0.784   0.236  0.00  0.00    -0.269 N 
ATOM     21  C   UNL     1       2.162   1.249  -0.921  0.00  0.00    +0.304 C 
ATOM     36  H   UNL     1       0.554   1.655   0.339  0.00  0.00    +0.151 HD
ATOM     38  H   UNL     1       2.272   0.862   1.105  0.00  0.00    +0.156 HD
BRANCH  11  25
ATOM     25  C   UNL     1       4.083   0.212   0.351  0.00  0.00    +0.035 A 
ATOM     28  C   UNL     1       4.554  -0.201   1.597  0.00  0.00    +0.027 A 
ATOM     29  C   UNL     1       4.882   0.059  -0.783  0.00  0.00    +0.027 A 
ATOM     32  C   UNL     1       5.825  -0.766   1.710  0.00  0.00    +0.047 A 
ATOM     33  C   UNL     1       6.152  -0.506  -0.670  0.00  0.00    +0.047 A 
ATOM     34  C   UNL     1       6.623  -0.918   0.576  0.00  0.00    +0.120 A 
BRANCH  34   7
ATOM      7  O   UNL     1       7.862  -1.472   0.686  0.00  0.00    -0.495 OA
ATOM     35  C   UNL     1       8.626  -1.598  -0.513  0.00  0.00    +0.277 C 
ENDBRANCH  34   7
ENDBRANCH  11  25
ENDBRANCH  13   9
BRANCH  14  17
ATOM      3  O   UNL     1      -1.895   0.573   1.043  0.00  0.00    -0.274 OA
ATOM     10  N   UNL     1      -1.923  -1.066  -0.610  0.00  0.00    -0.302 N 
ATOM     17  C   UNL     1      -1.982   0.232  -0.134  0.00  0.00    +0.234 C 
ATOM     37  H   UNL     1      -1.975  -1.228  -1.612  0.00  0.00    +0.150 HD
BRANCH  10  19
ATOM     19  C   UNL     1      -1.747  -2.216   0.248  0.00  0.00    +0.163 C 
BRANCH  19  23
ATOM      6  O   UNL     1       0.587  -2.171  -0.428  0.00  0.00    -0.274 OA
ATOM     12  N   UNL     1       0.076  -2.813   1.718  0.00  0.00    -0.328 N 
ATOM     23  C   UNL     1      -0.249  -2.403   0.442  0.00  0.00    +0.231 C 
ATOM     39  H   UNL     1       1.044  -2.961   1.985  0.00  0.00    +0.145 HD
ATOM     40  H   UNL     1      -0.625  -2.998   2.429  0.00  0.00    +0.145 HD
ENDBRANCH  19  23
BRANCH  19  22
ATOM     22  C   UNL     1      -2.373  -3.485  -0.344  0.00  0.00    +0.074 C 
BRANCH  22  24
ATOM      2  S   UNL     1      -4.562  -4.871   0.680  0.00  0.00    -0.102 S 
ATOM     24  C   UNL     1      -3.869  -3.536  -0.139  0.00  0.00    -0.008 A 
ATOM     27  C   UNL     1      -4.820  -2.622  -0.535  0.00  0.00    +0.011 A 
ATOM     30  C   UNL     1      -6.135  -3.021  -0.159  0.00  0.00    +0.008 A 
ATOM     31  C   UNL     1      -6.139  -4.226   0.508  0.00  0.00    +0.045 A 
ENDBRANCH  22  24
ENDBRANCH  19  22
ENDBRANCH  10  19
ENDBRANCH  14  17
BRANCH  18  20
ATOM     20  C   UNL     1      -3.211   4.541   0.351  0.00  0.00    +0.164 C 
BRANCH  20   1
ATOM      1  S   UNL     1      -2.516   4.654   2.006  0.00  0.00    -0.155 S 
ATOM     26  C   UNL     1      -2.539   6.454   2.197  0.00  0.00    +0.085 C 
ENDBRANCH  20   1
ENDBRANCH  18  20
TORSDOF 10
