REMARK  Name = 11884450
REMARK  7 active torsions:
REMARK  status: ('A' for Active; 'I' for Inactive)
REMARK    1  A    between atoms: S_1  and  N_7
REMARK    2  A    between atoms: S_1  and  C_22
REMARK    3  A    between atoms: O_6  and  C_35
REMARK    4  A    between atoms: O_6  and  C_36
REMARK    5  A    between atoms: N_9  and  C_20
REMARK    6  A    between atoms: C_23  and  C_29
REMARK    7  A    between atoms: C_27  and  C_30
REMARK                            x       y       z     vdW  Elec       q    Type
REMARK                         _______ _______ _______ _____ _____    ______ ____
ROOT
ATOM      4  O   UNL     1      -1.645  -1.907   1.364  0.00  0.00    -0.266 OA
ATOM      7  N   UNL     1       3.014  -0.355   0.521  0.00  0.00    -0.176 NA
ATOM      8  N   UNL     1       0.177  -1.618  -0.071  0.00  0.00    -0.310 N 
ATOM     11  C   UNL     1       2.432  -2.773   0.301  0.00  0.00    +0.025 C 
ATOM     12  C   UNL     1       2.134  -1.269  -1.618  0.00  0.00    +0.052 C 
ATOM     13  C   UNL     1       2.572  -2.674  -1.212  0.00  0.00    +0.017 C 
ATOM     14  C   UNL     1       3.326  -1.733   0.995  0.00  0.00    +0.114 C 
ATOM     15  C   UNL     1       3.066  -0.231  -0.967  0.00  0.00    +0.119 C 
ATOM     16  C   UNL     1       0.953  -2.617   0.676  0.00  0.00    +0.130 C 
ATOM     17  C   UNL     1       0.693  -1.010  -1.219  0.00  0.00    +0.026 A 
ATOM     18  C   UNL     1      -0.075  -0.186  -1.951  0.00  0.00    +0.024 A 
ATOM     19  C   UNL     1      -1.142  -1.383   0.369  0.00  0.00    +0.273 A 
ATOM     20  C   UNL     1      -1.957  -0.440  -0.461  0.00  0.00    +0.099 A 
ATOM     21  C   UNL     1      -1.426   0.104  -1.560  0.00  0.00    +0.030 A 
ENDROOT
BRANCH  20   9
ATOM      5  O   UNL     1      -4.168   0.148  -2.167  0.00  0.00    -0.270 OA
ATOM      9  N   UNL     1      -3.235  -0.177  -0.062  0.00  0.00    -0.277 N 
ATOM     27  C   UNL     1      -4.269   0.103  -0.944  0.00  0.00    +0.248 C 
ATOM     37  H   UNL     1      -3.463  -0.440   0.893  0.00  0.00    +0.155 HD
BRANCH  27  30
ATOM     30  C   UNL     1      -5.598   0.342  -0.323  0.00  0.00    +0.037 A 
ATOM     31  C   UNL     1      -6.734   0.070  -1.057  0.00  0.00    +0.016 A 
ATOM     32  C   UNL     1      -5.654   0.826   0.967  0.00  0.00    +0.016 A 
ATOM     33  C   UNL     1      -7.981   0.294  -0.475  0.00  0.00    +0.046 A 
ATOM     34  C   UNL     1      -6.902   1.050   1.550  0.00  0.00    +0.046 A 
ATOM     35  C   UNL     1      -8.065   0.783   0.829  0.00  0.00    +0.120 A 
BRANCH  35   6
ATOM      6  O   UNL     1      -9.283   0.999   1.397  0.00  0.00    -0.495 OA
ATOM     36  C   UNL     1     -10.432   0.704   0.605  0.00  0.00    +0.277 C 
ENDBRANCH  35   6
ENDBRANCH  27  30
ENDBRANCH  20   9
BRANCH   7   1
ATOM      1  S   UNL     1       3.756   0.915   1.395  0.00  0.00    +0.062 S 
ATOM      2  O   UNL     1       3.772   0.575   2.802  0.00  0.00    -0.153 OA
ATOM      3  O   UNL     1       3.216   2.179   0.940  0.00  0.00    -0.153 OA
BRANCH   1  22
ATOM     22  C   UNL     1       5.409   0.783   0.789  0.00  0.00    +0.123 A 
ATOM     23  C   UNL     1       5.826   1.483  -0.334  0.00  0.00    +0.078 A 
ATOM     24  C   UNL     1       6.283  -0.051   1.475  0.00  0.00    +0.030 A 
ATOM     25  C   UNL     1       7.141   1.348  -0.780  0.00  0.00    +0.021 A 
ATOM     26  C   UNL     1       7.598  -0.186   1.029  0.00  0.00    +0.002 A 
ATOM     28  C   UNL     1       8.026   0.513  -0.099  0.00  0.00    +0.001 A 
BRANCH  23  29
ATOM     10  N   UNL     1       4.229   3.045  -1.647  0.00  0.00    -0.191 NA
ATOM     29  C   UNL     1       4.943   2.346  -1.059  0.00  0.00    +0.101 C 
ENDBRANCH  23  29
ENDBRANCH   1  22
ENDBRANCH   7   1
TORSDOF 6
