REMARK  Name = 56775539
REMARK  8 active torsions:
REMARK  status: ('A' for Active; 'I' for Inactive)
REMARK    1  A    between atoms: O_3  and  C_20
REMARK    2  A    between atoms: O_3  and  C_21
REMARK    3  A    between atoms: N_4  and  C_6
REMARK    4  A    between atoms: N_4  and  C_8
REMARK    5  A    between atoms: C_6  and  C_13
REMARK    6  A    between atoms: C_7  and  C_8
REMARK    7  A    between atoms: C_13  and  C_17
REMARK    8  A    between atoms: C_19  and  C_20
REMARK                            x       y       z     vdW  Elec       q    Type
REMARK                         _______ _______ _______ _____ _____    ______ ____
ROOT
ATOM      1  O   UNL     1       0.297   3.509  -0.656  0.00  0.00    -0.376 OA
ATOM      6  C   UNL     1       0.170   1.573   0.235  0.00  0.00    +0.072 C 
ATOM     11  C   UNL     1      -0.546   2.353  -0.863  0.00  0.00    +0.184 C 
ATOM     12  C   UNL     1       1.078   2.794   0.329  0.00  0.00    +0.184 C 
ENDROOT
BRANCH   6   4
ATOM      4  N   UNL     1       0.920   0.472  -0.380  0.00  0.00    -0.306 NA
ATOM     22  H   UNL     1       0.348  -0.252  -0.812  0.00  0.00    +0.123 HD
BRANCH   4   8
ATOM      8  C   UNL     1       1.807  -0.122   0.609  0.00  0.00    +0.085 C 
BRANCH   8   7
ATOM      7  C   UNL     1       2.987  -0.818  -0.067  0.00  0.00    +0.003 C 
ATOM      9  C   UNL     1       3.816   0.186  -0.878  0.00  0.00    +0.005 C 
ATOM     10  C   UNL     1       3.860  -1.535   0.972  0.00  0.00    +0.005 C 
ATOM     14  C   UNL     1       5.033  -0.476  -1.520  0.00  0.00    +0.000 C 
ATOM     15  C   UNL     1       5.077  -2.194   0.327  0.00  0.00    +0.000 C 
ATOM     16  C   UNL     1       5.894  -1.194  -0.486  0.00  0.00    +0.000 C 
ENDBRANCH   8   7
ENDBRANCH   4   8
ENDBRANCH   6   4
BRANCH   6  13
ATOM     13  C   UNL     1      -0.602   1.149   1.446  0.00  0.00    +0.085 C 
BRANCH  13  17
ATOM      2  O   UNL     1      -2.865  -1.542   0.613  0.00  0.00    -0.357 OA
ATOM      5  N   UNL     1      -1.618  -1.053   0.985  0.00  0.00    -0.083 NA
ATOM     17  C   UNL     1      -1.774   0.272   1.058  0.00  0.00    +0.086 A 
ATOM     18  C   UNL     1      -3.084   0.673   0.745  0.00  0.00    +0.073 A 
ATOM     19  C   UNL     1      -3.729  -0.504   0.472  0.00  0.00    +0.163 A 
BRANCH  19  20
ATOM     20  C   UNL     1      -5.102  -0.844   0.079  0.00  0.00    +0.236 C 
BRANCH  20   3
ATOM      3  O   UNL     1      -5.150  -1.185  -1.309  0.00  0.00    -0.375 OA
ATOM     21  C   UNL     1      -6.470  -1.517  -1.710  0.00  0.00    +0.194 C 
ENDBRANCH  20   3
ENDBRANCH  19  20
ENDBRANCH  13  17
ENDBRANCH   6  13
TORSDOF 7
