REMARK  Name = 7161700
REMARK  6 active torsions:
REMARK  status: ('A' for Active; 'I' for Inactive)
REMARK    1  A    between atoms: N_6  and  C_14
REMARK    2  A    between atoms: N_7  and  C_18
REMARK    3  A    between atoms: C_14  and  C_16
REMARK    4  A    between atoms: C_14  and  C_17
REMARK    5  A    between atoms: C_18  and  C_19
REMARK    6  A    between atoms: C_18  and  C_20
REMARK                            x       y       z     vdW  Elec       q    Type
REMARK                         _______ _______ _______ _____ _____    ______ ____
ROOT
ATOM      1  O   UNL     1       1.644   2.487   0.150  0.00  0.00    -0.273 OA
ATOM      2  O   UNL     1       3.347  -1.794   0.037  0.00  0.00    -0.252 OA
ATOM      3  O   UNL     1      -3.532  -1.796  -0.052  0.00  0.00    -0.253 OA
ATOM      4  N   UNL     1       1.225  -0.932   0.521  0.00  0.00    -0.271 N 
ATOM      5  N   UNL     1      -1.464  -0.758  -0.215  0.00  0.00    -0.282 N 
ATOM      6  N   UNL     1       2.859   0.494   0.037  0.00  0.00    -0.222 N 
ATOM      7  N   UNL     1      -3.458   0.496  -0.000  0.00  0.00    -0.297 N 
ATOM      8  C   UNL     1       0.580   0.356   0.610  0.00  0.00    +0.181 C 
ATOM      9  C   UNL     1      -0.602   0.437  -0.349  0.00  0.00    +0.141 C 
ATOM     10  C   UNL     1       0.416  -2.127   0.655  0.00  0.00    +0.129 C 
ATOM     11  C   UNL     1      -0.757  -2.048  -0.317  0.00  0.00    +0.128 C 
ATOM     12  C   UNL     1       1.735   1.270   0.238  0.00  0.00    +0.245 C 
ATOM     13  C   UNL     1       2.577  -0.854   0.187  0.00  0.00    +0.312 C 
ATOM     15  C   UNL     1      -2.863  -0.757  -0.085  0.00  0.00    +0.303 C 
ATOM     21  H   UNL     1      -2.927   1.340  -0.155  0.00  0.00    +0.150 HD
ENDROOT
BRANCH   6  14
ATOM     14  C   UNL     1       4.156   1.032  -0.324  0.00  0.00    +0.080 C 
ATOM     16  C   UNL     1       4.594   0.494  -1.680  0.00  0.00    +0.028 C 
ATOM     17  C   UNL     1       5.185   0.715   0.754  0.00  0.00    +0.028 C 
ENDBRANCH   6  14
BRANCH   7  18
ATOM     18  C   UNL     1      -4.889   0.661   0.131  0.00  0.00    +0.068 C 
ATOM     19  C   UNL     1      -5.544   0.716  -1.243  0.00  0.00    +0.027 C 
ATOM     20  C   UNL     1      -5.211   1.908   0.946  0.00  0.00    +0.027 C 
ENDBRANCH   7  18
TORSDOF 2
