REMARK  Name = 11912971
REMARK  5 active torsions:
REMARK  status: ('A' for Active; 'I' for Inactive)
REMARK    1  A    between atoms: N_8  and  C_14
REMARK    2  A    between atoms: N_9  and  C_15
REMARK    3  A    between atoms: C_18  and  C_20
REMARK    4  A    between atoms: C_23  and  C_29
REMARK    5  A    between atoms: C_28  and  C_30
REMARK                            x       y       z     vdW  Elec       q    Type
REMARK                         _______ _______ _______ _____ _____    ______ ____
ROOT
ATOM      4  O   UNL     1       1.092   1.725   1.628  0.00  0.00    -0.370 OA
ATOM      5  O   UNL     1       1.274   3.943  -0.531  0.00  0.00    -0.370 OA
ATOM     12  C   UNL     1       0.521   2.720  -0.452  0.00  0.00    +0.171 C 
ATOM     13  C   UNL     1       1.406   1.691   0.225  0.00  0.00    +0.171 C 
ATOM     14  C   UNL     1      -0.648   2.883   0.494  0.00  0.00    +0.130 C 
ATOM     15  C   UNL     1       2.808   2.203  -0.008  0.00  0.00    +0.130 C 
ATOM     16  C   UNL     1       0.006   2.639   1.845  0.00  0.00    +0.185 C 
ATOM     17  C   UNL     1       2.609   3.707  -0.056  0.00  0.00    +0.185 C 
ENDROOT
BRANCH  15   9
ATOM      9  N   UNL     1       3.306   1.722  -1.278  0.00  0.00    -0.306 N 
ATOM     10  N   UNL     1       4.043  -0.303  -0.347  0.00  0.00    -0.211 NA
ATOM     11  N   UNL     1       4.335   0.160  -2.694  0.00  0.00    -0.223 NA
ATOM     19  C   UNL     1       3.913   0.489  -1.445  0.00  0.00    +0.216 A 
ATOM     23  C   UNL     1       4.638  -1.497  -0.546  0.00  0.00    +0.111 A 
ATOM     24  C   UNL     1       4.921  -1.049  -2.821  0.00  0.00    +0.116 A 
ATOM     25  C   UNL     1       5.101  -1.927  -1.773  0.00  0.00    +0.051 A 
ATOM     35  H   UNL     1       3.168   2.281  -2.112  0.00  0.00    +0.149 HD
BRANCH  23  29
ATOM      7  O   UNL     1       4.265  -1.764   1.770  0.00  0.00    -0.461 OA
ATOM     29  C   UNL     1       4.762  -2.312   0.632  0.00  0.00    +0.153 A 
ATOM     31  C   UNL     1       5.286  -3.558   0.879  0.00  0.00    +0.051 A 
ATOM     32  C   UNL     1       5.098  -3.793   2.262  0.00  0.00    +0.042 A 
ATOM     33  C   UNL     1       4.473  -2.673   2.759  0.00  0.00    +0.196 A 
ENDBRANCH  23  29
ENDBRANCH  15   9
BRANCH  14   8
ATOM      6  O   UNL     1      -3.459   3.029   1.120  0.00  0.00    -0.270 OA
ATOM      8  N   UNL     1      -1.659   1.858   0.243  0.00  0.00    -0.304 N 
ATOM     18  C   UNL     1      -2.994   2.026   0.584  0.00  0.00    +0.244 C 
ATOM     34  H   UNL     1      -1.326   0.960  -0.092  0.00  0.00    +0.149 HD
BRANCH  18  20
ATOM     20  C   UNL     1      -3.891   0.879   0.287  0.00  0.00    +0.037 A 
ATOM     21  C   UNL     1      -5.027   0.708   1.050  0.00  0.00    +0.013 A 
ATOM     22  C   UNL     1      -3.559   0.023  -0.742  0.00  0.00    +0.013 A 
ATOM     26  C   UNL     1      -5.869  -0.369   0.771  0.00  0.00    +0.013 A 
ATOM     27  C   UNL     1      -4.401  -1.053  -1.021  0.00  0.00    +0.013 A 
ATOM     28  C   UNL     1      -5.556  -1.249  -0.265  0.00  0.00    +0.055 A 
BRANCH  28  30
ATOM      1  F   UNL     1      -6.964  -2.384  -1.830  0.00  0.00    -0.166 F 
ATOM      2  F   UNL     1      -7.547  -2.469   0.257  0.00  0.00    -0.166 F 
ATOM      3  F   UNL     1      -5.827  -3.605  -0.436  0.00  0.00    -0.166 F 
ATOM     30  C   UNL     1      -6.456  -2.401  -0.562  0.00  0.00    +0.417 C 
ENDBRANCH  28  30
ENDBRANCH  18  20
ENDBRANCH  14   8
TORSDOF 5
