REMARK  Name = 51137599
REMARK  6 active torsions:
REMARK  status: ('A' for Active; 'I' for Inactive)
REMARK    1  A    between atoms: O_5  and  C_22
REMARK    2  A    between atoms: O_5  and  C_24
REMARK    3  A    between atoms: N_6  and  C_13
REMARK    4  A    between atoms: C_9  and  C_14
REMARK    5  A    between atoms: C_13  and  C_15
REMARK    6  A    between atoms: C_18  and  C_22
REMARK                            x       y       z     vdW  Elec       q    Type
REMARK                         _______ _______ _______ _____ _____    ______ ____
ROOT
ATOM      6  N   UNL     1      -2.646  -0.264   0.430  0.00  0.00    -0.297 NA
ATOM      9  C   UNL     1      -0.334  -0.026   0.115  0.00  0.00    +0.092 C 
ATOM     10  C   UNL     1      -1.377  -0.752   0.975  0.00  0.00    +0.097 C 
ATOM     11  C   UNL     1      -1.069   0.296  -1.198  0.00  0.00    +0.029 C 
ATOM     12  C   UNL     1      -2.466  -0.285  -1.021  0.00  0.00    +0.085 C 
ENDROOT
BRANCH   9  14
ATOM      2  O   UNL     1       2.088  -0.231   0.406  0.00  0.00    -0.421 OA
ATOM      7  N   UNL     1       1.135  -2.000  -0.578  0.00  0.00    -0.112 NA
ATOM      8  N   UNL     1       2.491  -2.247  -0.475  0.00  0.00    -0.109 NA
ATOM     14  C   UNL     1       0.945  -0.813  -0.051  0.00  0.00    +0.222 A 
ATOM     18  C   UNL     1       3.007  -1.189   0.104  0.00  0.00    +0.254 A 
BRANCH  18  22
ATOM     22  C   UNL     1       4.402  -0.906   0.464  0.00  0.00    +0.326 C 
BRANCH  22   5
ATOM      5  O   UNL     1       4.968   0.039  -0.448  0.00  0.00    -0.483 OA
BRANCH   5  24
ATOM      1  F   UNL     1      10.274   1.271   0.278  0.00  0.00    -0.205 F 
ATOM     24  C   UNL     1       6.287   0.346  -0.268  0.00  0.00    +0.121 A 
ATOM     25  C   UNL     1       7.008  -0.255   0.765  0.00  0.00    +0.048 A 
ATOM     26  C   UNL     1       6.914   1.259  -1.116  0.00  0.00    +0.048 A 
ATOM     27  C   UNL     1       8.354   0.058   0.949  0.00  0.00    +0.042 A 
ATOM     28  C   UNL     1       8.260   1.571  -0.932  0.00  0.00    +0.042 A 
ATOM     29  C   UNL     1       8.981   0.971   0.101  0.00  0.00    +0.124 A 
ENDBRANCH   5  24
ENDBRANCH  22   5
ENDBRANCH  18  22
ENDBRANCH   9  14
BRANCH   6  13
ATOM     13  C   UNL     1      -3.780  -1.069   0.860  0.00  0.00    +0.119 C 
BRANCH  13  15
ATOM      3  O   UNL     1      -8.047  -0.174  -1.483  0.00  0.00    -0.453 OA
ATOM      4  O   UNL     1      -8.671   1.561   0.068  0.00  0.00    -0.453 OA
ATOM     15  C   UNL     1      -5.085  -0.341   0.677  0.00  0.00    -0.030 A 
ATOM     16  C   UNL     1      -5.924  -0.679  -0.388  0.00  0.00    +0.054 A 
ATOM     17  C   UNL     1      -5.449   0.672   1.581  0.00  0.00    +0.009 A 
ATOM     19  C   UNL     1      -7.110   0.015  -0.513  0.00  0.00    +0.167 A 
ATOM     20  C   UNL     1      -6.657   1.358   1.432  0.00  0.00    +0.050 A 
ATOM     21  C   UNL     1      -7.467   1.006   0.372  0.00  0.00    +0.166 A 
ATOM     23  C   UNL     1      -9.033   0.809  -1.107  0.00  0.00    +0.466 C 
ENDBRANCH  13  15
ENDBRANCH   6  13
TORSDOF 6
