REMARK  Name = 75536172
REMARK  14 active torsions:
REMARK  status: ('A' for Active; 'I' for Inactive)
REMARK    1  A    between atoms: O_2  and  C_31
REMARK    2  A    between atoms: N_4  and  C_14
REMARK    3  A    between atoms: C_7  and  C_11
REMARK    4  A    between atoms: C_8  and  C_14
REMARK    5  A    between atoms: C_10  and  C_15
REMARK    6  A    between atoms: C_11  and  C_16
REMARK    7  A    between atoms: C_11  and  C_17
REMARK    8  A    between atoms: C_12  and  C_18
REMARK    9  A    between atoms: C_15  and  C_19
REMARK   10  A    between atoms: C_20  and  C_23
REMARK   11  A    between atoms: C_23  and  C_26
REMARK   12  A    between atoms: C_24  and  C_29
REMARK   13  A    between atoms: C_26  and  C_30
REMARK   14  A    between atoms: C_30  and  C_31
REMARK                            x       y       z     vdW  Elec       q    Type
REMARK                         _______ _______ _______ _____ _____    ______ ____
ROOT
ATOM      7  C   UNL     1      -1.712   1.225   1.177  0.00  0.00    +0.000 C 
ATOM      8  C   UNL     1      -2.789   2.111   0.504  0.00  0.00    +0.032 C 
ATOM      9  C   UNL     1      -0.321   1.857   1.016  0.00  0.00    +0.012 C 
ATOM     10  C   UNL     1       0.062   2.053  -0.463  0.00  0.00    +0.022 C 
ATOM     12  C   UNL     1      -1.063   2.683  -1.258  0.00  0.00    -0.073 C 
ATOM     13  C   UNL     1      -2.329   2.712  -0.803  0.00  0.00    -0.022 C 
ATOM     18  C   UNL     1      -0.693   3.321  -2.568  0.00  0.00    +0.039 C 
ENDROOT
BRANCH   7  11
ATOM     11  C   UNL     1      -2.009   0.998   2.663  0.00  0.00    -0.013 C 
ATOM     16  C   UNL     1      -1.540   2.192   3.488  0.00  0.00    +0.007 C 
ATOM     17  C   UNL     1      -1.346  -0.288   3.147  0.00  0.00    +0.007 C 
ENDBRANCH   7  11
BRANCH   8  14
ATOM     14  C   UNL     1      -4.087   1.328   0.277  0.00  0.00    +0.112 C 
BRANCH  14   4
ATOM      1  O   UNL     1      -5.478  -1.182   0.186  0.00  0.00    -0.276 OA
ATOM      4  N   UNL     1      -3.886   0.277  -0.671  0.00  0.00    -0.315 N 
ATOM     20  C   UNL     1      -4.610  -0.915  -0.641  0.00  0.00    +0.213 C 
ATOM     32  H   UNL     1      -3.274   0.446  -1.463  0.00  0.00    +0.149 HD
BRANCH  20  23
ATOM     23  C   UNL     1      -4.181  -1.873  -1.741  0.00  0.00    +0.096 C 
BRANCH  23  26
ATOM     26  C   UNL     1      -2.710  -2.277  -1.665  0.00  0.00    +0.020 C 
BRANCH  26  30
ATOM     30  C   UNL     1      -2.363  -2.968  -0.345  0.00  0.00    +0.121 C 
BRANCH  30  31
ATOM      3  O   UNL     1      -0.070  -3.135  -1.148  0.00  0.00    -0.251 OA
ATOM     31  C   UNL     1      -0.904  -3.357  -0.281  0.00  0.00    +0.305 C 
BRANCH  31   2
ATOM      2  O   UNL     1      -0.612  -3.996   0.882  0.00  0.00    -0.481 OA
ATOM     34  H   UNL     1       0.335  -4.248   0.933  0.00  0.00    +0.295 HD
ENDBRANCH  31   2
ENDBRANCH  30  31
ENDBRANCH  26  30
ENDBRANCH  23  26
ENDBRANCH  20  23
ENDBRANCH  14   4
ENDBRANCH   8  14
BRANCH  10  15
ATOM     15  C   UNL     1       0.509   0.731  -1.098  0.00  0.00    +0.082 C 
BRANCH  15  19
ATOM      5  N   UNL     1       2.122  -0.612   0.262  0.00  0.00    -0.342 N 
ATOM      6  N   UNL     1       3.023   0.885  -1.111  0.00  0.00    -0.232 NA
ATOM     19  C   UNL     1       1.901   0.360  -0.672  0.00  0.00    +0.109 A 
ATOM     21  C   UNL     1       3.478  -0.723   0.439  0.00  0.00    +0.066 A 
ATOM     22  C   UNL     1       4.017   0.223  -0.429  0.00  0.00    +0.092 A 
ATOM     24  C   UNL     1       5.413   0.372  -0.497  0.00  0.00    -0.023 A 
ATOM     25  C   UNL     1       4.254  -1.543   1.258  0.00  0.00    +0.028 A 
ATOM     27  C   UNL     1       6.212  -0.441   0.317  0.00  0.00    +0.005 A 
ATOM     28  C   UNL     1       5.641  -1.381   1.178  0.00  0.00    +0.002 A 
ATOM     29  C   UNL     1       6.071   1.362  -1.401  0.00  0.00    +0.046 C 
ATOM     33  H   UNL     1       1.415  -1.154   0.741  0.00  0.00    +0.167 HD
ENDBRANCH  15  19
ENDBRANCH  10  15
TORSDOF 10
