REMARK  Name = 11886479
REMARK  5 active torsions:
REMARK  status: ('A' for Active; 'I' for Inactive)
REMARK    1  A    between atoms: O_4  and  C_27
REMARK    2  A    between atoms: O_4  and  C_32
REMARK    3  A    between atoms: N_5  and  C_15
REMARK    4  A    between atoms: N_7  and  C_23
REMARK    5  A    between atoms: N_8  and  C_26
REMARK                            x       y       z     vdW  Elec       q    Type
REMARK                         _______ _______ _______ _____ _____    ______ ____
ROOT
ATOM      2  O   UNL     1       0.049  -1.832   1.888  0.00  0.00    -0.266 OA
ATOM      5  N   UNL     1       4.294   0.017  -0.032  0.00  0.00    -0.298 NA
ATOM      6  N   UNL     1       1.689  -1.808   0.225  0.00  0.00    -0.310 N 
ATOM      9  C   UNL     1       4.144  -2.381   0.682  0.00  0.00    +0.024 C 
ATOM     10  C   UNL     1       3.445  -1.752  -1.579  0.00  0.00    +0.050 C 
ATOM     11  C   UNL     1       4.155  -2.836  -0.771  0.00  0.00    +0.017 C 
ATOM     12  C   UNL     1       4.875  -1.029   0.819  0.00  0.00    +0.090 C 
ATOM     13  C   UNL     1       4.210  -0.416  -1.435  0.00  0.00    +0.094 C 
ATOM     14  C   UNL     1       2.691  -2.318   1.171  0.00  0.00    +0.130 C 
ATOM     16  C   UNL     1       2.007  -1.593  -1.120  0.00  0.00    +0.026 A 
ATOM     19  C   UNL     1       1.052  -1.232  -1.992  0.00  0.00    +0.024 A 
ATOM     20  C   UNL     1       0.379  -1.641   0.717  0.00  0.00    +0.273 A 
ATOM     23  C   UNL     1      -0.652  -1.214  -0.281  0.00  0.00    +0.100 A 
ATOM     24  C   UNL     1      -0.304  -1.037  -1.560  0.00  0.00    +0.030 A 
ENDROOT
BRANCH   5  15
ATOM      1  O   UNL     1       5.123   4.028   0.892  0.00  0.00    -0.380 OA
ATOM     15  C   UNL     1       5.044   1.265   0.086  0.00  0.00    +0.061 C 
ATOM     17  C   UNL     1       5.182   1.689   1.552  0.00  0.00    +0.047 C 
ATOM     18  C   UNL     1       4.362   2.375  -0.719  0.00  0.00    +0.047 C 
ATOM     21  C   UNL     1       5.849   3.057   1.647  0.00  0.00    +0.161 C 
ATOM     22  C   UNL     1       5.074   3.705  -0.498  0.00  0.00    +0.161 C 
ENDBRANCH   5  15
BRANCH  23   7
ATOM      3  O   UNL     1      -2.554   0.598  -1.372  0.00  0.00    -0.252 OA
ATOM      7  N   UNL     1      -1.930  -1.029   0.158  0.00  0.00    -0.265 N 
ATOM      8  N   UNL     1      -4.055  -0.169   0.261  0.00  0.00    -0.266 N 
ATOM     25  C   UNL     1      -2.831  -0.121  -0.414  0.00  0.00    +0.308 C 
ATOM     33  H   UNL     1      -2.154  -1.383   1.084  0.00  0.00    +0.157 HD
ATOM     34  H   UNL     1      -4.122  -0.821   1.038  0.00  0.00    +0.156 HD
BRANCH   8  26
ATOM     26  C   UNL     1      -5.222   0.586  -0.002  0.00  0.00    +0.077 A 
ATOM     27  C   UNL     1      -6.355   0.406   0.777  0.00  0.00    +0.141 A 
ATOM     28  C   UNL     1      -5.204   1.498  -1.046  0.00  0.00    +0.027 A 
ATOM     29  C   UNL     1      -7.498   1.158   0.505  0.00  0.00    +0.047 A 
ATOM     30  C   UNL     1      -6.348   2.250  -1.317  0.00  0.00    +0.002 A 
ATOM     31  C   UNL     1      -7.495   2.080  -0.542  0.00  0.00    +0.004 A 
BRANCH  27   4
ATOM      4  O   UNL     1      -6.379  -0.489   1.805  0.00  0.00    -0.493 OA
ATOM     32  C   UNL     1      -6.795  -1.817   1.496  0.00  0.00    +0.277 C 
ENDBRANCH  27   4
ENDBRANCH   8  26
ENDBRANCH  23   7
TORSDOF 4
