REMARK  Name = 45784169
REMARK  12 active torsions:
REMARK  status: ('A' for Active; 'I' for Inactive)
REMARK    1  A    between atoms: O_4  and  C_23
REMARK    2  A    between atoms: O_4  and  C_27
REMARK    3  A    between atoms: N_5  and  C_15
REMARK    4  A    between atoms: C_8  and  C_12
REMARK    5  A    between atoms: C_9  and  C_15
REMARK    6  A    between atoms: C_11  and  C_16
REMARK    7  A    between atoms: C_12  and  C_17
REMARK    8  A    between atoms: C_12  and  C_18
REMARK    9  A    between atoms: C_13  and  C_19
REMARK   10  A    between atoms: C_16  and  C_20
REMARK   11  A    between atoms: C_21  and  C_23
REMARK   12  A    between atoms: C_22  and  C_24
REMARK                            x       y       z     vdW  Elec       q    Type
REMARK                         _______ _______ _______ _____ _____    ______ ____
ROOT
ATOM      8  C   UNL     1       1.747   0.809  -1.268  0.00  0.00    +0.000 C 
ATOM      9  C   UNL     1       3.260   1.122  -1.162  0.00  0.00    +0.032 C 
ATOM     10  C   UNL     1       0.916   2.036  -0.860  0.00  0.00    +0.012 C 
ATOM     11  C   UNL     1       1.221   2.493   0.579  0.00  0.00    +0.024 C 
ATOM     13  C   UNL     1       2.711   2.567   0.843  0.00  0.00    -0.073 C 
ATOM     14  C   UNL     1       3.608   1.959   0.047  0.00  0.00    -0.022 C 
ATOM     19  C   UNL     1       3.150   3.394   2.019  0.00  0.00    +0.039 C 
ENDROOT
BRANCH   8  12
ATOM     12  C   UNL     1       1.355   0.365  -2.681  0.00  0.00    -0.013 C 
ATOM     17  C   UNL     1       0.087  -0.482  -2.640  0.00  0.00    +0.007 C 
ATOM     18  C   UNL     1       1.167   1.577  -3.587  0.00  0.00    +0.007 C 
ENDBRANCH   8  12
BRANCH   9  15
ATOM     15  C   UNL     1       4.091  -0.166  -1.148  0.00  0.00    +0.112 C 
BRANCH  15   5
ATOM      3  O   UNL     1       3.046  -2.859  -0.999  0.00  0.00    -0.273 OA
ATOM      5  N   UNL     1       3.829  -0.926   0.034  0.00  0.00    -0.313 N 
ATOM     21  C   UNL     1       3.322  -2.225   0.015  0.00  0.00    +0.239 C 
ATOM     31  H   UNL     1       4.075  -0.518   0.931  0.00  0.00    +0.149 HD
BRANCH  21  23
ATOM     23  C   UNL     1       3.143  -2.790   1.409  0.00  0.00    +0.255 C 
BRANCH  23   4
ATOM      4  O   UNL     1       2.642  -4.109   1.351  0.00  0.00    -0.374 OA
ATOM     27  C   UNL     1       2.463  -4.667   2.650  0.00  0.00    +0.194 C 
ENDBRANCH  23   4
ENDBRANCH  21  23
ENDBRANCH  15   5
ENDBRANCH   9  15
BRANCH  11  16
ATOM     16  C   UNL     1       0.526   1.590   1.604  0.00  0.00    +0.105 C 
BRANCH  16  20
ATOM      2  O   UNL     1      -1.449   0.413   0.784  0.00  0.00    -0.420 OA
ATOM      6  N   UNL     1      -1.879   2.428   1.656  0.00  0.00    -0.112 NA
ATOM      7  N   UNL     1      -3.077   1.880   1.236  0.00  0.00    -0.107 NA
ATOM     20  C   UNL     1      -0.957   1.538   1.373  0.00  0.00    +0.218 A 
ATOM     22  C   UNL     1      -2.777   0.705   0.733  0.00  0.00    +0.251 A 
BRANCH  22  24
ATOM      1  F   UNL     1      -5.551   1.040   0.503  0.00  0.00    -0.205 F 
ATOM     24  C   UNL     1      -3.618  -0.300   0.151  0.00  0.00    +0.074 A 
ATOM     25  C   UNL     1      -4.995  -0.095   0.056  0.00  0.00    +0.136 A 
ATOM     26  C   UNL     1      -3.056  -1.487  -0.320  0.00  0.00    +0.016 A 
ATOM     28  C   UNL     1      -5.809  -1.076  -0.511  0.00  0.00    +0.039 A 
ATOM     29  C   UNL     1      -3.870  -2.468  -0.886  0.00  0.00    +0.001 A 
ATOM     30  C   UNL     1      -5.246  -2.263  -0.982  0.00  0.00    +0.003 A 
ENDBRANCH  22  24
ENDBRANCH  16  20
ENDBRANCH  11  16
TORSDOF 8
