REMARK  Name = 51137103
REMARK  2 active torsions:
REMARK  status: ('A' for Active; 'I' for Inactive)
REMARK    1  A    between atoms: N_2  and  C_10
REMARK    2  A    between atoms: C_5  and  C_9
REMARK                            x       y       z     vdW  Elec       q    Type
REMARK                         _______ _______ _______ _____ _____    ______ ____
ROOT
ATOM      1  F   UNL     1       5.237  -0.449  -0.258  0.00  0.00    -0.205 F 
ATOM      3  N   UNL     1       0.443  -1.325  -0.094  0.00  0.00    -0.341 N 
ATOM      4  N   UNL     1      -0.085   0.810   0.223  0.00  0.00    -0.232 NA
ATOM      9  C   UNL     1      -0.556  -0.409   0.087  0.00  0.00    +0.113 A 
ATOM     11  C   UNL     1       1.637  -0.652  -0.074  0.00  0.00    +0.069 A 
ATOM     12  C   UNL     1       1.281   0.679   0.125  0.00  0.00    +0.089 A 
ATOM     13  C   UNL     1       2.958  -1.080  -0.209  0.00  0.00    +0.066 A 
ATOM     14  C   UNL     1       2.290   1.655   0.197  0.00  0.00    +0.032 A 
ATOM     15  C   UNL     1       3.949  -0.096  -0.135  0.00  0.00    +0.125 A 
ATOM     16  C   UNL     1       3.623   1.248   0.065  0.00  0.00    +0.040 A 
ATOM     17  H   UNL     1       0.326  -2.322  -0.221  0.00  0.00    +0.167 HD
ENDROOT
BRANCH   9   5
ATOM      2  N   UNL     1      -4.175  -0.079  -0.379  0.00  0.00    -0.305 NA
ATOM      5  C   UNL     1      -2.008  -0.826   0.116  0.00  0.00    +0.070 C 
ATOM      6  C   UNL     1      -2.750  -0.496   1.423  0.00  0.00    +0.028 C 
ATOM      7  C   UNL     1      -2.844  -0.159  -0.984  0.00  0.00    +0.095 C 
ATOM      8  C   UNL     1      -3.938   0.357   0.997  0.00  0.00    +0.085 C 
ATOM     10  C   UNL     1      -5.061   0.822  -1.101  0.00  0.00    +0.104 C 
ENDBRANCH   9   5
TORSDOF 1
