REMARK  Name = 7135225
REMARK  15 active torsions:
REMARK  status: ('A' for Active; 'I' for Inactive)
REMARK    1  A    between atoms: O_3  and  C_16
REMARK    2  A    between atoms: O_4  and  C_21
REMARK    3  A    between atoms: O_6  and  C_29
REMARK    4  A    between atoms: N_9  and  CA_27
REMARK    5  A    between atoms: C_11  and  C_19
REMARK    6  A    between atoms: C_13  and  C_21
REMARK    7  A    between atoms: C_13  and  C_22
REMARK    8  A    between atoms: C_14  and  C_24
REMARK    9  A    between atoms: C_24  and  C_25
REMARK   10  A    between atoms: CA_27  and  CB_28
REMARK   11  A    between atoms: CA_27  and  C_29
REMARK   12  A    between atoms: CB_28  and  CG_31
REMARK   13  A    between atoms: C_30  and  C_32
REMARK   14  A    between atoms: CG_31  and  CD1_33
REMARK   15  A    between atoms: CG_31  and  CD2_34
REMARK                            x       y       z     vdW  Elec       q    Type
REMARK                         _______ _______ _______ _____ _____    ______ ____
ROOT
ATOM      1  S   UNL     1      -0.203   2.811  -0.655  0.00  0.00    -0.057 S 
ATOM      7  O   UNL     1       3.187   0.000   0.856  0.00  0.00    -0.270 OA
ATOM      8  N   UNL     1       0.307   0.509   0.409  0.00  0.00    -0.229 NA
ATOM     10  N   UNL     1       2.196   1.926  -0.074  0.00  0.00    -0.261 N 
ATOM     11  C   UNL     1      -3.494  -0.013   0.788  0.00  0.00    -0.019 C 
ATOM     12  C   UNL     1      -3.822   0.852  -0.508  0.00  0.00    +0.011 C 
ATOM     13  C   UNL     1      -5.344   1.115  -0.827  0.00  0.00    +0.021 C 
ATOM     14  C   UNL     1      -1.982  -0.517   0.675  0.00  0.00    +0.054 C 
ATOM     15  C   UNL     1      -4.421  -1.256   0.827  0.00  0.00    +0.010 C 
ATOM     16  C   UNL     1      -6.132  -0.219  -0.699  0.00  0.00    +0.123 C 
ATOM     17  C   UNL     1      -2.936   2.130  -0.577  0.00  0.00    +0.049 C 
ATOM     18  C   UNL     1      -5.895  -0.931   0.628  0.00  0.00    +0.032 C 
ATOM     19  C   UNL     1      -3.675   0.783   2.104  0.00  0.00    +0.012 C 
ATOM     20  C   UNL     1      -1.065   0.608   0.270  0.00  0.00    +0.058 A 
ATOM     22  C   UNL     1      -5.478   1.591  -2.302  0.00  0.00    +0.016 C 
ATOM     23  C   UNL     1      -1.512   1.779  -0.307  0.00  0.00    +0.015 A 
ATOM     26  C   UNL     1       0.863   1.614  -0.038  0.00  0.00    +0.165 A 
ATOM     30  C   UNL     1       3.260   1.121   0.365  0.00  0.00    +0.250 C 
ATOM     43  H   UNL     1       2.388   2.822  -0.510  0.00  0.00    +0.157 HD
ENDROOT
BRANCH  30  32
ATOM      2  F   UNL     1       8.022   0.584  -0.284  0.00  0.00    -0.205 F 
ATOM     32  C   UNL     1       4.617   1.701   0.177  0.00  0.00    +0.040 A 
ATOM     35  C   UNL     1       5.690   0.847   0.034  0.00  0.00    +0.051 A 
ATOM     36  C   UNL     1       4.756   3.072   0.153  0.00  0.00    +0.013 A 
ATOM     37  C   UNL     1       6.962   1.391  -0.143  0.00  0.00    +0.124 A 
ATOM     38  C   UNL     1       6.028   3.616  -0.024  0.00  0.00    +0.004 A 
ATOM     39  C   UNL     1       7.131   2.775  -0.172  0.00  0.00    +0.038 A 
ENDBRANCH  30  32
BRANCH  16   3
ATOM      3  O   UNL     1      -7.533   0.008  -0.855  0.00  0.00    -0.391 OA
ATOM     40  H   UNL     1      -7.711   0.149  -1.799  0.00  0.00    +0.210 HD
ENDBRANCH  16   3
BRANCH  13  21
ATOM     21  C   UNL     1      -5.995   2.225   0.028  0.00  0.00    +0.165 C 
BRANCH  21   4
ATOM      4  O   UNL     1      -7.340   2.349  -0.378  0.00  0.00    -0.394 OA
ATOM     41  H   UNL     1      -7.374   2.976  -1.120  0.00  0.00    +0.209 HD
ENDBRANCH  21   4
ENDBRANCH  13  21
BRANCH  14  24
ATOM     24  C   UNL     1      -1.459  -1.248   1.919  0.00  0.00    +0.106 C 
BRANCH  24  25
ATOM      5  O   UNL     1       0.906  -1.520   2.352  0.00  0.00    -0.276 OA
ATOM      9  N   UNL     1      -0.100  -2.756   0.660  0.00  0.00    -0.310 N 
ATOM     25  C   ACE A   0      -0.083  -1.833   1.696  0.00  0.00    +0.214 C 
ATOM     42  H   UNL     1      -0.973  -2.949   0.183  0.00  0.00    +0.149 HD
BRANCH   9  27
ATOM     27  CA  UNL     1       1.076  -3.473   0.223  0.00  0.00    +0.098 C 
BRANCH  27  28
ATOM     28  CB  UNL     1       1.818  -2.696  -0.879  0.00  0.00    +0.027 C 
BRANCH  28  31
ATOM     31  CG  UNL     1       3.165  -3.309  -1.317  0.00  0.00    -0.015 C 
ATOM     33  CD1 UNL     1       3.855  -2.490  -2.409  0.00  0.00    +0.007 C 
ATOM     34  CD2 UNL     1       4.093  -3.433  -0.105  0.00  0.00    +0.007 C 
ENDBRANCH  28  31
ENDBRANCH  27  28
BRANCH  27  29
ATOM     29  C   UNL     1       0.690  -4.884  -0.234  0.00  0.00    +0.178 C 
BRANCH  29   6
ATOM      6  O   UNL     1      -0.157  -4.830  -1.375  0.00  0.00    -0.393 OA
ATOM     44  H   UNL     1      -1.004  -4.442  -1.100  0.00  0.00    +0.209 HD
ENDBRANCH  29   6
ENDBRANCH  27  29
ENDBRANCH   9  27
ENDBRANCH  24  25
ENDBRANCH  14  24
TORSDOF 11
