REMARK  Name = 75536520
REMARK  11 active torsions:
REMARK  status: ('A' for Active; 'I' for Inactive)
REMARK    1  A    between atoms: O_3  and  C_8
REMARK    2  A    between atoms: N_5  and  C_7
REMARK    3  A    between atoms: N_5  and  C_13
REMARK    4  A    between atoms: N_6  and  C_11
REMARK    5  A    between atoms: C_9  and  C_11
REMARK    6  A    between atoms: C_12  and  C_14
REMARK    7  A    between atoms: C_12  and  C_16
REMARK    8  A    between atoms: C_12  and  C_17
REMARK    9  A    between atoms: C_12  and  C_18
REMARK   10  A    between atoms: C_13  and  C_19
REMARK   11  A    between atoms: C_14  and  C_15
REMARK                            x       y       z     vdW  Elec       q    Type
REMARK                         _______ _______ _______ _____ _____    ______ ____
ROOT
ATOM      2  O   UNL     1       1.502   0.178   0.038  0.00  0.00    -0.371 OA
ATOM      7  C   UNL     1      -0.682  -0.617   0.527  0.00  0.00    +0.111 C 
ATOM      8  C   UNL     1       0.113  -1.729  -0.133  0.00  0.00    +0.164 C 
ATOM      9  C   UNL     1       1.539  -1.257   0.116  0.00  0.00    +0.165 C 
ATOM     10  C   UNL     1       0.133   0.606   0.139  0.00  0.00    +0.181 C 
ENDROOT
BRANCH   8   3
ATOM      3  O   UNL     1      -0.132  -2.995   0.448  0.00  0.00    -0.388 OA
ATOM     27  H   UNL     1       0.060  -2.937   1.399  0.00  0.00    +0.210 HD
ENDBRANCH   8   3
BRANCH   7   5
ATOM      5  N   UNL     1      -2.063  -0.543   0.079  0.00  0.00    -0.305 NA
ATOM     25  H   UNL     1      -2.460  -1.482   0.068  0.00  0.00    +0.123 HD
BRANCH   5  13
ATOM     13  C   UNL     1      -2.858   0.297   0.966  0.00  0.00    +0.116 C 
BRANCH  13  19
ATOM      1  F   UNL     1      -8.212   0.681  -0.749  0.00  0.00    -0.205 F 
ATOM     19  C   UNL     1      -4.289   0.399   0.508  0.00  0.00    -0.033 A 
ATOM     20  C   UNL     1      -4.669   1.416  -0.368  0.00  0.00    +0.008 A 
ATOM     21  C   UNL     1      -5.234  -0.522   0.960  0.00  0.00    +0.008 A 
ATOM     22  C   UNL     1      -5.994   1.511  -0.792  0.00  0.00    +0.038 A 
ATOM     23  C   UNL     1      -6.559  -0.427   0.535  0.00  0.00    +0.038 A 
ATOM     24  C   UNL     1      -6.939   0.590  -0.341  0.00  0.00    +0.123 A 
ENDBRANCH  13  19
ENDBRANCH   5  13
ENDBRANCH   7   5
BRANCH   9  11
ATOM     11  C   UNL     1       2.536  -1.800  -0.892  0.00  0.00    +0.138 C 
BRANCH  11   6
ATOM      4  O   UNL     1       3.788   0.602  -1.917  0.00  0.00    -0.276 OA
ATOM      6  N   UNL     1       3.874  -1.325  -0.622  0.00  0.00    -0.313 N 
ATOM     15  C   UNL     1       4.389  -0.159  -1.160  0.00  0.00    +0.214 C 
ATOM     26  H   UNL     1       4.451  -1.881   0.004  0.00  0.00    +0.149 HD
BRANCH  15  14
ATOM     14  C   UNL     1       5.820   0.115  -0.729  0.00  0.00    +0.102 C 
BRANCH  14  12
ATOM     12  C   UNL     1       5.957   1.001   0.532  0.00  0.00    -0.029 C 
ATOM     16  C   UNL     1       5.240   0.376   1.740  0.00  0.00    +0.011 C 
ATOM     17  C   UNL     1       7.435   1.237   0.886  0.00  0.00    +0.011 C 
ATOM     18  C   UNL     1       5.305   2.365   0.231  0.00  0.00    +0.011 C 
ENDBRANCH  14  12
ENDBRANCH  15  14
ENDBRANCH  11   6
ENDBRANCH   9  11
TORSDOF 8
