REMARK  Name = 75368468
REMARK  5 active torsions:
REMARK  status: ('A' for Active; 'I' for Inactive)
REMARK    1  A    between atoms: O_4  and  C_23
REMARK    2  A    between atoms: O_4  and  C_29
REMARK    3  A    between atoms: N_6  and  C_15
REMARK    4  A    between atoms: N_8  and  C_20
REMARK    5  A    between atoms: C_15  and  C_17
REMARK                            x       y       z     vdW  Elec       q    Type
REMARK                         _______ _______ _______ _____ _____    ______ ____
ROOT
ATOM      2  O   UNL     1      -2.917  -3.194   0.176  0.00  0.00    -0.252 OA
ATOM      3  O   UNL     1       3.779  -1.886   1.279  0.00  0.00    -0.252 OA
ATOM      5  N   UNL     1      -0.797  -2.216  -0.086  0.00  0.00    -0.278 N 
ATOM      6  N   UNL     1      -2.525  -1.335  -1.220  0.00  0.00    -0.279 N 
ATOM      7  N   UNL     1       1.671  -1.175   0.656  0.00  0.00    -0.282 N 
ATOM      8  N   UNL     1       3.591  -0.214  -0.318  0.00  0.00    -0.269 N 
ATOM      9  C   UNL     1      -0.201  -1.188  -0.924  0.00  0.00    +0.112 C 
ATOM     10  C   UNL     1      -1.405  -0.459  -1.514  0.00  0.00    +0.133 C 
ATOM     11  C   UNL     1       0.734  -0.314  -0.094  0.00  0.00    +0.133 C 
ATOM     12  C   UNL     1       0.045  -3.024   0.780  0.00  0.00    +0.128 C 
ATOM     13  C   UNL     1       1.009  -2.130   1.560  0.00  0.00    +0.128 C 
ATOM     14  C   UNL     1      -2.172  -2.357  -0.317  0.00  0.00    +0.306 C 
ATOM     16  C   UNL     1       3.079  -1.137   0.593  0.00  0.00    +0.307 C 
ATOM     30  H   UNL     1       3.029   0.017  -1.131  0.00  0.00    +0.156 HD
ENDROOT
BRANCH   8  20
ATOM      1  F   UNL     1       8.405   2.520   0.009  0.00  0.00    -0.205 F 
ATOM     20  C   UNL     1       4.821   0.485  -0.235  0.00  0.00    +0.035 A 
ATOM     24  C   UNL     1       5.184   1.380  -1.241  0.00  0.00    +0.026 A 
ATOM     25  C   UNL     1       5.668   0.277   0.853  0.00  0.00    +0.026 A 
ATOM     26  C   UNL     1       6.395   2.067  -1.159  0.00  0.00    +0.040 A 
ATOM     27  C   UNL     1       6.880   0.964   0.935  0.00  0.00    +0.040 A 
ATOM     28  C   UNL     1       7.243   1.859  -0.071  0.00  0.00    +0.124 A 
ENDBRANCH   8  20
BRANCH   6  15
ATOM     15  C   UNL     1      -3.859  -1.062  -1.708  0.00  0.00    +0.144 C 
BRANCH  15  17
ATOM     17  C   UNL     1      -4.573  -0.051  -0.858  0.00  0.00    -0.030 A 
ATOM     18  C   UNL     1      -4.727   1.258  -1.313  0.00  0.00    +0.009 A 
ATOM     19  C   UNL     1      -5.083  -0.421   0.387  0.00  0.00    +0.009 A 
ATOM     21  C   UNL     1      -5.390   2.198  -0.523  0.00  0.00    +0.046 A 
ATOM     22  C   UNL     1      -5.746   0.518   1.176  0.00  0.00    +0.046 A 
ATOM     23  C   UNL     1      -5.899   1.827   0.721  0.00  0.00    +0.120 A 
BRANCH  23   4
ATOM      4  O   UNL     1      -6.546   2.744   1.492  0.00  0.00    -0.495 OA
ATOM     29  C   UNL     1      -6.667   4.065   0.965  0.00  0.00    +0.277 C 
ENDBRANCH  23   4
ENDBRANCH  15  17
ENDBRANCH   6  15
TORSDOF 4
