REMARK  Name = 75536069
REMARK  7 active torsions:
REMARK  status: ('A' for Active; 'I' for Inactive)
REMARK    1  A    between atoms: O_1  and  C_9
REMARK    2  A    between atoms: O_2  and  C_11
REMARK    3  A    between atoms: O_4  and  C_21
REMARK    4  A    between atoms: O_4  and  C_24
REMARK    5  A    between atoms: N_5  and  C_8
REMARK    6  A    between atoms: C_7  and  C_12
REMARK    7  A    between atoms: C_15  and  C_17
REMARK                            x       y       z     vdW  Elec       q    Type
REMARK                         _______ _______ _______ _____ _____    ______ ____
ROOT
ATOM      7  C   UNL     1       2.321   0.403   0.882  0.00  0.00    +0.046 C 
ATOM      8  C   UNL     1       1.433   1.200  -0.099  0.00  0.00    +0.112 C 
ATOM      9  C   UNL     1       1.950   2.632   0.036  0.00  0.00    +0.164 C 
ATOM     10  C   UNL     1       3.615   1.239   1.056  0.00  0.00    +0.044 C 
ATOM     11  C   UNL     1       3.459   2.447   0.135  0.00  0.00    +0.145 C 
ENDROOT
BRANCH   7  12
ATOM      6  N   UNL     1       2.349  -3.391   0.898  0.00  0.00    -0.263 NA
ATOM     12  C   UNL     1       2.557  -1.026   0.440  0.00  0.00    -0.024 A 
ATOM     13  C   UNL     1       3.172  -1.308  -0.775  0.00  0.00    +0.007 A 
ATOM     14  C   UNL     1       2.167  -2.094   1.233  0.00  0.00    +0.114 A 
ATOM     16  C   UNL     1       3.376  -2.631  -1.154  0.00  0.00    +0.020 A 
ATOM     18  C   UNL     1       2.950  -3.626  -0.289  0.00  0.00    +0.111 A 
ENDBRANCH   7  12
BRANCH   8   5
ATOM      3  O   UNL     1      -0.448  -0.696  -1.153  0.00  0.00    -0.270 OA
ATOM      5  N   UNL     1       0.035   1.099   0.233  0.00  0.00    -0.305 N 
ATOM     15  C   UNL     1      -0.801   0.145  -0.331  0.00  0.00    +0.244 C 
ATOM     25  H   UNL     1      -0.331   1.780   0.890  0.00  0.00    +0.149 HD
BRANCH  15  17
ATOM     17  C   UNL     1      -2.223   0.190   0.096  0.00  0.00    +0.040 A 
ATOM     19  C   UNL     1      -3.222  -0.286  -0.753  0.00  0.00    +0.058 A 
ATOM     20  C   UNL     1      -2.559   0.707   1.347  0.00  0.00    +0.013 A 
ATOM     21  C   UNL     1      -4.557  -0.244  -0.352  0.00  0.00    +0.121 A 
ATOM     22  C   UNL     1      -3.894   0.750   1.748  0.00  0.00    +0.004 A 
ATOM     23  C   UNL     1      -4.893   0.274   0.899  0.00  0.00    +0.045 A 
BRANCH  21   4
ATOM      4  O   UNL     1      -5.532  -0.708  -1.180  0.00  0.00    -0.495 OA
ATOM     24  C   UNL     1      -6.876  -0.635  -0.706  0.00  0.00    +0.277 C 
ENDBRANCH  21   4
ENDBRANCH  15  17
ENDBRANCH   8   5
BRANCH   9   1
ATOM      1  O   UNL     1       1.605   3.435  -1.077  0.00  0.00    -0.387 OA
ATOM     26  H   UNL     1       2.045   4.295  -0.964  0.00  0.00    +0.210 HD
ENDBRANCH   9   1
BRANCH  11   2
ATOM      2  O   UNL     1       4.018   2.126  -1.136  0.00  0.00    -0.389 OA
ATOM     27  H   UNL     1       4.971   1.981  -1.008  0.00  0.00    +0.210 HD
ENDBRANCH  11   2
TORSDOF 6
