REMARK  Name = 7113396
REMARK  9 active torsions:
REMARK  status: ('A' for Active; 'I' for Inactive)
REMARK    1  A    between atoms: O_6  and  C_23
REMARK    2  A    between atoms: O_6  and  C_36
REMARK    3  A    between atoms: N_10  and  C_19
REMARK    4  A    between atoms: C_12  and  C_16
REMARK    5  A    between atoms: C_17  and  C_21
REMARK    6  A    between atoms: C_18  and  C_22
REMARK    7  A    between atoms: C_19  and  C_20
REMARK    8  A    between atoms: C_19  and  C_23
REMARK    9  A    between atoms: C_20  and  C_24
REMARK                            x       y       z     vdW  Elec       q    Type
REMARK                         _______ _______ _______ _____ _____    ______ ____
ROOT
ATOM      4  O   UNL     1      -3.899   2.536   1.442  0.00  0.00    -0.269 OA
ATOM      5  O   UNL     1       2.730   4.100   1.249  0.00  0.00    -0.270 OA
ATOM      8  N   UNL     1      -1.796   2.388   0.469  0.00  0.00    -0.283 N 
ATOM      9  N   UNL     1       0.927   3.138   0.113  0.00  0.00    -0.294 N 
ATOM     12  C   UNL     1      -0.857   1.429  -0.144  0.00  0.00    +0.179 C 
ATOM     13  C   UNL     1       0.367   2.104  -0.766  0.00  0.00    +0.140 C 
ATOM     14  C   UNL     1      -1.196   3.446   1.293  0.00  0.00    +0.128 C 
ATOM     15  C   UNL     1      -0.041   4.128   0.575  0.00  0.00    +0.127 C 
ATOM     17  C   UNL     1      -3.201   2.246   0.469  0.00  0.00    +0.254 C 
ATOM     18  C   UNL     1       2.261   3.232   0.515  0.00  0.00    +0.247 C 
ENDROOT
BRANCH  18  22
ATOM      2  F   UNL     1       4.498  -1.037   0.993  0.00  0.00    -0.205 F 
ATOM     22  C   UNL     1       3.203   2.218   0.025  0.00  0.00    +0.040 A 
ATOM     26  C   UNL     1       3.406   1.051   0.757  0.00  0.00    +0.051 A 
ATOM     27  C   UNL     1       3.888   2.428  -1.169  0.00  0.00    +0.013 A 
ATOM     31  C   UNL     1       4.300   0.087   0.292  0.00  0.00    +0.124 A 
ATOM     32  C   UNL     1       4.782   1.464  -1.634  0.00  0.00    +0.004 A 
ATOM     34  C   UNL     1       4.988   0.293  -0.904  0.00  0.00    +0.038 A 
ENDBRANCH  18  22
BRANCH  17  21
ATOM      1  S   UNL     1      -5.265   0.830  -0.619  0.00  0.00    -0.092 S 
ATOM     21  C   UNL     1      -3.818   1.730  -0.746  0.00  0.00    +0.074 A 
ATOM     25  C   UNL     1      -3.396   1.864  -2.046  0.00  0.00    +0.021 A 
ATOM     28  C   UNL     1      -4.276   1.214  -2.958  0.00  0.00    +0.008 A 
ATOM     29  C   UNL     1      -5.335   0.611  -2.316  0.00  0.00    +0.046 A 
ENDBRANCH  17  21
BRANCH  12  16
ATOM      3  O   UNL     1       0.130   0.842   1.952  0.00  0.00    -0.274 OA
ATOM     10  N   UNL     1      -0.821  -0.834   0.646  0.00  0.00    -0.301 N 
ATOM     16  C   UNL     1      -0.462   0.470   0.942  0.00  0.00    +0.236 C 
ATOM     38  H   UNL     1      -1.296  -1.039  -0.228  0.00  0.00    +0.150 HD
BRANCH  10  19
ATOM     19  C   UNL     1      -0.533  -1.950   1.517  0.00  0.00    +0.186 C 
BRANCH  19  23
ATOM      7  O   UNL     1      -2.593  -2.933   0.722  0.00  0.00    -0.249 OA
ATOM     23  C   UNL     1      -1.637  -2.999   1.488  0.00  0.00    +0.328 C 
BRANCH  23   6
ATOM      6  O   UNL     1      -1.437  -3.982   2.411  0.00  0.00    -0.467 OA
ATOM     36  C   UNL     1      -2.442  -5.000   2.462  0.00  0.00    +0.280 C 
ENDBRANCH  23   6
ENDBRANCH  19  23
BRANCH  19  20
ATOM     20  C   UNL     1       0.847  -2.560   1.229  0.00  0.00    +0.070 C 
BRANCH  20  24
ATOM     11  N   UNL     1       0.793  -5.112  -1.544  0.00  0.00    -0.263 NA
ATOM     24  C   UNL     1       0.991  -3.176  -0.144  0.00  0.00    -0.027 A 
ATOM     30  C   UNL     1       1.430  -2.412  -1.203  0.00  0.00    +0.006 A 
ATOM     33  C   UNL     1       0.685  -4.500  -0.343  0.00  0.00    +0.114 A 
ATOM     35  C   UNL     1       1.554  -3.006  -2.454  0.00  0.00    +0.020 A 
ATOM     37  C   UNL     1       1.226  -4.347  -2.571  0.00  0.00    +0.111 A 
ENDBRANCH  20  24
ENDBRANCH  19  20
ENDBRANCH  10  19
ENDBRANCH  12  16
TORSDOF 8
