REMARK  Name = 11939955
REMARK  11 active torsions:
REMARK  status: ('A' for Active; 'I' for Inactive)
REMARK    1  A    between atoms: O_4  and  C_29
REMARK    2  A    between atoms: O_4  and  C_37
REMARK    3  A    between atoms: O_5  and  C_30
REMARK    4  A    between atoms: O_5  and  C_38
REMARK    5  A    between atoms: N_6  and  C_14
REMARK    6  A    between atoms: N_7  and  C_15
REMARK    7  A    between atoms: N_8  and  C_21
REMARK    8  A    between atoms: N_11  and  C_34
REMARK    9  A    between atoms: N_11  and  C_35
REMARK   10  A    between atoms: N_11  and  C_36
REMARK   11  A    between atoms: C_20  and  C_24
REMARK                            x       y       z     vdW  Elec       q    Type
REMARK                         _______ _______ _______ _____ _____    ______ ____
ROOT
ATOM      1  O   UNL     1       0.260  -3.873   1.130  0.00  0.00    -0.370 OA
ATOM      2  O   UNL     1      -0.932  -1.197   2.205  0.00  0.00    -0.370 OA
ATOM     12  C   UNL     1      -0.790  -1.752   0.886  0.00  0.00    +0.171 C 
ATOM     13  C   UNL     1       0.534  -2.491   0.849  0.00  0.00    +0.171 C 
ATOM     14  C   UNL     1      -1.822  -2.830   0.657  0.00  0.00    +0.130 C 
ATOM     15  C   UNL     1       1.331  -1.874   1.976  0.00  0.00    +0.131 C 
ATOM     16  C   UNL     1      -1.158  -4.058   1.255  0.00  0.00    +0.185 C 
ATOM     17  C   UNL     1       0.248  -1.489   2.968  0.00  0.00    +0.185 C 
ENDROOT
BRANCH  14   6
ATOM      6  N   UNL     1      -2.036  -3.018  -0.761  0.00  0.00    -0.306 N 
ATOM      9  N   UNL     1      -3.594  -1.298  -0.848  0.00  0.00    -0.214 NA
ATOM     10  N   UNL     1      -3.003  -2.551  -2.820  0.00  0.00    -0.223 NA
ATOM     18  C   UNL     1      -2.916  -2.255  -1.509  0.00  0.00    +0.216 A 
ATOM     20  C   UNL     1      -4.442  -0.574  -1.608  0.00  0.00    +0.076 A 
ATOM     22  C   UNL     1      -3.870  -1.788  -3.519  0.00  0.00    +0.116 A 
ATOM     23  C   UNL     1      -4.623  -0.776  -2.961  0.00  0.00    +0.048 A 
ATOM     39  H   UNL     1      -1.485  -3.705  -1.262  0.00  0.00    +0.149 HD
BRANCH  20  24
ATOM     24  C   UNL     1      -5.170   0.454  -0.903  0.00  0.00    +0.001 A 
ATOM     27  C   UNL     1      -4.480   1.478  -0.255  0.00  0.00    +0.012 A 
ATOM     28  C   UNL     1      -6.565   0.425  -0.872  0.00  0.00    +0.012 A 
ATOM     32  C   UNL     1      -5.183   2.472   0.425  0.00  0.00    +0.024 A 
ATOM     33  C   UNL     1      -7.268   1.420  -0.193  0.00  0.00    +0.024 A 
ATOM     34  C   UNL     1      -6.577   2.443   0.455  0.00  0.00    +0.029 A 
BRANCH  34  11
ATOM     11  N   UNL     1      -7.289   3.448   1.143  0.00  0.00    -0.336 N 
ATOM     35  C   UNL     1      -6.581   4.509   1.832  0.00  0.00    +0.129 C 
ATOM     36  C   UNL     1      -8.738   3.426   1.181  0.00  0.00    +0.129 C 
ENDBRANCH  34  11
ENDBRANCH  20  24
ENDBRANCH  14   6
BRANCH  15   7
ATOM      3  O   UNL     1       4.053  -1.805   1.087  0.00  0.00    -0.252 OA
ATOM      7  N   UNL     1       2.062  -0.715   1.524  0.00  0.00    -0.292 N 
ATOM      8  N   UNL     1       3.837   0.505   0.725  0.00  0.00    -0.269 N 
ATOM     19  C   UNL     1       3.397  -0.766   1.104  0.00  0.00    +0.304 C 
ATOM     40  H   UNL     1       1.567   0.169   1.445  0.00  0.00    +0.151 HD
ATOM     41  H   UNL     1       3.164   1.263   0.802  0.00  0.00    +0.156 HD
BRANCH   8  21
ATOM     21  C   UNL     1       5.116   0.873   0.245  0.00  0.00    +0.042 A 
ATOM     25  C   UNL     1       6.112  -0.093   0.102  0.00  0.00    +0.069 A 
ATOM     26  C   UNL     1       5.380   2.202  -0.087  0.00  0.00    +0.069 A 
ATOM     29  C   UNL     1       6.640   2.564  -0.562  0.00  0.00    +0.125 A 
ATOM     30  C   UNL     1       7.372   0.270  -0.373  0.00  0.00    +0.125 A 
ATOM     31  C   UNL     1       7.636   1.598  -0.705  0.00  0.00    +0.091 A 
BRANCH  29   4
ATOM      4  O   UNL     1       6.899   3.861  -0.888  0.00  0.00    -0.495 OA
ATOM     37  C   UNL     1       8.208   4.161  -1.367  0.00  0.00    +0.277 C 
ENDBRANCH  29   4
BRANCH  30   5
ATOM      5  O   UNL     1       8.344  -0.673  -0.514  0.00  0.00    -0.495 OA
ATOM     38  C   UNL     1       9.609  -0.233  -1.004  0.00  0.00    +0.277 C 
ENDBRANCH  30   5
ENDBRANCH   8  21
ENDBRANCH  15   7
TORSDOF 7
