REMARK  Name = 11866103
REMARK  13 active torsions:
REMARK  status: ('A' for Active; 'I' for Inactive)
REMARK    1  A    between atoms: O_1  and  C_11
REMARK    2  A    between atoms: O_2  and  C_12
REMARK    3  A    between atoms: N_6  and  C_10
REMARK    4  A    between atoms: N_7  and  C_16
REMARK    5  A    between atoms: N_7  and  C_23
REMARK    6  A    between atoms: N_8  and  C_22
REMARK    7  A    between atoms: C_15  and  C_19
REMARK    8  A    between atoms: C_16  and  C_17
REMARK    9  A    between atoms: C_16  and  C_18
REMARK   10  A    between atoms: C_17  and  C_20
REMARK   11  A    between atoms: C_17  and  C_21
REMARK   12  A    between atoms: C_22  and  C_24
REMARK   13  A    between atoms: C_22  and  C_25
REMARK                            x       y       z     vdW  Elec       q    Type
REMARK                         _______ _______ _______ _____ _____    ______ ____
ROOT
ATOM     10  C   UNL     1      -0.954   1.159  -0.350  0.00  0.00    +0.127 C 
ATOM     11  C   UNL     1      -0.976   2.325   0.657  0.00  0.00    +0.167 C 
ATOM     12  C   UNL     1       0.098   3.370   0.332  0.00  0.00    +0.149 C 
ATOM     13  C   UNL     1       1.505   2.752   0.263  0.00  0.00    +0.074 C 
ATOM     14  C   UNL     1       0.435   0.673  -0.666  0.00  0.00    +0.006 C 
ATOM     15  C   UNL     1       1.529   1.393  -0.378  0.00  0.00    +0.015 C 
ENDROOT
BRANCH  10   6
ATOM      3  O   UNL     1      -3.757   0.725  -0.826  0.00  0.00    -0.274 OA
ATOM      6  N   UNL     1      -1.746   0.044   0.108  0.00  0.00    -0.305 N 
ATOM     18  C   UNL     1      -3.099  -0.083  -0.171  0.00  0.00    +0.231 C 
ATOM     26  H   UNL     1      -1.295  -0.653   0.694  0.00  0.00    +0.149 HD
BRANCH  18  16
ATOM     16  C   UNL     1      -3.706  -1.346   0.438  0.00  0.00    +0.143 C 
BRANCH  16   7
ATOM      7  N   UNL     1      -5.077  -1.013   0.832  0.00  0.00    -0.309 NA
ATOM     23  C   UNL     1      -5.087  -0.295   2.096  0.00  0.00    +0.101 C 
ATOM     29  H   UNL     1      -5.616  -1.871   0.949  0.00  0.00    +0.122 HD
ENDBRANCH  16   7
BRANCH  16  17
ATOM     17  C   UNL     1      -3.677  -2.560  -0.521  0.00  0.00    +0.009 C 
ATOM     20  C   UNL     1      -4.527  -2.318  -1.772  0.00  0.00    +0.009 C 
ATOM     21  C   UNL     1      -2.266  -2.996  -0.931  0.00  0.00    +0.009 C 
ENDBRANCH  16  17
ENDBRANCH  18  16
ENDBRANCH  10   6
BRANCH  15  19
ATOM      4  O   UNL     1       3.585   1.399  -1.515  0.00  0.00    -0.271 OA
ATOM      8  N   UNL     1       3.076  -0.390  -0.109  0.00  0.00    -0.301 N 
ATOM     19  C   UNL     1       2.830   0.820  -0.734  0.00  0.00    +0.240 C 
ATOM     30  H   UNL     1       2.376  -0.779   0.517  0.00  0.00    +0.150 HD
BRANCH   8  22
ATOM     22  C   UNL     1       4.291  -1.147  -0.306  0.00  0.00    +0.156 C 
ATOM     24  C   UNL     1       4.147  -2.123  -1.463  0.00  0.00    +0.038 C 
BRANCH  22  25
ATOM      5  O   UNL     1       3.754  -2.323   1.751  0.00  0.00    -0.274 OA
ATOM      9  N   UNL     1       5.964  -2.033   1.197  0.00  0.00    -0.328 N 
ATOM     25  C   UNL     1       4.610  -1.879   0.989  0.00  0.00    +0.231 C 
ATOM     31  H   UNL     1       6.313  -2.515   2.019  0.00  0.00    +0.145 HD
ATOM     32  H   UNL     1       6.660  -1.679   0.548  0.00  0.00    +0.145 HD
ENDBRANCH  22  25
ENDBRANCH   8  22
ENDBRANCH  15  19
BRANCH  11   1
ATOM      1  O   UNL     1      -0.745   1.823   1.976  0.00  0.00    -0.387 OA
ATOM     27  H   UNL     1      -0.795   2.577   2.588  0.00  0.00    +0.210 HD
ENDBRANCH  11   1
BRANCH  12   2
ATOM      2  O   UNL     1      -0.209   4.024  -0.897  0.00  0.00    -0.389 OA
ATOM     28  H   UNL     1       0.467   4.707  -1.045  0.00  0.00    +0.210 HD
ENDBRANCH  12   2
TORSDOF 9
