REMARK  Name = 45361402
REMARK  12 active torsions:
REMARK  status: ('A' for Active; 'I' for Inactive)
REMARK    1  A    between atoms: O_1  and  C_10
REMARK    2  A    between atoms: O_4  and  C_35
REMARK    3  A    between atoms: O_4  and  C_36
REMARK    4  A    between atoms: N_5  and  C_14
REMARK    5  A    between atoms: N_6  and  C_24
REMARK    6  A    between atoms: C_7  and  C_17
REMARK    7  A    between atoms: C_9  and  C_19
REMARK    8  A    between atoms: C_13  and  C_18
REMARK    9  A    between atoms: C_18  and  C_20
REMARK   10  A    between atoms: C_18  and  C_21
REMARK   11  A    between atoms: C_22  and  C_23
REMARK   12  A    between atoms: C_24  and  C_27
REMARK                            x       y       z     vdW  Elec       q    Type
REMARK                         _______ _______ _______ _____ _____    ______ ____
ROOT
ATOM      7  C   UNL     1      -0.361   0.341   1.092  0.00  0.00    -0.027 C 
ATOM      8  C   UNL     1      -0.791  -0.670  -0.022  0.00  0.00    +0.028 C 
ATOM      9  C   UNL     1      -2.343  -0.915   0.014  0.00  0.00    +0.012 C 
ATOM     10  C   UNL     1       0.089  -1.953   0.010  0.00  0.00    +0.122 C 
ATOM     11  C   UNL     1       1.150   0.646   0.957  0.00  0.00    +0.007 C 
ATOM     12  C   UNL     1      -1.128   1.668   0.893  0.00  0.00    +0.009 C 
ATOM     13  C   UNL     1       1.602  -1.637  -0.021  0.00  0.00    +0.029 C 
ATOM     14  C   UNL     1      -3.104   0.435  -0.111  0.00  0.00    +0.076 C 
ATOM     15  C   UNL     1       2.017  -0.604   1.027  0.00  0.00    +0.007 C 
ATOM     16  C   UNL     1      -2.640   1.490   0.893  0.00  0.00    +0.023 C 
ATOM     17  C   UNL     1      -0.633  -0.197   2.520  0.00  0.00    +0.011 C 
ATOM     19  C   UNL     1      -2.840  -1.879  -1.076  0.00  0.00    +0.010 C 
ENDROOT
BRANCH  14   5
ATOM      3  O   UNL     1      -5.160   1.978  -1.390  0.00  0.00    -0.270 OA
ATOM      5  N   UNL     1      -4.534   0.260   0.035  0.00  0.00    -0.308 N 
ATOM     22  C   UNL     1      -5.449   1.060  -0.628  0.00  0.00    +0.244 C 
ATOM     37  H   UNL     1      -4.844  -0.403   0.737  0.00  0.00    +0.149 HD
BRANCH  22  23
ATOM     23  C   UNL     1      -6.879   0.769  -0.351  0.00  0.00    +0.037 A 
ATOM     25  C   UNL     1      -7.833   1.780  -0.474  0.00  0.00    +0.013 A 
ATOM     26  C   UNL     1      -7.269  -0.514   0.031  0.00  0.00    +0.013 A 
ATOM     28  C   UNL     1      -9.176   1.506  -0.215  0.00  0.00    +0.001 A 
ATOM     29  C   UNL     1      -8.612  -0.788   0.290  0.00  0.00    +0.001 A 
ATOM     30  C   UNL     1      -9.566   0.223   0.167  0.00  0.00    +0.000 A 
ENDBRANCH  22  23
ENDBRANCH  14   5
BRANCH  10   1
ATOM      1  O   UNL     1      -0.186  -2.748  -1.145  0.00  0.00    -0.391 OA
ATOM     38  H   UNL     1       0.018  -2.217  -1.933  0.00  0.00    +0.210 HD
ENDBRANCH  10   1
BRANCH  13  18
ATOM     18  C   UNL     1       2.451  -2.903   0.142  0.00  0.00    +0.077 C 
ATOM     20  C   UNL     1       2.128  -3.584   1.467  0.00  0.00    +0.017 C 
BRANCH  18  21
ATOM      2  O   UNL     1       4.732  -2.788   0.948  0.00  0.00    -0.276 OA
ATOM      6  N   UNL     1       4.257  -1.946  -1.160  0.00  0.00    -0.311 N 
ATOM     21  C   UNL     1       3.933  -2.552   0.045  0.00  0.00    +0.216 C 
ATOM     39  H   UNL     1       3.549  -1.834  -1.878  0.00  0.00    +0.149 HD
BRANCH   6  24
ATOM     24  C   UNL     1       5.599  -1.520  -1.484  0.00  0.00    +0.139 C 
BRANCH  24  27
ATOM     27  C   UNL     1       5.859  -0.106  -1.053  0.00  0.00    -0.030 A 
ATOM     31  C   UNL     1       5.324   0.956  -1.783  0.00  0.00    +0.009 A 
ATOM     32  C   UNL     1       6.635   0.146   0.079  0.00  0.00    +0.009 A 
ATOM     33  C   UNL     1       5.565   2.269  -1.381  0.00  0.00    +0.046 A 
ATOM     34  C   UNL     1       6.875   1.460   0.481  0.00  0.00    +0.046 A 
ATOM     35  C   UNL     1       6.340   2.522  -0.249  0.00  0.00    +0.120 A 
BRANCH  35   4
ATOM      4  O   UNL     1       6.573   3.804   0.144  0.00  0.00    -0.495 OA
ATOM     36  C   UNL     1       7.374   3.989   1.311  0.00  0.00    +0.277 C 
ENDBRANCH  35   4
ENDBRANCH  24  27
ENDBRANCH   6  24
ENDBRANCH  18  21
ENDBRANCH  13  18
TORSDOF 8
