REMARK  Name = 56775429
REMARK  11 active torsions:
REMARK  status: ('A' for Active; 'I' for Inactive)
REMARK    1  A    between atoms: O_6  and  C_24
REMARK    2  A    between atoms: O_6  and  C_27
REMARK    3  A    between atoms: N_7  and  C_10
REMARK    4  A    between atoms: N_7  and  C_15
REMARK    5  A    between atoms: N_9  and  C_19
REMARK    6  A    between atoms: N_9  and  C_25
REMARK    7  A    between atoms: N_9  and  C_26
REMARK    8  A    between atoms: C_10  and  C_13
REMARK    9  A    between atoms: C_13  and  C_14
REMARK   10  A    between atoms: C_15  and  C_17
REMARK   11  A    between atoms: C_18  and  C_19
REMARK                            x       y       z     vdW  Elec       q    Type
REMARK                         _______ _______ _______ _____ _____    ______ ____
ROOT
ATOM      7  N   UNL     1       0.183  -0.916   0.243  0.00  0.00    -0.302 NA
ATOM     28  H   UNL     1       0.548  -0.138   0.791  0.00  0.00    +0.123 HD
ENDROOT
BRANCH   7  10
ATOM      4  O   UNL     1       1.022  -3.787   0.704  0.00  0.00    -0.376 OA
ATOM     10  C   UNL     1       1.185  -1.867  -0.216  0.00  0.00    +0.072 C 
ATOM     11  C   UNL     1       0.502  -3.198  -0.510  0.00  0.00    +0.184 C 
ATOM     12  C   UNL     1       1.772  -2.586   0.994  0.00  0.00    +0.184 C 
BRANCH  10  13
ATOM     13  C   UNL     1       2.137  -1.274  -1.264  0.00  0.00    +0.085 C 
BRANCH  13  14
ATOM      5  O   UNL     1       3.752   1.642   0.019  0.00  0.00    -0.358 OA
ATOM      8  N   UNL     1       2.688   1.000  -0.604  0.00  0.00    -0.083 NA
ATOM     14  C   UNL     1       3.045  -0.286  -0.657  0.00  0.00    +0.086 A 
ATOM     16  C   UNL     1       4.310  -0.514  -0.090  0.00  0.00    +0.072 A 
ATOM     18  C   UNL     1       4.711   0.731   0.320  0.00  0.00    +0.151 A 
BRANCH  18  19
ATOM     19  C   UNL     1       5.945   1.255   1.005  0.00  0.00    +0.161 C 
BRANCH  19   9
ATOM      9  N   UNL     1       7.157   0.972   0.235  0.00  0.00    -0.301 NA
ATOM     25  C   UNL     1       7.279   1.903  -0.886  0.00  0.00    +0.105 C 
ATOM     26  C   UNL     1       8.337   1.049   1.095  0.00  0.00    +0.105 C 
ENDBRANCH  19   9
ENDBRANCH  18  19
ENDBRANCH  13  14
ENDBRANCH  10  13
ENDBRANCH   7  10
BRANCH   7  15
ATOM     15  C   UNL     1      -0.569  -0.401  -0.898  0.00  0.00    +0.117 C 
BRANCH  15  17
ATOM     17  C   UNL     1      -1.938   0.080  -0.497  0.00  0.00    -0.033 A 
ATOM     20  C   UNL     1      -2.192   1.447  -0.383  0.00  0.00    +0.008 A 
ATOM     21  C   UNL     1      -2.953  -0.842  -0.239  0.00  0.00    +0.008 A 
ATOM     22  C   UNL     1      -3.460   1.892  -0.011  0.00  0.00    +0.046 A 
ATOM     23  C   UNL     1      -4.222  -0.396   0.133  0.00  0.00    +0.046 A 
ATOM     24  C   UNL     1      -4.475   0.971   0.247  0.00  0.00    +0.130 A 
BRANCH  24   6
ATOM      6  O   UNL     1      -5.712   1.406   0.610  0.00  0.00    -0.406 OA
BRANCH   6  27
ATOM      1  F   UNL     1      -7.898   1.425   0.049  0.00  0.00    -0.133 F 
ATOM      2  F   UNL     1      -6.609  -0.068  -0.891  0.00  0.00    -0.133 F 
ATOM      3  F   UNL     1      -7.159  -0.249   1.242  0.00  0.00    -0.133 F 
ATOM     27  C   UNL     1      -6.838   0.611   0.253  0.00  0.00    +0.575 C 
ENDBRANCH   6  27
ENDBRANCH  24   6
ENDBRANCH  15  17
ENDBRANCH   7  15
TORSDOF 9
