REMARK  Name = 51137095
REMARK  4 active torsions:
REMARK  status: ('A' for Active; 'I' for Inactive)
REMARK    1  A    between atoms: N_1  and  C_5
REMARK    2  A    between atoms: C_4  and  C_5
REMARK    3  A    between atoms: C_6  and  C_15
REMARK    4  A    between atoms: C_20  and  C_22
REMARK                            x       y       z     vdW  Elec       q    Type
REMARK                         _______ _______ _______ _____ _____    ______ ____
ROOT
ATOM      1  N   UNL     1      -2.101   1.094  -0.054  0.00  0.00    -0.301 NA
ATOM      6  C   UNL     1       0.095   0.962   0.757  0.00  0.00    +0.070 C 
ATOM      7  C   UNL     1      -0.990   0.145   0.042  0.00  0.00    +0.095 C 
ATOM      8  C   UNL     1      -1.484   2.360  -0.449  0.00  0.00    +0.085 C 
ATOM     11  C   UNL     1      -0.250   2.428   0.443  0.00  0.00    +0.028 C 
ENDROOT
BRANCH   6  15
ATOM      2  N   UNL     1       2.378   0.078   1.309  0.00  0.00    -0.342 N 
ATOM      3  N   UNL     1       2.022   0.567  -0.829  0.00  0.00    -0.232 NA
ATOM     15  C   UNL     1       1.496   0.543   0.375  0.00  0.00    +0.113 A 
ATOM     16  C   UNL     1       3.552  -0.218   0.665  0.00  0.00    +0.066 A 
ATOM     17  C   UNL     1       3.304   0.096  -0.668  0.00  0.00    +0.089 A 
ATOM     18  C   UNL     1       4.773  -0.719   1.121  0.00  0.00    +0.031 A 
ATOM     19  C   UNL     1       4.323  -0.094  -1.617  0.00  0.00    +0.030 A 
ATOM     20  C   UNL     1       5.775  -0.902   0.163  0.00  0.00    -0.048 A 
ATOM     21  C   UNL     1       5.556  -0.595  -1.182  0.00  0.00    +0.005 A 
ATOM     22  C   UNL     1       7.104  -1.435   0.588  0.00  0.00    +0.044 C 
ATOM     23  H   UNL     1       2.201  -0.031   2.299  0.00  0.00    +0.167 HD
ENDBRANCH   6  15
BRANCH   1   5
ATOM      5  C   UNL     1      -3.123   0.658  -0.995  0.00  0.00    +0.088 C 
BRANCH   5   4
ATOM      4  C   UNL     1      -4.054  -0.368  -0.352  0.00  0.00    +0.003 C 
ATOM      9  C   UNL     1      -4.776   0.239   0.858  0.00  0.00    +0.005 C 
ATOM     10  C   UNL     1      -5.061  -0.903  -1.378  0.00  0.00    +0.005 C 
ATOM     12  C   UNL     1      -5.753  -0.752   1.487  0.00  0.00    +0.000 C 
ATOM     13  C   UNL     1      -6.038  -1.893  -0.746  0.00  0.00    +0.000 C 
ATOM     14  C   UNL     1      -6.748  -1.289   0.462  0.00  0.00    +0.000 C 
ENDBRANCH   5   4
ENDBRANCH   1   5
TORSDOF 3
