REMARK  Name = 25390346
REMARK  8 active torsions:
REMARK  status: ('A' for Active; 'I' for Inactive)
REMARK    1  A    between atoms: O_2  and  C_11
REMARK    2  A    between atoms: O_3  and  C_12
REMARK    3  A    between atoms: N_7  and  C_16
REMARK    4  A    between atoms: C_8  and  C_18
REMARK    5  A    between atoms: C_9  and  C_15
REMARK    6  A    between atoms: C_10  and  C_16
REMARK    7  A    between atoms: C_15  and  C_23
REMARK    8  A    between atoms: C_17  and  C_24
REMARK                            x       y       z     vdW  Elec       q    Type
REMARK                         _______ _______ _______ _____ _____    ______ ____
ROOT
ATOM      1  O   UNL     1       1.632   0.686  -0.543  0.00  0.00    -0.366 OA
ATOM      9  C   UNL     1       0.627   1.682  -0.281  0.00  0.00    +0.159 C 
ATOM     10  C   UNL     1       2.934   1.246  -0.258  0.00  0.00    +0.167 C 
ATOM     11  C   UNL     1       1.300   2.723   0.597  0.00  0.00    +0.175 C 
ATOM     12  C   UNL     1       2.709   2.724   0.042  0.00  0.00    +0.176 C 
ENDROOT
BRANCH  11   2
ATOM      2  O   UNL     1       0.664   3.980   0.512  0.00  0.00    -0.387 OA
ATOM     26  H   UNL     1       1.211   4.617   1.002  0.00  0.00    +0.210 HD
ENDBRANCH  11   2
BRANCH  12   3
ATOM      3  O   UNL     1       2.754   3.438  -1.193  0.00  0.00    -0.387 OA
ATOM     27  H   UNL     1       3.665   3.381  -1.529  0.00  0.00    +0.210 HD
ENDBRANCH  12   3
BRANCH   9  15
ATOM     15  C   UNL     1      -0.580   1.032   0.371  0.00  0.00    +0.130 C 
BRANCH  15  23
ATOM      5  O   UNL     1      -1.058   0.369  -1.853  0.00  0.00    -0.276 OA
ATOM      6  N   UNL     1      -2.540  -0.353  -0.215  0.00  0.00    -0.301 N 
ATOM     17  C   UNL     1      -5.355  -0.742   0.367  0.00  0.00    -0.011 C 
ATOM     19  C   UNL     1      -4.431   0.034   1.318  0.00  0.00    +0.022 C 
ATOM     20  C   UNL     1      -4.830  -0.652  -1.074  0.00  0.00    +0.022 C 
ATOM     21  C   UNL     1      -2.980  -0.426   1.183  0.00  0.00    +0.108 C 
ATOM     22  C   UNL     1      -3.372  -1.100  -1.160  0.00  0.00    +0.108 C 
ATOM     23  C   UNL     1      -1.408   0.322  -0.670  0.00  0.00    +0.218 C 
ATOM     24  C   UNL     1      -6.787  -0.222   0.457  0.00  0.00    +0.007 C 
ENDBRANCH  15  23
ENDBRANCH   9  15
BRANCH  10  16
ATOM     16  C   UNL     1       3.522   0.482   0.920  0.00  0.00    +0.138 C 
BRANCH  16   7
ATOM      4  O   UNL     1       1.632  -1.699   1.278  0.00  0.00    -0.276 OA
ATOM      7  N   UNL     1       3.713  -0.901   0.597  0.00  0.00    -0.313 N 
ATOM     18  C   UNL     1       2.748  -1.878   0.804  0.00  0.00    +0.216 C 
ATOM     25  H   UNL     1       4.606  -1.173   0.195  0.00  0.00    +0.149 HD
BRANCH  18   8
ATOM      8  C   UNL     1       3.161  -3.252   0.392  0.00  0.00    +0.075 C 
ATOM     13  C   UNL     1       2.304  -4.012  -0.578  0.00  0.00    +0.013 C 
ATOM     14  C   UNL     1       3.639  -3.480  -1.012  0.00  0.00    +0.013 C 
ENDBRANCH  18   8
ENDBRANCH  16   7
ENDBRANCH  10  16
TORSDOF 7
