REMARK  Name = 26743734
REMARK  7 active torsions:
REMARK  status: ('A' for Active; 'I' for Inactive)
REMARK    1  A    between atoms: O_4  and  C_13
REMARK    2  A    between atoms: O_6  and  C_28
REMARK    3  A    between atoms: O_6  and  C_29
REMARK    4  A    between atoms: N_7  and  C_15
REMARK    5  A    between atoms: C_11  and  C_16
REMARK    6  A    between atoms: C_15  and  C_17
REMARK    7  A    between atoms: C_18  and  C_21
REMARK                            x       y       z     vdW  Elec       q    Type
REMARK                         _______ _______ _______ _____ _____    ______ ____
ROOT
ATOM      5  O   UNL     1      -1.750   0.116  -2.108  0.00  0.00    -0.336 OA
ATOM      8  N   UNL     1      -0.994   1.020  -0.203  0.00  0.00    -0.190 NA
ATOM      9  N   UNL     1      -0.352   0.051  -2.174  0.00  0.00    -0.056 NA
ATOM     16  C   UNL     1      -2.043   0.701  -0.917  0.00  0.00    +0.245 A 
ATOM     18  C   UNL     1       0.021   0.603  -1.015  0.00  0.00    +0.202 A 
ENDROOT
BRANCH  18  21
ATOM     21  C   UNL     1       1.397   0.753  -0.640  0.00  0.00    +0.023 A 
ATOM     24  C   UNL     1       1.727   1.339   0.583  0.00  0.00    +0.015 A 
ATOM     25  C   UNL     1       2.405   0.315  -1.498  0.00  0.00    +0.015 A 
ATOM     26  C   UNL     1       3.065   1.486   0.947  0.00  0.00    +0.046 A 
ATOM     27  C   UNL     1       3.744   0.462  -1.134  0.00  0.00    +0.046 A 
ATOM     28  C   UNL     1       4.074   1.048   0.088  0.00  0.00    +0.130 A 
BRANCH  28   6
ATOM      6  O   UNL     1       5.380   1.191   0.443  0.00  0.00    -0.406 OA
BRANCH   6  29
ATOM      1  F   UNL     1       7.118   0.220   1.506  0.00  0.00    -0.133 F 
ATOM      2  F   UNL     1       5.436  -1.046   0.919  0.00  0.00    -0.133 F 
ATOM      3  F   UNL     1       6.818  -0.244  -0.608  0.00  0.00    -0.133 F 
ATOM     29  C   UNL     1       6.181   0.019   0.552  0.00  0.00    +0.575 C 
ENDBRANCH   6  29
ENDBRANCH  28   6
ENDBRANCH  18  21
BRANCH  16  11
ATOM      7  N   UNL     1      -3.911   0.232   0.661  0.00  0.00    -0.285 NA
ATOM     11  C   UNL     1      -3.513   0.888  -0.601  0.00  0.00    +0.149 C 
ATOM     12  C   UNL     1      -3.898   2.367  -0.415  0.00  0.00    +0.061 C 
ATOM     13  C   UNL     1      -4.546   2.436   0.962  0.00  0.00    +0.130 C 
ATOM     14  C   UNL     1      -5.020   1.015   1.202  0.00  0.00    +0.116 C 
BRANCH  13   4
ATOM      4  O   UNL     1      -5.621   3.355   0.966  0.00  0.00    -0.390 OA
ATOM     30  H   UNL     1      -5.259   4.227   0.732  0.00  0.00    +0.210 HD
ENDBRANCH  13   4
BRANCH   7  15
ATOM     15  C   UNL     1      -4.261  -1.172   0.493  0.00  0.00    +0.120 C 
BRANCH  15  17
ATOM     10  N   UNL     1      -0.771  -3.675   0.254  0.00  0.00    -0.263 NA
ATOM     17  C   UNL     1      -3.040  -2.049   0.409  0.00  0.00    -0.030 A 
ATOM     19  C   UNL     1      -2.824  -2.840  -0.713  0.00  0.00    +0.024 A 
ATOM     20  C   UNL     1      -2.122  -2.069   1.454  0.00  0.00    +0.024 A 
ATOM     22  C   UNL     1      -1.685  -3.628  -0.742  0.00  0.00    +0.111 A 
ATOM     23  C   UNL     1      -1.015  -2.892   1.329  0.00  0.00    +0.111 A 
ENDBRANCH  15  17
ENDBRANCH   7  15
ENDBRANCH  16  11
TORSDOF 7
