REMARK  Name = 75536148
REMARK  18 active torsions:
REMARK  status: ('A' for Active; 'I' for Inactive)
REMARK    1  A    between atoms: O_3  and  C_28
REMARK    2  A    between atoms: O_3  and  C_35
REMARK    3  A    between atoms: O_4  and  C_30
REMARK    4  A    between atoms: O_4  and  C_36
REMARK    5  A    between atoms: O_5  and  C_34
REMARK    6  A    between atoms: N_9  and  C_20
REMARK    7  A    between atoms: C_13  and  C_17
REMARK    8  A    between atoms: C_14  and  C_20
REMARK    9  A    between atoms: C_16  and  C_21
REMARK   10  A    between atoms: C_17  and  C_22
REMARK   11  A    between atoms: C_17  and  C_23
REMARK   12  A    between atoms: C_18  and  C_24
REMARK   13  A    between atoms: C_21  and  C_25
REMARK   14  A    between atoms: C_26  and  C_28
REMARK   15  A    between atoms: C_28  and  C_30
REMARK   16  A    between atoms: C_30  and  C_34
REMARK   17  A    between atoms: C_35  and  C_37
REMARK   18  A    between atoms: C_36  and  C_38
REMARK                            x       y       z     vdW  Elec       q    Type
REMARK                         _______ _______ _______ _____ _____    ______ ____
ROOT
ATOM     13  C   UNL     1       0.345  -2.181  -1.086  0.00  0.00    +0.000 C 
ATOM     14  C   UNL     1      -0.804  -3.054  -0.524  0.00  0.00    +0.032 C 
ATOM     15  C   UNL     1       1.634  -2.409  -0.281  0.00  0.00    +0.012 C 
ATOM     16  C   UNL     1       1.455  -2.078   1.212  0.00  0.00    +0.022 C 
ATOM     18  C   UNL     1       0.188  -2.689   1.776  0.00  0.00    -0.073 C 
ATOM     19  C   UNL     1      -0.805  -3.132   0.985  0.00  0.00    -0.022 C 
ATOM     24  C   UNL     1       0.108  -2.822   3.272  0.00  0.00    +0.039 C 
ENDROOT
BRANCH  13  17
ATOM     17  C   UNL     1       0.602  -2.464  -2.569  0.00  0.00    -0.013 C 
ATOM     22  C   UNL     1       1.470  -3.708  -2.730  0.00  0.00    +0.007 C 
ATOM     23  C   UNL     1       1.256  -1.258  -3.236  0.00  0.00    +0.007 C 
ENDBRANCH  13  17
BRANCH  14  20
ATOM     20  C   UNL     1      -2.169  -2.553  -1.010  0.00  0.00    +0.112 C 
BRANCH  20   9
ATOM      2  O   UNL     1      -2.649  -0.133  -2.503  0.00  0.00    -0.272 OA
ATOM      9  N   UNL     1      -2.451  -1.256  -0.478  0.00  0.00    -0.312 N 
ATOM     26  C   UNL     1      -2.672  -0.132  -1.274  0.00  0.00    +0.258 C 
ATOM     39  H   UNL     1      -2.539  -1.161   0.530  0.00  0.00    +0.149 HD
BRANCH  26  28
ATOM     28  C   UNL     1      -2.929   1.132  -0.461  0.00  0.00    +0.313 C 
BRANCH  28   3
ATOM      3  O   UNL     1      -3.017   2.236  -1.352  0.00  0.00    -0.448 OA
BRANCH   3  35
ATOM      7  O   UNL     1      -2.049   3.614   0.230  0.00  0.00    -0.251 OA
ATOM     35  C   UNL     1      -2.537   3.425  -0.876  0.00  0.00    +0.305 C 
ATOM     37  C   UNL     1      -2.694   4.492  -1.917  0.00  0.00    +0.136 C 
ENDBRANCH   3  35
ENDBRANCH  28   3
BRANCH  28  30
ATOM     30  C   UNL     1      -4.205   1.019   0.378  0.00  0.00    +0.333 C 
BRANCH  30  34
ATOM      6  O   UNL     1      -5.779  -0.789  -0.034  0.00  0.00    -0.247 OA
ATOM     34  C   UNL     1      -5.298   0.284  -0.374  0.00  0.00    +0.350 C 
BRANCH  34   5
ATOM      5  O   UNL     1      -5.710   0.963  -1.476  0.00  0.00    -0.478 OA
ATOM     41  H   UNL     1      -6.421   0.487  -1.954  0.00  0.00    +0.295 HD
ENDBRANCH  34   5
ENDBRANCH  30  34
BRANCH  30   4
ATOM      4  O   UNL     1      -3.918   0.290   1.565  0.00  0.00    -0.446 OA
BRANCH   4  36
ATOM      8  O   UNL     1      -3.446   2.258   2.679  0.00  0.00    -0.251 OA
ATOM     36  C   UNL     1      -3.548   1.040   2.648  0.00  0.00    +0.305 C 
ATOM     38  C   UNL     1      -3.277   0.144   3.819  0.00  0.00    +0.136 C 
ENDBRANCH   4  36
ENDBRANCH  30   4
ENDBRANCH  28  30
ENDBRANCH  26  28
ENDBRANCH  20   9
ENDBRANCH  14  20
BRANCH  16  21
ATOM     21  C   UNL     1       1.486  -0.564   1.451  0.00  0.00    +0.082 C 
BRANCH  21  25
ATOM      1 CL   UNL     1       8.579   1.854   0.188  0.00  0.00    -0.082 Cl
ATOM     10  N   UNL     1       3.937  -0.083   1.604  0.00  0.00    -0.340 N 
ATOM     11  N   UNL     1       2.891   0.744  -0.180  0.00  0.00    -0.213 NA
ATOM     12  N   UNL     1       4.826   1.805  -1.192  0.00  0.00    -0.233 NA
ATOM     25  C   UNL     1       2.754   0.047   0.926  0.00  0.00    +0.110 A 
ATOM     27  C   UNL     1       4.899   0.574   0.885  0.00  0.00    +0.087 A 
ATOM     29  C   UNL     1       4.221   1.079  -0.219  0.00  0.00    +0.178 A 
ATOM     31  C   UNL     1       6.261   0.781   1.071  0.00  0.00    +0.051 A 
ATOM     32  C   UNL     1       6.896   1.525   0.080  0.00  0.00    +0.061 A 
ATOM     33  C   UNL     1       6.152   1.998  -0.996  0.00  0.00    +0.133 A 
ATOM     40  H   UNL     1       4.076  -0.575   2.476  0.00  0.00    +0.167 HD
ENDBRANCH  21  25
ENDBRANCH  16  21
TORSDOF 13
