REMARK  Name = 40779473
REMARK  7 active torsions:
REMARK  status: ('A' for Active; 'I' for Inactive)
REMARK    1  A    between atoms: S_1  and  N_6
REMARK    2  A    between atoms: S_1  and  C_21
REMARK    3  A    between atoms: N_5  and  C_19
REMARK    4  A    between atoms: N_6  and  C_15
REMARK    5  A    between atoms: C_9  and  C_16
REMARK    6  A    between atoms: C_10  and  C_15
REMARK    7  A    between atoms: C_18  and  C_20
REMARK                            x       y       z     vdW  Elec       q    Type
REMARK                         _______ _______ _______ _____ _____    ______ ____
ROOT
ATOM      5  N   UNL     1      -0.035  -2.887  -0.449  0.00  0.00    -0.270 N 
ATOM      7  N   UNL     1       1.245  -2.493  -0.561  0.00  0.00    -0.171 NA
ATOM     16  C   UNL     1      -0.869  -1.921   0.033  0.00  0.00    +0.044 A 
ATOM     17  C   UNL     1      -0.079  -0.819   0.251  0.00  0.00    +0.053 A 
ATOM     18  C   UNL     1       1.212  -1.229  -0.133  0.00  0.00    +0.093 A 
ATOM     19  C   UNL     1      -0.394  -4.234  -0.828  0.00  0.00    +0.172 C 
ENDROOT
BRANCH  18  20
ATOM     20  C   UNL     1       2.413  -0.436  -0.096  0.00  0.00    +0.003 A 
ATOM     22  C   UNL     1       3.648  -1.052   0.110  0.00  0.00    +0.018 A 
ATOM     23  C   UNL     1       2.342   0.943  -0.265  0.00  0.00    +0.011 A 
ATOM     24  C   UNL     1       4.830  -0.293   0.148  0.00  0.00    -0.017 A 
ATOM     25  C   UNL     1       3.506   1.712  -0.230  0.00  0.00    +0.009 A 
ATOM     26  C   UNL     1       4.757   1.110  -0.024  0.00  0.00    -0.018 A 
ATOM     27  C   UNL     1       6.081  -0.896   0.354  0.00  0.00    +0.008 A 
ATOM     28  C   UNL     1       5.938   1.868   0.014  0.00  0.00    +0.008 A 
ATOM     29  C   UNL     1       7.245  -0.127   0.389  0.00  0.00    +0.001 A 
ATOM     30  C   UNL     1       7.173   1.252   0.220  0.00  0.00    +0.001 A 
ENDBRANCH  18  20
BRANCH  16   9
ATOM      4  N   UNL     1      -4.286  -0.896   1.292  0.00  0.00    -0.297 NA
ATOM      8  C   UNL     1      -3.321  -1.836  -0.937  0.00  0.00    +0.002 C 
ATOM      9  C   UNL     1      -2.359  -2.143   0.244  0.00  0.00    +0.055 C 
ATOM     10  C   UNL     1      -4.312   0.157   0.243  0.00  0.00    +0.072 C 
ATOM     11  C   UNL     1      -3.558  -0.313  -1.019  0.00  0.00    +0.024 C 
ATOM     12  C   UNL     1      -4.677  -2.487  -0.588  0.00  0.00    +0.019 C 
ATOM     13  C   UNL     1      -2.898  -1.382   1.490  0.00  0.00    +0.094 C 
ATOM     14  C   UNL     1      -5.111  -2.032   0.817  0.00  0.00    +0.085 C 
BRANCH  10  15
ATOM     15  C   UNL     1      -3.787   1.501   0.753  0.00  0.00    +0.124 C 
BRANCH  15   6
ATOM      6  N   UNL     1      -3.960   2.518  -0.297  0.00  0.00    -0.193 NA
ATOM     31  H   UNL     1      -4.944   2.736  -0.500  0.00  0.00    +0.148 HD
BRANCH   6   1
ATOM      1  S   UNL     1      -2.864   3.826  -0.381  0.00  0.00    +0.027 S 
ATOM      2  O   UNL     1      -3.384   4.845  -1.272  0.00  0.00    -0.158 OA
ATOM      3  O   UNL     1      -1.526   3.296  -0.561  0.00  0.00    -0.158 OA
ATOM     21  C   UNL     1      -2.970   4.447   1.282  0.00  0.00    +0.214 C 
ENDBRANCH   6   1
ENDBRANCH  15   6
ENDBRANCH  10  15
ENDBRANCH  16   9
TORSDOF 5
