REMARK  Name = 25338986
REMARK  10 active torsions:
REMARK  status: ('A' for Active; 'I' for Inactive)
REMARK    1  A    between atoms: O_1  and  C_15
REMARK    2  A    between atoms: O_1  and  C_22
REMARK    3  A    between atoms: O_4  and  C_19
REMARK    4  A    between atoms: O_4  and  C_26
REMARK    5  A    between atoms: O_5  and  C_25
REMARK    6  A    between atoms: O_5  and  C_32
REMARK    7  A    between atoms: N_7  and  C_14
REMARK    8  A    between atoms: C_9  and  C_15
REMARK    9  A    between atoms: C_14  and  C_18
REMARK   10  A    between atoms: C_17  and  C_19
REMARK                            x       y       z     vdW  Elec       q    Type
REMARK                         _______ _______ _______ _____ _____    ______ ____
ROOT
ATOM      3  O   UNL     1       2.846  -2.620  -0.361  0.00  0.00    -0.272 OA
ATOM      6  N   UNL     1       0.715  -1.886   0.240  0.00  0.00    -0.279 N 
ATOM      7  N   UNL     1      -2.414  -0.743   1.958  0.00  0.00    -0.328 N 
ATOM      8  N   UNL     1      -3.114  -2.839   1.632  0.00  0.00    -0.240 NA
ATOM      9  C   UNL     1       0.055  -3.040  -0.428  0.00  0.00    +0.191 C 
ATOM     10  C   UNL     1      -1.082  -3.691   0.388  0.00  0.00    +0.091 C 
ATOM     11  C   UNL     1      -1.418  -1.379   1.278  0.00  0.00    +0.059 A 
ATOM     12  C   UNL     1      -0.135  -0.812   0.827  0.00  0.00    +0.164 C 
ATOM     13  C   UNL     1      -1.873  -2.660   1.089  0.00  0.00    +0.066 A 
ATOM     16  C   UNL     1      -3.414  -1.664   2.148  0.00  0.00    +0.200 A 
ATOM     17  C   UNL     1       2.107  -1.756   0.118  0.00  0.00    +0.254 C 
ENDROOT
BRANCH   9  15
ATOM      2  O   UNL     1      -0.328  -1.366  -2.121  0.00  0.00    -0.249 OA
ATOM     15  C   UNL     1      -0.427  -2.530  -1.757  0.00  0.00    +0.328 C 
BRANCH  15   1
ATOM      1  O   UNL     1      -0.977  -3.556  -2.467  0.00  0.00    -0.467 OA
ATOM     22  C   UNL     1      -1.479  -3.208  -3.761  0.00  0.00    +0.280 C 
ENDBRANCH  15   1
ENDBRANCH   9  15
BRANCH   7  14
ATOM     14  C   UNL     1      -2.433   0.631   2.396  0.00  0.00    +0.158 C 
BRANCH  14  18
ATOM     18  C   UNL     1      -2.739   1.607   1.287  0.00  0.00    -0.028 A 
ATOM     20  C   UNL     1      -1.843   2.635   0.995  0.00  0.00    +0.009 A 
ATOM     21  C   UNL     1      -3.919   1.481   0.553  0.00  0.00    +0.009 A 
ATOM     23  C   UNL     1      -2.126   3.538  -0.030  0.00  0.00    +0.046 A 
ATOM     24  C   UNL     1      -4.202   2.384  -0.473  0.00  0.00    +0.046 A 
ATOM     25  C   UNL     1      -3.306   3.412  -0.764  0.00  0.00    +0.120 A 
BRANCH  25   5
ATOM      5  O   UNL     1      -3.581   4.291  -1.765  0.00  0.00    -0.495 OA
ATOM     32  C   UNL     1      -4.805   4.104  -2.475  0.00  0.00    +0.277 C 
ENDBRANCH  25   5
ENDBRANCH  14  18
ENDBRANCH   7  14
BRANCH  17  19
ATOM     19  C   UNL     1       2.708  -0.467   0.621  0.00  0.00    +0.324 C 
BRANCH  19   4
ATOM      4  O   UNL     1       4.098  -0.571   0.433  0.00  0.00    -0.483 OA
BRANCH   4  26
ATOM     26  C   UNL     1       4.802   0.599   0.255  0.00  0.00    +0.121 A 
ATOM     27  C   UNL     1       4.355   1.780   0.848  0.00  0.00    +0.045 A 
ATOM     28  C   UNL     1       5.962   0.603  -0.520  0.00  0.00    +0.045 A 
ATOM     29  C   UNL     1       5.068   2.965   0.667  0.00  0.00    +0.004 A 
ATOM     30  C   UNL     1       6.675   1.788  -0.701  0.00  0.00    +0.004 A 
ATOM     31  C   UNL     1       6.228   2.969  -0.108  0.00  0.00    +0.000 A 
ENDBRANCH   4  26
ENDBRANCH  19   4
ENDBRANCH  17  19
TORSDOF 8
