REMARK  Name = 11912977
REMARK  5 active torsions:
REMARK  status: ('A' for Active; 'I' for Inactive)
REMARK    1  A    between atoms: S_1  and  N_8
REMARK    2  A    between atoms: S_1  and  C_19
REMARK    3  A    between atoms: N_8  and  C_14
REMARK    4  A    between atoms: N_9  and  C_15
REMARK    5  A    between atoms: C_21  and  C_26
REMARK                            x       y       z     vdW  Elec       q    Type
REMARK                         _______ _______ _______ _____ _____    ______ ____
ROOT
ATOM      3  O   UNL     1       0.290   1.053   1.195  0.00  0.00    -0.370 OA
ATOM      4  O   UNL     1       1.340  -1.867   1.521  0.00  0.00    -0.370 OA
ATOM     12  C   UNL     1       1.271  -0.965   0.405  0.00  0.00    +0.170 C 
ATOM     13  C   UNL     1      -0.023  -0.185   0.534  0.00  0.00    +0.171 C 
ATOM     14  C   UNL     1       2.349   0.089   0.513  0.00  0.00    +0.133 C 
ATOM     15  C   UNL     1      -0.887  -1.048   1.422  0.00  0.00    +0.130 C 
ATOM     16  C   UNL     1       1.705   1.119   1.424  0.00  0.00    +0.183 C 
ATOM     17  C   UNL     1       0.134  -1.760   2.291  0.00  0.00    +0.185 C 
ENDROOT
BRANCH  15   9
ATOM      9  N   UNL     1      -1.618  -2.006   0.622  0.00  0.00    -0.306 N 
ATOM     10  N   UNL     1      -3.345  -0.482   0.174  0.00  0.00    -0.211 NA
ATOM     11  N   UNL     1      -3.406  -2.720  -0.719  0.00  0.00    -0.223 NA
ATOM     18  C   UNL     1      -2.826  -1.728   0.007  0.00  0.00    +0.216 A 
ATOM     21  C   UNL     1      -4.523  -0.245  -0.439  0.00  0.00    +0.111 A 
ATOM     22  C   UNL     1      -4.582  -2.413  -1.305  0.00  0.00    +0.116 A 
ATOM     25  C   UNL     1      -5.194  -1.181  -1.199  0.00  0.00    +0.051 A 
ATOM     31  H   UNL     1      -1.215  -2.920   0.447  0.00  0.00    +0.149 HD
BRANCH  21  26
ATOM      7  O   UNL     1      -4.285   1.898   0.526  0.00  0.00    -0.461 OA
ATOM     26  C   UNL     1      -5.047   1.081  -0.244  0.00  0.00    +0.153 A 
ATOM     27  C   UNL     1      -6.180   1.730  -0.671  0.00  0.00    +0.051 A 
ATOM     28  C   UNL     1      -6.110   3.035  -0.128  0.00  0.00    +0.042 A 
ATOM     29  C   UNL     1      -4.939   3.087   0.592  0.00  0.00    +0.196 A 
ENDBRANCH  21  26
ENDBRANCH  15   9
BRANCH  14   8
ATOM      8  N   UNL     1       2.658   0.654  -0.779  0.00  0.00    -0.182 NA
ATOM     30  H   UNL     1       1.860   1.044  -1.297  0.00  0.00    +0.149 HD
BRANCH   8   1
ATOM      1  S   UNL     1       3.950   0.030  -1.686  0.00  0.00    +0.065 S 
ATOM      5  O   UNL     1       4.147   0.845  -2.870  0.00  0.00    -0.153 OA
ATOM      6  O   UNL     1       3.785  -1.406  -1.808  0.00  0.00    -0.153 OA
BRANCH   1  19
ATOM      2  S   UNL     1       5.758   1.941  -0.411  0.00  0.00    -0.077 S 
ATOM     19  C   UNL     1       5.321   0.301  -0.604  0.00  0.00    +0.142 A 
ATOM     20  C   UNL     1       6.117  -0.546   0.123  0.00  0.00    +0.036 A 
ATOM     23  C   UNL     1       7.111   0.164   0.857  0.00  0.00    +0.010 A 
ATOM     24  C   UNL     1       7.029   1.524   0.658  0.00  0.00    +0.047 A 
ENDBRANCH   1  19
ENDBRANCH   8   1
ENDBRANCH  14   8
TORSDOF 5
