REMARK  Name = 11866256
REMARK  5 active torsions:
REMARK  status: ('A' for Active; 'I' for Inactive)
REMARK    1  A    between atoms: S_4  and  N_10
REMARK    2  A    between atoms: S_4  and  C_27
REMARK    3  A    between atoms: C_12  and  C_20
REMARK    4  A    between atoms: C_17  and  C_24
REMARK    5  A    between atoms: C_19  and  C_25
REMARK                            x       y       z     vdW  Elec       q    Type
REMARK                         _______ _______ _______ _____ _____    ______ ____
ROOT
ATOM      3  S   UNL     1      -1.646  -1.926   1.862  0.00  0.00    -0.056 S 
ATOM      5  O   UNL     1       3.987   1.631   0.040  0.00  0.00    -0.461 OA
ATOM      6  O   UNL     1       5.977   2.741  -0.272  0.00  0.00    -0.251 OA
ATOM      9  N   UNL     1      -1.346   0.564   1.231  0.00  0.00    -0.228 NA
ATOM     10  N   UNL     1      -3.574   0.063   2.044  0.00  0.00    -0.194 N 
ATOM     11  C   UNL     1       2.336  -0.214   0.508  0.00  0.00    +0.045 C 
ATOM     12  C   UNL     1       2.058  -1.722   0.085  0.00  0.00    -0.021 C 
ATOM     13  C   UNL     1       3.518   0.330  -0.313  0.00  0.00    +0.184 C 
ATOM     14  C   UNL     1       4.753  -0.519  -0.082  0.00  0.00    +0.044 C 
ATOM     15  C   UNL     1       3.369  -2.564   0.155  0.00  0.00    +0.008 C 
ATOM     16  C   UNL     1       4.557  -1.935  -0.587  0.00  0.00    +0.008 C 
ATOM     17  C   UNL     1       1.046   0.680   0.443  0.00  0.00    +0.043 C 
ATOM     18  C   UNL     1       1.025  -2.347   1.073  0.00  0.00    +0.051 C 
ATOM     19  C   UNL     1       5.812   0.345  -0.738  0.00  0.00    +0.101 C 
ATOM     20  C   UNL     1       1.496  -1.832  -1.358  0.00  0.00    +0.012 C 
ATOM     21  C   UNL     1      -0.138  -0.070   1.001  0.00  0.00    +0.057 A 
ATOM     22  C   UNL     1      -0.131  -1.426   1.267  0.00  0.00    +0.015 A 
ATOM     23  C   UNL     1       5.319   1.714  -0.307  0.00  0.00    +0.311 C 
ATOM     24  C   UNL     1       1.222   2.017   1.176  0.00  0.00    +0.014 C 
ATOM     25  C   UNL     1       7.217   0.049  -0.247  0.00  0.00    +0.019 C 
ATOM     26  C   UNL     1      -2.209  -0.313   1.694  0.00  0.00    +0.178 A 
ATOM     33  H   UNL     1      -4.147  -0.697   2.430  0.00  0.00    +0.176 HD
ENDROOT
BRANCH  10   4
ATOM      4  S   UNL     1      -4.339   1.187   0.983  0.00  0.00    +0.077 S 
ATOM      7  O   UNL     1      -3.614   2.442   1.010  0.00  0.00    -0.150 OA
ATOM      8  O   UNL     1      -5.775   1.162   1.192  0.00  0.00    -0.150 OA
BRANCH   4  27
ATOM      1 CL   UNL     1      -5.428  -1.748   0.332  0.00  0.00    -0.081 Cl
ATOM      2 CL   UNL     1      -2.687   2.703  -1.297  0.00  0.00    -0.081 Cl
ATOM     27  C   UNL     1      -4.037   0.427  -0.586  0.00  0.00    +0.145 A 
ATOM     28  C   UNL     1      -4.524  -0.851  -0.837  0.00  0.00    +0.069 A 
ATOM     29  C   UNL     1      -3.316   1.114  -1.556  0.00  0.00    +0.069 A 
ATOM     30  C   UNL     1      -4.287  -1.450  -2.074  0.00  0.00    +0.022 A 
ATOM     31  C   UNL     1      -3.078   0.515  -2.793  0.00  0.00    +0.022 A 
ATOM     32  C   UNL     1      -3.564  -0.767  -3.052  0.00  0.00    +0.003 A 
ENDBRANCH   4  27
ENDBRANCH  10   4
TORSDOF 2
