REMARK  Name = 75536911
REMARK  3 active torsions:
REMARK  status: ('A' for Active; 'I' for Inactive)
REMARK    1  A    between atoms: O_2  and  C_10
REMARK    2  A    between atoms: O_2  and  C_13
REMARK    3  A    between atoms: N_3  and  C_4
REMARK                            x       y       z     vdW  Elec       q    Type
REMARK                         _______ _______ _______ _____ _____    ______ ____
ROOT
ATOM      1  O   UNL     1       0.985   2.802   0.160  0.00  0.00    -0.375 OA
ATOM      3  N   UNL     1       2.250   0.098   0.024  0.00  0.00    -0.294 NA
ATOM      8  C   UNL     1       0.920  -0.023   0.638  0.00  0.00    +0.131 C 
ATOM      9  C   UNL     1       2.926   1.325   0.484  0.00  0.00    +0.113 C 
ATOM     10  C   UNL     1      -0.192   0.676  -0.152  0.00  0.00    +0.213 C 
ATOM     11  C   UNL     1       2.365   2.603  -0.135  0.00  0.00    +0.175 C 
ATOM     12  C   UNL     1       0.129   2.060  -0.706  0.00  0.00    +0.205 C 
ENDROOT
BRANCH   3   4
ATOM      4  C   UNL     1       3.069  -1.058   0.446  0.00  0.00    +0.057 C 
ATOM      5  C   UNL     1       4.245  -1.235  -0.538  0.00  0.00    +0.019 C 
ATOM      6  C   UNL     1       2.471  -2.350  -0.150  0.00  0.00    +0.019 C 
ATOM      7  C   UNL     1       3.919  -2.746  -0.519  0.00  0.00    +0.003 C 
ENDBRANCH   3   4
BRANCH  10   2
ATOM      2  O   UNL     1      -1.320   0.813   0.720  0.00  0.00    -0.485 OA
BRANCH   2  13
ATOM     13  C   UNL     1      -2.462   0.167   0.341  0.00  0.00    +0.121 A 
ATOM     14  C   UNL     1      -3.070   0.478  -0.875  0.00  0.00    +0.045 A 
ATOM     15  C   UNL     1      -3.020  -0.806   1.171  0.00  0.00    +0.045 A 
ATOM     16  C   UNL     1      -4.236  -0.182  -1.261  0.00  0.00    +0.004 A 
ATOM     17  C   UNL     1      -4.186  -1.467   0.784  0.00  0.00    +0.004 A 
ATOM     18  C   UNL     1      -4.794  -1.155  -0.432  0.00  0.00    +0.000 A 
ENDBRANCH   2  13
ENDBRANCH  10   2
TORSDOF 3
