REMARK  Name = 26763567
REMARK  8 active torsions:
REMARK  status: ('A' for Active; 'I' for Inactive)
REMARK    1  A    between atoms: O_5  and  C_28
REMARK    2  A    between atoms: O_5  and  C_33
REMARK    3  A    between atoms: C_13  and  C_14
REMARK    4  A    between atoms: C_13  and  C_19
REMARK    5  A    between atoms: C_13  and  C_20
REMARK    6  A    between atoms: C_13  and  C_21
REMARK    7  A    between atoms: C_14  and  C_15
REMARK    8  A    between atoms: C_25  and  C_27
REMARK                            x       y       z     vdW  Elec       q    Type
REMARK                         _______ _______ _______ _____ _____    ______ ____
ROOT
ATOM      2  O   UNL     1      -5.599  -0.459   1.553  0.00  0.00    -0.276 OA
ATOM      3  O   UNL     1      -2.621   1.991   0.695  0.00  0.00    -0.273 OA
ATOM      4  O   UNL     1       0.612  -0.950  -2.279  0.00  0.00    -0.270 OA
ATOM      6  N   UNL     1      -3.913  -0.607  -0.040  0.00  0.00    -0.298 N 
ATOM      7  N   UNL     1      -1.109  -0.534  -0.790  0.00  0.00    -0.283 N 
ATOM      8  N   UNL     1      -0.353   2.015   0.508  0.00  0.00    -0.283 N 
ATOM      9  C   UNL     1      -1.524  -0.155   0.553  0.00  0.00    +0.180 C 
ATOM     10  C   UNL     1      -2.859  -0.789   0.962  0.00  0.00    +0.139 C 
ATOM     11  C   UNL     1      -3.494  -0.598  -1.445  0.00  0.00    +0.127 C 
ATOM     12  C   UNL     1      -2.105  -1.187  -1.640  0.00  0.00    +0.128 C 
ATOM     15  C   UNL     1      -5.237  -0.453   0.374  0.00  0.00    +0.216 C 
ATOM     16  C   UNL     1      -1.567   1.365   0.561  0.00  0.00    +0.239 C 
ATOM     17  C   UNL     1       0.212  -0.461  -1.221  0.00  0.00    +0.249 C 
ATOM     18  C   UNL     1       1.202   0.270  -0.386  0.00  0.00    +0.059 A 
ATOM     22  C   UNL     1       0.927   1.457   0.311  0.00  0.00    +0.046 A 
ATOM     23  C   UNL     1       2.530  -0.189  -0.468  0.00  0.00    +0.023 A 
ATOM     24  C   UNL     1       1.998   2.194   0.849  0.00  0.00    +0.024 A 
ATOM     25  C   UNL     1       3.574   0.529   0.114  0.00  0.00    -0.014 A 
ATOM     26  C   UNL     1       3.309   1.729   0.761  0.00  0.00    +0.010 A 
ATOM     34  H   UNL     1      -0.377   3.006   0.736  0.00  0.00    +0.155 HD
ENDROOT
BRANCH  25  27
ATOM      1 CL   UNL     1       8.395   1.317  -1.520  0.00  0.00    -0.084 Cl
ATOM     27  C   UNL     1       4.932   0.038   0.023  0.00  0.00    +0.025 A 
ATOM     28  C   UNL     1       5.285  -1.194   0.572  0.00  0.00    +0.128 A 
ATOM     29  C   UNL     1       5.893   0.815  -0.624  0.00  0.00    +0.032 A 
ATOM     30  C   UNL     1       6.600  -1.650   0.474  0.00  0.00    +0.047 A 
ATOM     31  C   UNL     1       7.208   0.359  -0.722  0.00  0.00    +0.042 A 
ATOM     32  C   UNL     1       7.561  -0.873  -0.173  0.00  0.00    +0.023 A 
BRANCH  28   5
ATOM      5  O   UNL     1       4.367  -1.974   1.210  0.00  0.00    -0.495 OA
ATOM     33  C   UNL     1       4.211  -1.773   2.613  0.00  0.00    +0.277 C 
ENDBRANCH  28   5
ENDBRANCH  25  27
BRANCH  15  14
ATOM     14  C   UNL     1      -6.261  -0.276  -0.720  0.00  0.00    +0.102 C 
BRANCH  14  13
ATOM     13  C   UNL     1      -7.684  -0.060  -0.177  0.00  0.00    -0.029 C 
ATOM     19  C   UNL     1      -8.139  -1.255   0.679  0.00  0.00    +0.011 C 
ATOM     20  C   UNL     1      -8.688   0.162  -1.321  0.00  0.00    +0.011 C 
ATOM     21  C   UNL     1      -7.664   1.199   0.710  0.00  0.00    +0.011 C 
ENDBRANCH  14  13
ENDBRANCH  15  14
TORSDOF 4
