REMARK  Name = 11866308
REMARK  10 active torsions:
REMARK  status: ('A' for Active; 'I' for Inactive)
REMARK    1  A    between atoms: O_1  and  C_10
REMARK    2  A    between atoms: O_2  and  C_11
REMARK    3  A    between atoms: N_6  and  C_12
REMARK    4  A    between atoms: N_7  and  C_17
REMARK    5  A    between atoms: N_8  and  C_22
REMARK    6  A    between atoms: C_14  and  C_16
REMARK    7  A    between atoms: C_17  and  C_19
REMARK    8  A    between atoms: C_17  and  C_20
REMARK    9  A    between atoms: C_19  and  C_21
REMARK   10  A    between atoms: C_32  and  C_33
REMARK                            x       y       z     vdW  Elec       q    Type
REMARK                         _______ _______ _______ _____ _____    ______ ____
ROOT
ATOM     10  C   UNL     1       0.750   3.883   0.298  0.00  0.00    +0.167 C 
ATOM     11  C   UNL     1       2.123   4.212  -0.300  0.00  0.00    +0.149 C 
ATOM     12  C   UNL     1       0.134   2.632  -0.358  0.00  0.00    +0.129 C 
ATOM     13  C   UNL     1       3.097   3.025  -0.202  0.00  0.00    +0.074 C 
ATOM     14  C   UNL     1       2.443   1.696  -0.452  0.00  0.00    +0.015 C 
ATOM     15  C   UNL     1       1.117   1.507  -0.532  0.00  0.00    +0.006 C 
ENDROOT
BRANCH  12   6
ATOM      4  O   UNL     1      -2.162   1.288  -1.420  0.00  0.00    -0.252 OA
ATOM      6  N   UNL     1      -1.003   2.147   0.387  0.00  0.00    -0.290 N 
ATOM      8  N   UNL     1      -3.035   1.142   0.754  0.00  0.00    -0.269 N 
ATOM     18  C   UNL     1      -2.089   1.497  -0.212  0.00  0.00    +0.304 C 
ATOM     34  H   UNL     1      -0.975   2.207   1.400  0.00  0.00    +0.151 HD
ATOM     38  H   UNL     1      -2.821   1.391   1.716  0.00  0.00    +0.156 HD
BRANCH   8  22
ATOM     22  C   UNL     1      -4.266   0.474   0.558  0.00  0.00    +0.035 A 
ATOM     27  C   UNL     1      -4.655   0.088  -0.725  0.00  0.00    +0.023 A 
ATOM     28  C   UNL     1      -5.092   0.200   1.649  0.00  0.00    +0.023 A 
ATOM     30  C   UNL     1      -5.869  -0.571  -0.917  0.00  0.00    +0.005 A 
ATOM     31  C   UNL     1      -6.306  -0.459   1.456  0.00  0.00    +0.005 A 
ATOM     32  C   UNL     1      -6.694  -0.844   0.173  0.00  0.00    -0.050 A 
ATOM     33  C   UNL     1      -7.993  -1.548  -0.032  0.00  0.00    +0.044 C 
ENDBRANCH   8  22
ENDBRANCH  12   6
BRANCH  14  16
ATOM      3  O   UNL     1       4.134   0.492  -1.551  0.00  0.00    -0.271 OA
ATOM      7  N   UNL     1       3.073  -0.474   0.286  0.00  0.00    -0.300 N 
ATOM     16  C   UNL     1       3.306   0.526  -0.642  0.00  0.00    +0.241 C 
ATOM     37  H   UNL     1       2.422  -0.300   1.047  0.00  0.00    +0.150 HD
BRANCH   7  17
ATOM     17  C   UNL     1       3.799  -1.723   0.299  0.00  0.00    +0.163 C 
BRANCH  17  20
ATOM      5  O   UNL     1       5.117  -0.763   2.100  0.00  0.00    -0.274 OA
ATOM      9  N   UNL     1       6.128  -2.250   0.670  0.00  0.00    -0.328 N 
ATOM     20  C   UNL     1       5.061  -1.499   1.118  0.00  0.00    +0.231 C 
ATOM     39  H   UNL     1       7.028  -2.205   1.136  0.00  0.00    +0.145 HD
ATOM     40  H   UNL     1       6.061  -2.871  -0.130  0.00  0.00    +0.145 HD
ENDBRANCH  17  20
BRANCH  17  19
ATOM     19  C   UNL     1       2.972  -2.868   0.896  0.00  0.00    +0.067 C 
BRANCH  19  21
ATOM     21  C   UNL     1       1.689  -3.118   0.141  0.00  0.00    -0.045 A 
ATOM     23  C   UNL     1       1.671  -4.021  -0.922  0.00  0.00    +0.004 A 
ATOM     24  C   UNL     1       0.522  -2.446   0.505  0.00  0.00    +0.004 A 
ATOM     25  C   UNL     1       0.486  -4.252  -1.621  0.00  0.00    +0.000 A 
ATOM     26  C   UNL     1      -0.663  -2.677  -0.193  0.00  0.00    +0.000 A 
ATOM     29  C   UNL     1      -0.681  -3.580  -1.256  0.00  0.00    +0.000 A 
ENDBRANCH  19  21
ENDBRANCH  17  19
ENDBRANCH   7  17
ENDBRANCH  14  16
BRANCH  10   1
ATOM      1  O   UNL     1       0.901   3.664   1.702  0.00  0.00    -0.387 OA
ATOM     35  H   UNL     1       1.262   4.480   2.088  0.00  0.00    +0.210 HD
ENDBRANCH  10   1
BRANCH  11   2
ATOM      2  O   UNL     1       1.983   4.618  -1.660  0.00  0.00    -0.389 OA
ATOM     36  H   UNL     1       2.866   4.860  -1.988  0.00  0.00    +0.210 HD
ENDBRANCH  11   2
TORSDOF 9
