REMARK  Name = 75368563
REMARK  3 active torsions:
REMARK  status: ('A' for Active; 'I' for Inactive)
REMARK    1  A    between atoms: N_3  and  C_12
REMARK    2  A    between atoms: C_12  and  C_13
REMARK    3  A    between atoms: C_14  and  C_16
REMARK                            x       y       z     vdW  Elec       q    Type
REMARK                         _______ _______ _______ _____ _____    ______ ____
ROOT
ATOM      1  O   UNL     1      -5.085   0.549   0.049  0.00  0.00    -0.253 OA
ATOM      2  N   UNL     1      -2.748   0.325   0.212  0.00  0.00    -0.279 N 
ATOM      3  N   UNL     1      -0.023   0.697  -0.372  0.00  0.00    -0.293 NA
ATOM      4  N   UNL     1      -4.020  -1.523   0.325  0.00  0.00    -0.297 N 
ATOM      6  C   UNL     1      -1.815  -0.742   0.507  0.00  0.00    +0.109 C 
ATOM      7  C   UNL     1      -0.604  -0.660  -0.421  0.00  0.00    +0.109 C 
ATOM      8  C   UNL     1      -2.259   1.682   0.090  0.00  0.00    +0.125 C 
ATOM      9  C   UNL     1      -2.657  -2.006   0.356  0.00  0.00    +0.129 C 
ATOM     10  C   UNL     1      -1.012   1.710  -0.797  0.00  0.00    +0.104 C 
ATOM     11  C   UNL     1      -4.073  -0.124   0.182  0.00  0.00    +0.303 C 
ATOM     19  H   UNL     1      -4.839  -2.122   0.321  0.00  0.00    +0.150 HD
ENDROOT
BRANCH   3  12
ATOM     12  C   UNL     1       1.173   0.769  -1.211  0.00  0.00    +0.140 C 
BRANCH  12  13
ATOM      5  N   UNL     1       2.705  -1.095  -1.011  0.00  0.00    -0.258 NA
ATOM     13  C   UNL     1       2.363   0.129  -0.548  0.00  0.00    +0.058 A 
ATOM     14  C   UNL     1       3.033   0.788   0.469  0.00  0.00    -0.028 A 
ATOM     15  C   UNL     1       4.125   0.152   1.049  0.00  0.00    +0.006 A 
ATOM     16  C   UNL     1       2.619   2.137   0.946  0.00  0.00    +0.045 C 
ATOM     17  C   UNL     1       3.771  -1.682  -0.424  0.00  0.00    +0.111 A 
ATOM     18  C   UNL     1       4.508  -1.107   0.599  0.00  0.00    +0.020 A 
ENDBRANCH  12  13
ENDBRANCH   3  12
TORSDOF 2
