REMARK  Name = 45783303
REMARK  4 active torsions:
REMARK  status: ('A' for Active; 'I' for Inactive)
REMARK    1  A    between atoms: N_3  and  C_14
REMARK    2  A    between atoms: C_10  and  C_15
REMARK    3  A    between atoms: C_14  and  C_16
REMARK    4  A    between atoms: C_17  and  C_20
REMARK                            x       y       z     vdW  Elec       q    Type
REMARK                         _______ _______ _______ _____ _____    ______ ____
ROOT
ATOM      1  O   UNL     1      -2.616   2.296   0.257  0.00  0.00    -0.336 OA
ATOM      4  N   UNL     1      -1.183   0.605   0.580  0.00  0.00    -0.190 NA
ATOM      7  N   UNL     1      -1.342   2.805  -0.026  0.00  0.00    -0.056 NA
ATOM     15  C   UNL     1      -2.432   0.996   0.605  0.00  0.00    +0.245 A 
ATOM     17  C   UNL     1      -0.552   1.749   0.187  0.00  0.00    +0.202 A 
ENDROOT
BRANCH  17  20
ATOM      2  O   UNL     1       5.486  -2.587   0.591  0.00  0.00    -0.377 OA
ATOM      5  N   UNL     1       3.783  -0.368   0.316  0.00  0.00    -0.311 N 
ATOM      9  N   UNL     1       3.645   1.909  -0.316  0.00  0.00    -0.240 NA
ATOM     18  C   UNL     1       3.543  -1.587  -0.463  0.00  0.00    +0.134 C 
ATOM     19  C   UNL     1       5.162  -0.191   0.792  0.00  0.00    +0.134 C 
ATOM     20  C   UNL     1       0.872   1.803   0.017  0.00  0.00    +0.027 A 
ATOM     21  C   UNL     1       3.017   0.777   0.074  0.00  0.00    +0.122 A 
ATOM     22  C   UNL     1       4.109  -2.793   0.279  0.00  0.00    +0.178 C 
ATOM     23  C   UNL     1       5.641  -1.471   1.468  0.00  0.00    +0.178 C 
ATOM     24  C   UNL     1       1.647   0.673   0.253  0.00  0.00    +0.055 A 
ATOM     27  C   UNL     1       1.482   2.986  -0.384  0.00  0.00    +0.031 A 
ATOM     28  C   UNL     1       2.859   2.987  -0.535  0.00  0.00    +0.113 A 
ENDBRANCH  17  20
BRANCH  15  10
ATOM      3  N   UNL     1      -3.531  -1.235   0.701  0.00  0.00    -0.284 NA
ATOM     10  C   UNL     1      -3.677   0.211   0.962  0.00  0.00    +0.146 C 
ATOM     11  C   UNL     1      -4.030   0.304   2.458  0.00  0.00    +0.030 C 
ATOM     12  C   UNL     1      -4.120  -1.138   2.937  0.00  0.00    +0.017 C 
ATOM     13  C   UNL     1      -4.391  -1.919   1.667  0.00  0.00    +0.085 C 
BRANCH   3  14
ATOM     14  C   UNL     1      -3.845  -1.606  -0.672  0.00  0.00    +0.159 C 
BRANCH  14  16
ATOM      6  N   UNL     1      -2.859  -0.474  -2.678  0.00  0.00    -0.347 N 
ATOM      8  N   UNL     1      -1.480  -1.785  -1.533  0.00  0.00    -0.239 NA
ATOM     16  C   UNL     1      -2.704  -1.311  -1.608  0.00  0.00    +0.121 A 
ATOM     25  C   UNL     1      -1.658  -0.410  -3.327  0.00  0.00    +0.104 A 
ATOM     26  C   UNL     1      -0.823  -1.228  -2.602  0.00  0.00    +0.130 A 
ATOM     29  H   UNL     1      -3.706   0.012  -2.943  0.00  0.00    +0.167 HD
ENDBRANCH  14  16
ENDBRANCH   3  14
ENDBRANCH  15  10
TORSDOF 4
