REMARK  Name = 28962421
REMARK  16 active torsions:
REMARK  status: ('A' for Active; 'I' for Inactive)
REMARK    1  A    between atoms: O_1  and  C_11
REMARK    2  A    between atoms: O_4  and  C_27
REMARK    3  A    between atoms: O_4  and  C_29
REMARK    4  A    between atoms: O_5  and  C_28
REMARK    5  A    between atoms: O_5  and  C_30
REMARK    6  A    between atoms: N_6  and  C_15
REMARK    7  A    between atoms: N_7  and  C_25
REMARK    8  A    between atoms: N_7  and  C_26
REMARK    9  A    between atoms: C_8  and  C_18
REMARK   10  A    between atoms: C_10  and  C_20
REMARK   11  A    between atoms: C_13  and  C_19
REMARK   12  A    between atoms: C_19  and  C_21
REMARK   13  A    between atoms: C_19  and  C_22
REMARK   14  A    between atoms: C_23  and  C_24
REMARK   15  A    between atoms: C_25  and  C_27
REMARK   16  A    between atoms: C_26  and  C_28
REMARK                            x       y       z     vdW  Elec       q    Type
REMARK                         _______ _______ _______ _____ _____    ______ ____
ROOT
ATOM      8  C   UNL     1      -1.864  -1.556  -0.462  0.00  0.00    -0.027 C 
ATOM      9  C   UNL     1      -1.733  -0.024  -0.172  0.00  0.00    +0.028 C 
ATOM     10  C   UNL     1      -3.084   0.719  -0.472  0.00  0.00    +0.012 C 
ATOM     11  C   UNL     1      -0.473   0.575  -0.862  0.00  0.00    +0.122 C 
ATOM     12  C   UNL     1      -0.556  -2.273  -0.049  0.00  0.00    +0.007 C 
ATOM     13  C   UNL     1       0.817  -0.210  -0.529  0.00  0.00    +0.029 C 
ATOM     14  C   UNL     1      -3.009  -2.136   0.400  0.00  0.00    +0.009 C 
ATOM     15  C   UNL     1      -4.243   0.079   0.343  0.00  0.00    +0.076 C 
ATOM     16  C   UNL     1       0.674  -1.715  -0.753  0.00  0.00    +0.007 C 
ATOM     17  C   UNL     1      -4.342  -1.436   0.171  0.00  0.00    +0.023 C 
ATOM     18  C   UNL     1      -2.146  -1.857  -1.955  0.00  0.00    +0.011 C 
ATOM     20  C   UNL     1      -3.034   2.229  -0.181  0.00  0.00    +0.010 C 
ENDROOT
BRANCH  15   6
ATOM      3  O   UNL     1      -6.532   0.449   2.090  0.00  0.00    -0.276 OA
ATOM      6  N   UNL     1      -5.523   0.664   0.003  0.00  0.00    -0.312 N 
ATOM     23  C   UNL     1      -6.557   0.796   0.912  0.00  0.00    +0.210 C 
ATOM     24  C   UNL     1      -7.765   1.458   0.305  0.00  0.00    +0.109 C 
ATOM     31  H   UNL     1      -5.682   0.934  -0.964  0.00  0.00    +0.149 HD
ENDBRANCH  15   6
BRANCH  11   1
ATOM      1  O   UNL     1      -0.268   1.912  -0.404  0.00  0.00    -0.391 OA
ATOM     32  H   UNL     1      -0.137   1.884   0.560  0.00  0.00    +0.210 HD
ENDBRANCH  11   1
BRANCH  13  19
ATOM     19  C   UNL     1       2.022   0.314  -1.319  0.00  0.00    +0.078 C 
ATOM     21  C   UNL     1       1.752   0.167  -2.818  0.00  0.00    +0.017 C 
BRANCH  19  22
ATOM      2  O   UNL     1       3.582  -1.494  -1.505  0.00  0.00    -0.275 OA
ATOM      7  N   UNL     1       4.042   0.059   0.148  0.00  0.00    -0.297 N 
ATOM     22  C   UNL     1       3.283  -0.452  -0.910  0.00  0.00    +0.219 C 
BRANCH   7  25
ATOM     25  C   UNL     1       5.237  -0.659   0.577  0.00  0.00    +0.136 C 
BRANCH  25  27
ATOM     27  C   UNL     1       4.919  -1.678   1.656  0.00  0.00    +0.178 C 
BRANCH  27   4
ATOM      4  O   UNL     1       3.957  -2.602   1.164  0.00  0.00    -0.381 OA
ATOM     29  C   UNL     1       3.621  -3.576   2.143  0.00  0.00    +0.194 C 
ENDBRANCH  27   4
ENDBRANCH  25  27
ENDBRANCH   7  25
BRANCH   7  26
ATOM     26  C   UNL     1       3.779   1.297   0.878  0.00  0.00    +0.136 C 
BRANCH  26  28
ATOM     28  C   UNL     1       4.481   2.481   0.239  0.00  0.00    +0.178 C 
BRANCH  28   5
ATOM      5  O   UNL     1       4.166   3.664   0.963  0.00  0.00    -0.381 OA
ATOM     30  C   UNL     1       4.798   4.804   0.397  0.00  0.00    +0.194 C 
ENDBRANCH  28   5
ENDBRANCH  26  28
ENDBRANCH   7  26
ENDBRANCH  19  22
ENDBRANCH  13  19
TORSDOF 10
