REMARK  Name = 11865554
REMARK  8 active torsions:
REMARK  status: ('A' for Active; 'I' for Inactive)
REMARK    1  A    between atoms: O_3  and  C_13
REMARK    2  A    between atoms: O_3  and  C_17
REMARK    3  A    between atoms: N_6  and  C_12
REMARK    4  A    between atoms: N_7  and  C_19
REMARK    5  A    between atoms: C_16  and  C_18
REMARK    6  A    between atoms: C_22  and  C_23
REMARK    7  A    between atoms: C_22  and  C_28
REMARK    8  A    between atoms: C_22  and  C_29
REMARK                            x       y       z     vdW  Elec       q    Type
REMARK                         _______ _______ _______ _____ _____    ______ ____
ROOT
ATOM      1  O   UNL     1      -0.949   1.329   0.956  0.00  0.00    -0.368 OA
ATOM      2  O   UNL     1      -2.162   3.635  -0.660  0.00  0.00    -0.368 OA
ATOM     10  C   UNL     1      -2.326   2.205  -0.763  0.00  0.00    +0.173 C 
ATOM     11  C   UNL     1      -0.978   1.585  -0.458  0.00  0.00    +0.192 C 
ATOM     12  C   UNL     1      -3.217   1.703   0.349  0.00  0.00    +0.130 C 
ATOM     13  C   UNL     1      -0.018   2.684  -0.847  0.00  0.00    +0.235 C 
ATOM     14  C   UNL     1      -2.247   1.591   1.512  0.00  0.00    +0.185 C 
ATOM     15  C   UNL     1      -0.774   3.928  -0.440  0.00  0.00    +0.207 C 
ENDROOT
BRANCH  12   6
ATOM      4  O   UNL     1      -5.662   0.606   1.379  0.00  0.00    -0.270 OA
ATOM      6  N   UNL     1      -3.792   0.422   0.020  0.00  0.00    -0.304 N 
ATOM     16  C   UNL     1      -4.985  -0.024   0.572  0.00  0.00    +0.247 C 
ATOM     31  H   UNL     1      -3.240  -0.198  -0.563  0.00  0.00    +0.149 HD
BRANCH  16  18
ATOM      8  N   UNL     1      -6.637  -3.373   0.614  0.00  0.00    -0.243 NA
ATOM      9  N   UNL     1      -5.451  -3.116  -1.468  0.00  0.00    -0.243 NA
ATOM     18  C   UNL     1      -5.430  -1.378   0.152  0.00  0.00    +0.073 A 
ATOM     20  C   UNL     1      -6.215  -2.140   0.963  0.00  0.00    +0.127 A 
ATOM     21  C   UNL     1      -5.065  -1.891  -1.055  0.00  0.00    +0.127 A 
ATOM     30  C   UNL     1      -6.224  -3.792  -0.598  0.00  0.00    +0.221 A 
ENDBRANCH  16  18
ENDBRANCH  12   6
BRANCH  13   3
ATOM      3  O   UNL     1       1.234   2.591  -0.205  0.00  0.00    -0.442 OA
BRANCH   3  17
ATOM      5  O   UNL     1       1.617   0.584  -1.233  0.00  0.00    -0.226 OA
ATOM      7  N   UNL     1       3.180   1.534   0.228  0.00  0.00    -0.251 N 
ATOM     17  C   UNL     1       1.992   1.470  -0.475  0.00  0.00    +0.405 C 
ATOM     32  H   UNL     1       3.312   2.357   0.811  0.00  0.00    +0.158 HD
BRANCH   7  19
ATOM     19  C   UNL     1       4.237   0.597   0.238  0.00  0.00    +0.036 A 
ATOM     23  C   UNL     1       6.311  -1.242   0.258  0.00  0.00    -0.045 A 
ATOM     24  C   UNL     1       5.357   0.844   1.016  0.00  0.00    +0.024 A 
ATOM     25  C   UNL     1       4.134  -0.552  -0.530  0.00  0.00    +0.024 A 
ATOM     26  C   UNL     1       6.401  -0.081   1.026  0.00  0.00    +0.006 A 
ATOM     27  C   UNL     1       5.177  -1.478  -0.520  0.00  0.00    +0.006 A 
BRANCH  23  22
ATOM     22  C   UNL     1       7.427  -2.232   0.269  0.00  0.00    +0.013 C 
ATOM     28  C   UNL     1       6.992  -3.603   0.818  0.00  0.00    +0.012 C 
ATOM     29  C   UNL     1       8.073  -2.405  -1.119  0.00  0.00    +0.012 C 
ENDBRANCH  23  22
ENDBRANCH   7  19
ENDBRANCH   3  17
ENDBRANCH  13   3
TORSDOF 6
