REMARK  Name = 11883039
REMARK  9 active torsions:
REMARK  status: ('A' for Active; 'I' for Inactive)
REMARK    1  A    between atoms: O_4  and  C_16
REMARK    2  A    between atoms: O_5  and  C_21
REMARK    3  A    between atoms: N_9  and  C_27
REMARK    4  A    between atoms: C_11  and  C_19
REMARK    5  A    between atoms: C_13  and  C_21
REMARK    6  A    between atoms: C_13  and  C_22
REMARK    7  A    between atoms: C_14  and  C_24
REMARK    8  A    between atoms: C_24  and  C_25
REMARK    9  A    between atoms: C_30  and  C_31
REMARK                            x       y       z     vdW  Elec       q    Type
REMARK                         _______ _______ _______ _____ _____    ______ ____
ROOT
ATOM      1  S   UNL     1       0.135   2.633   0.080  0.00  0.00    -0.057 S 
ATOM      7  O   UNL     1       3.406  -0.676  -0.082  0.00  0.00    -0.270 OA
ATOM      8  N   UNL     1       0.547   0.081  -0.030  0.00  0.00    -0.229 NA
ATOM     10  N   UNL     1       2.498   1.497   0.018  0.00  0.00    -0.261 N 
ATOM     11  C   UNL     1      -3.255  -0.419   0.374  0.00  0.00    -0.019 C 
ATOM     12  C   UNL     1      -3.593   0.945  -0.374  0.00  0.00    +0.011 C 
ATOM     13  C   UNL     1      -5.109   1.377  -0.423  0.00  0.00    +0.021 C 
ATOM     14  C   UNL     1      -1.788  -0.873  -0.068  0.00  0.00    +0.054 C 
ATOM     15  C   UNL     1      -4.260  -1.514  -0.069  0.00  0.00    +0.010 C 
ATOM     16  C   UNL     1      -5.977   0.156  -0.838  0.00  0.00    +0.123 C 
ATOM     17  C   UNL     1      -2.630   2.087   0.062  0.00  0.00    +0.049 C 
ATOM     18  C   UNL     1      -5.717  -1.083   0.012  0.00  0.00    +0.032 C 
ATOM     19  C   UNL     1      -3.310  -0.289   1.917  0.00  0.00    +0.012 C 
ATOM     20  C   UNL     1      -0.821   0.281  -0.003  0.00  0.00    +0.058 A 
ATOM     22  C   UNL     1      -5.291   2.467  -1.518  0.00  0.00    +0.016 C 
ATOM     23  C   UNL     1      -1.220   1.602   0.036  0.00  0.00    +0.015 A 
ATOM     26  C   UNL     1       1.150   1.249   0.017  0.00  0.00    +0.165 A 
ATOM     30  C   UNL     1       3.527   0.543  -0.030  0.00  0.00    +0.255 C 
ATOM     40  H   UNL     1       2.740   2.483   0.040  0.00  0.00    +0.157 HD
ENDROOT
BRANCH  30  31
ATOM      2  F   UNL     1       4.204   2.987   1.208  0.00  0.00    -0.205 F 
ATOM      3  F   UNL     1       5.680  -0.766  -1.301  0.00  0.00    -0.205 F 
ATOM     31  C   UNL     1       4.907   1.097  -0.046  0.00  0.00    +0.107 A 
ATOM     32  C   UNL     1       5.179   2.311   0.584  0.00  0.00    +0.138 A 
ATOM     33  C   UNL     1       5.930   0.402  -0.692  0.00  0.00    +0.138 A 
ATOM     34  C   UNL     1       6.474   2.830   0.568  0.00  0.00    +0.039 A 
ATOM     35  C   UNL     1       7.224   0.921  -0.708  0.00  0.00    +0.039 A 
ATOM     36  C   UNL     1       7.496   2.136  -0.078  0.00  0.00    +0.006 A 
ENDBRANCH  30  31
BRANCH  16   4
ATOM      4  O   UNL     1      -7.366   0.478  -0.767  0.00  0.00    -0.391 OA
ATOM     37  H   UNL     1      -7.865  -0.296  -1.078  0.00  0.00    +0.210 HD
ENDBRANCH  16   4
BRANCH  13  21
ATOM     21  C   UNL     1      -5.638   2.010   0.884  0.00  0.00    +0.165 C 
BRANCH  21   5
ATOM      5  O   UNL     1      -6.991   2.351   0.682  0.00  0.00    -0.394 OA
ATOM     38  H   UNL     1      -7.314   2.757   1.504  0.00  0.00    +0.209 HD
ENDBRANCH  21   5
ENDBRANCH  13  21
BRANCH  14  24
ATOM     24  C   UNL     1      -1.248  -2.101   0.678  0.00  0.00    +0.106 C 
BRANCH  24  25
ATOM      6  O   UNL     1       0.079  -2.562  -1.295  0.00  0.00    -0.276 OA
ATOM      9  N   UNL     1       0.208  -3.992   0.529  0.00  0.00    -0.312 N 
ATOM     25  C   UNL     1      -0.259  -2.880  -0.158  0.00  0.00    +0.214 C 
ATOM     39  H   UNL     1      -0.131  -4.185   1.468  0.00  0.00    +0.149 HD
BRANCH   9  27
ATOM     27  C   UNL     1       1.159  -4.905  -0.037  0.00  0.00    +0.073 C 
ATOM     28  C   UNL     1       2.632  -4.633   0.030  0.00  0.00    +0.024 C 
ATOM     29  C   UNL     1       2.038  -5.749   0.838  0.00  0.00    +0.024 C 
ENDBRANCH   9  27
ENDBRANCH  24  25
ENDBRANCH  14  24
TORSDOF 7
