REMARK  Name = 45784363
REMARK  12 active torsions:
REMARK  status: ('A' for Active; 'I' for Inactive)
REMARK    1  A    between atoms: O_3  and  C_12
REMARK    2  A    between atoms: O_6  and  C_25
REMARK    3  A    between atoms: O_6  and  C_28
REMARK    4  A    between atoms: N_7  and  C_16
REMARK    5  A    between atoms: N_8  and  C_26
REMARK    6  A    between atoms: C_9  and  C_19
REMARK    7  A    between atoms: C_11  and  C_21
REMARK    8  A    between atoms: C_15  and  C_20
REMARK    9  A    between atoms: C_20  and  C_22
REMARK   10  A    between atoms: C_20  and  C_23
REMARK   11  A    between atoms: C_24  and  C_25
REMARK   12  A    between atoms: C_26  and  C_27
REMARK                            x       y       z     vdW  Elec       q    Type
REMARK                         _______ _______ _______ _____ _____    ______ ____
ROOT
ATOM      9  C   UNL     1       1.100  -0.180   1.248  0.00  0.00    -0.027 C 
ATOM     10  C   UNL     1       1.499   0.660  -0.011  0.00  0.00    +0.028 C 
ATOM     11  C   UNL     1       3.039   0.972  -0.010  0.00  0.00    +0.012 C 
ATOM     12  C   UNL     1       0.567   1.894  -0.183  0.00  0.00    +0.122 C 
ATOM     13  C   UNL     1      -0.395  -0.565   1.159  0.00  0.00    +0.007 C 
ATOM     14  C   UNL     1       1.923  -1.488   1.262  0.00  0.00    +0.009 C 
ATOM     15  C   UNL     1      -0.932   1.514  -0.168  0.00  0.00    +0.029 C 
ATOM     16  C   UNL     1       3.855  -0.348   0.080  0.00  0.00    +0.076 C 
ATOM     17  C   UNL     1      -1.313   0.644   1.029  0.00  0.00    +0.007 C 
ATOM     18  C   UNL     1       3.426  -1.250   1.237  0.00  0.00    +0.023 C 
ATOM     19  C   UNL     1       1.339   0.587   2.574  0.00  0.00    +0.011 C 
ATOM     21  C   UNL     1       3.506   1.773  -1.238  0.00  0.00    +0.010 C 
ENDROOT
BRANCH  16   7
ATOM      5  O   UNL     1       6.015  -1.982  -0.934  0.00  0.00    -0.273 OA
ATOM      7  N   UNL     1       5.275  -0.092   0.200  0.00  0.00    -0.310 N 
ATOM     24  C   UNL     1       6.236  -0.941  -0.323  0.00  0.00    +0.239 C 
ATOM     34  H   UNL     1       5.571   0.712   0.746  0.00  0.00    +0.149 HD
BRANCH  24  25
ATOM     25  C   UNL     1       7.636  -0.431  -0.053  0.00  0.00    +0.255 C 
BRANCH  25   6
ATOM      6  O   UNL     1       8.599  -1.302  -0.606  0.00  0.00    -0.374 OA
ATOM     28  C   UNL     1       9.928  -0.847  -0.366  0.00  0.00    +0.194 C 
ENDBRANCH  25   6
ENDBRANCH  24  25
ENDBRANCH  16   7
BRANCH  12   3
ATOM      3  O   UNL     1       0.819   2.509  -1.448  0.00  0.00    -0.391 OA
ATOM     35  H   UNL     1       0.644   1.853  -2.144  0.00  0.00    +0.210 HD
ENDBRANCH  12   3
BRANCH  15  20
ATOM     20  C   UNL     1      -1.833   2.755  -0.207  0.00  0.00    +0.077 C 
ATOM     22  C   UNL     1      -1.549   3.649   0.995  0.00  0.00    +0.017 C 
BRANCH  20  23
ATOM      4  O   UNL     1      -4.115   2.672   0.602  0.00  0.00    -0.276 OA
ATOM      8  N   UNL     1      -3.587   1.530  -1.346  0.00  0.00    -0.311 N 
ATOM     23  C   UNL     1      -3.298   2.331  -0.251  0.00  0.00    +0.216 C 
ATOM     36  H   UNL     1      -2.869   1.336  -2.036  0.00  0.00    +0.149 HD
BRANCH   8  26
ATOM     26  C   UNL     1      -4.908   1.003  -1.602  0.00  0.00    +0.139 C 
BRANCH  26  27
ATOM      1  F   UNL     1      -6.828  -1.782   1.910  0.00  0.00    -0.205 F 
ATOM      2  F   UNL     1      -4.163  -3.813  -1.435  0.00  0.00    -0.205 F 
ATOM     27  C   UNL     1      -5.114  -0.335  -0.954  0.00  0.00    -0.025 A 
ATOM     29  C   UNL     1      -4.530  -1.475  -1.506  0.00  0.00    +0.043 A 
ATOM     30  C   UNL     1      -5.891  -0.439   0.200  0.00  0.00    +0.043 A 
ATOM     31  C   UNL     1      -6.083  -1.682   0.802  0.00  0.00    +0.126 A 
ATOM     32  C   UNL     1      -4.722  -2.719  -0.905  0.00  0.00    +0.126 A 
ATOM     33  C   UNL     1      -5.499  -2.822   0.249  0.00  0.00    +0.076 A 
ENDBRANCH  26  27
ENDBRANCH   8  26
ENDBRANCH  20  23
ENDBRANCH  15  20
TORSDOF 8
