REMARK  Name = 45783654
REMARK  7 active torsions:
REMARK  status: ('A' for Active; 'I' for Inactive)
REMARK    1  A    between atoms: O_2  and  C_26
REMARK    2  A    between atoms: N_4  and  C_14
REMARK    3  A    between atoms: N_8  and  C_28
REMARK    4  A    between atoms: C_10  and  C_15
REMARK    5  A    between atoms: C_14  and  C_16
REMARK    6  A    between atoms: C_19  and  C_22
REMARK    7  A    between atoms: C_23  and  C_26
REMARK                            x       y       z     vdW  Elec       q    Type
REMARK                         _______ _______ _______ _____ _____    ______ ____
ROOT
ATOM      4  N   UNL     1      -4.211  -0.633  -0.900  0.00  0.00    -0.287 NA
ATOM     10  C   UNL     1      -3.943  -1.448   0.302  0.00  0.00    +0.146 C 
ATOM     11  C   UNL     1      -4.431  -2.861  -0.066  0.00  0.00    +0.030 C 
ATOM     12  C   UNL     1      -5.013  -2.729  -1.467  0.00  0.00    +0.017 C 
ATOM     13  C   UNL     1      -5.351  -1.256  -1.575  0.00  0.00    +0.085 C 
ENDROOT
BRANCH  10  15
ATOM      1  O   UNL     1      -2.220  -1.619   2.027  0.00  0.00    -0.336 OA
ATOM      5  N   UNL     1      -1.420  -1.232  -0.028  0.00  0.00    -0.190 NA
ATOM      6  N   UNL     1      -0.828  -1.551   2.158  0.00  0.00    -0.056 NA
ATOM     15  C   UNL     1      -2.485  -1.421   0.709  0.00  0.00    +0.245 A 
ATOM     19  C   UNL     1      -0.428  -1.320   0.904  0.00  0.00    +0.204 A 
BRANCH  19  22
ATOM      7  N   UNL     1       3.271  -1.135   1.242  0.00  0.00    -0.237 NA
ATOM     22  C   UNL     1       0.955  -1.174   0.550  0.00  0.00    +0.041 A 
ATOM     24  C   UNL     1       1.336  -0.936  -0.766  0.00  0.00    +0.017 A 
ATOM     25  C   UNL     1       1.951  -1.264   1.508  0.00  0.00    +0.124 A 
ATOM     27  C   UNL     1       2.684  -0.798  -1.079  0.00  0.00    +0.047 A 
ATOM     28  C   UNL     1       3.603  -0.905  -0.048  0.00  0.00    +0.139 A 
BRANCH  28   8
ATOM      8  N   UNL     1       4.948  -0.767  -0.355  0.00  0.00    -0.290 N 
ATOM      9  N   UNL     1       7.148  -0.670  -0.069  0.00  0.00    -0.244 NA
ATOM     29  C   UNL     1       5.476  -0.533  -1.593  0.00  0.00    +0.114 A 
ATOM     30  C   UNL     1       5.990  -0.842   0.527  0.00  0.00    +0.205 A 
ATOM     31  C   UNL     1       6.835  -0.476  -1.391  0.00  0.00    +0.130 A 
ENDBRANCH  28   8
ENDBRANCH  19  22
ENDBRANCH  10  15
BRANCH   4  14
ATOM     14  C   UNL     1      -4.453   0.772  -0.599  0.00  0.00    +0.120 C 
BRANCH  14  16
ATOM     16  C   UNL     1      -3.170   1.524  -0.363  0.00  0.00    -0.033 A 
ATOM     17  C   UNL     1      -2.957   2.174   0.852  0.00  0.00    +0.006 A 
ATOM     18  C   UNL     1      -2.195   1.569  -1.359  0.00  0.00    +0.006 A 
ATOM     20  C   UNL     1      -1.768   2.870   1.071  0.00  0.00    +0.015 A 
ATOM     21  C   UNL     1      -1.006   2.266  -1.141  0.00  0.00    +0.015 A 
ATOM     23  C   UNL     1      -0.793   2.916   0.075  0.00  0.00    +0.059 A 
BRANCH  23  26
ATOM      3  O   UNL     1       0.740   4.251   1.337  0.00  0.00    -0.245 OA
ATOM     26  C   UNL     1       0.447   3.642   0.303  0.00  0.00    +0.337 C 
BRANCH  26   2
ATOM      2  O   UNL     1       1.287   3.586  -0.767  0.00  0.00    -0.477 OA
ATOM     32  H   UNL     1       2.120   4.077  -0.602  0.00  0.00    +0.295 HD
ENDBRANCH  26   2
ENDBRANCH  23  26
ENDBRANCH  14  16
ENDBRANCH   4  14
TORSDOF 7
