REMARK  Name = 71693635
REMARK  8 active torsions:
REMARK  status: ('A' for Active; 'I' for Inactive)
REMARK    1  A    between atoms: O_2  and  C_11
REMARK    2  A    between atoms: N_5  and  C_14
REMARK    3  A    between atoms: N_6  and  C_19
REMARK    4  A    between atoms: N_7  and  C_20
REMARK    5  A    between atoms: C_8  and  C_11
REMARK    6  A    between atoms: C_9  and  C_10
REMARK    7  A    between atoms: C_20  and  C_22
REMARK    8  A    between atoms: C_20  and  C_23
REMARK                            x       y       z     vdW  Elec       q    Type
REMARK                         _______ _______ _______ _____ _____    ______ ____
ROOT
ATOM     10  C   UNL     1       0.962  -0.269   0.083  0.00  0.00    -0.017 A 
ATOM     15  C   UNL     1       0.504  -0.474  -1.219  0.00  0.00    +0.008 A 
ATOM     16  C   UNL     1       0.052  -0.028   1.112  0.00  0.00    +0.008 A 
ATOM     17  C   UNL     1      -0.864  -0.439  -1.490  0.00  0.00    +0.024 A 
ATOM     18  C   UNL     1      -1.316   0.007   0.841  0.00  0.00    +0.024 A 
ATOM     19  C   UNL     1      -1.774  -0.198  -0.461  0.00  0.00    +0.035 A 
ENDROOT
BRANCH  10   9
ATOM      1  O   UNL     1       2.897  -1.630   0.082  0.00  0.00    -0.361 OA
ATOM      3  O   UNL     1       6.426  -1.140   0.099  0.00  0.00    -0.273 OA
ATOM      5  N   UNL     1       4.736   0.413  -0.305  0.00  0.00    -0.295 N 
ATOM      8  C   UNL     1       3.285   0.678  -0.458  0.00  0.00    +0.134 C 
ATOM      9  C   UNL     1       2.446  -0.307   0.379  0.00  0.00    +0.171 C 
ATOM     12  C   UNL     1       4.203  -1.834   0.567  0.00  0.00    +0.256 C 
ATOM     13  C   UNL     1       5.232  -0.834   0.079  0.00  0.00    +0.242 C 
ATOM     14  C   UNL     1       5.674   1.416  -0.802  0.00  0.00    +0.132 C 
BRANCH   8  11
ATOM     11  C   UNL     1       2.912   2.128  -0.118  0.00  0.00    +0.181 C 
BRANCH  11   2
ATOM      2  O   UNL     1       3.158   2.335   1.258  0.00  0.00    -0.393 OA
ATOM     24  H   UNL     1       2.907   3.252   1.461  0.00  0.00    +0.209 HD
ENDBRANCH  11   2
ENDBRANCH   8  11
ENDBRANCH  10   9
BRANCH  19   6
ATOM      4  O   UNL     1      -4.107   0.275   1.366  0.00  0.00    -0.253 OA
ATOM      6  N   UNL     1      -3.142  -0.163  -0.733  0.00  0.00    -0.269 N 
ATOM      7  N   UNL     1      -5.436   0.018  -0.507  0.00  0.00    -0.297 N 
ATOM     21  C   UNL     1      -4.208   0.063   0.160  0.00  0.00    +0.304 C 
ATOM     25  H   UNL     1      -3.401  -0.321  -1.704  0.00  0.00    +0.156 HD
ATOM     26  H   UNL     1      -5.441  -0.236  -1.490  0.00  0.00    +0.151 HD
BRANCH   7  20
ATOM     20  C   UNL     1      -6.703   0.216   0.158  0.00  0.00    +0.068 C 
ATOM     22  C   UNL     1      -7.705   0.873  -0.783  0.00  0.00    +0.027 C 
ATOM     23  C   UNL     1      -7.233  -1.108   0.692  0.00  0.00    +0.027 C 
ENDBRANCH   7  20
ENDBRANCH  19   6
TORSDOF 5
