REMARK  Name = 75536127
REMARK  9 active torsions:
REMARK  status: ('A' for Active; 'I' for Inactive)
REMARK    1  A    between atoms: O_1  and  C_9
REMARK    2  A    between atoms: O_2  and  C_11
REMARK    3  A    between atoms: N_4  and  C_7
REMARK    4  A    between atoms: N_4  and  C_13
REMARK    5  A    between atoms: N_6  and  C_18
REMARK    6  A    between atoms: C_8  and  C_12
REMARK    7  A    between atoms: C_13  and  C_14
REMARK    8  A    between atoms: C_14  and  C_19
REMARK    9  A    between atoms: C_14  and  C_20
REMARK                            x       y       z     vdW  Elec       q    Type
REMARK                         _______ _______ _______ _____ _____    ______ ____
ROOT
ATOM      7  C   UNL     1       2.554  -0.349  -0.560  0.00  0.00    +0.092 C 
ATOM      8  C   UNL     1       1.681  -0.647   0.698  0.00  0.00    +0.042 C 
ATOM      9  C   UNL     1       3.370  -1.630  -0.795  0.00  0.00    +0.160 C 
ATOM     10  C   UNL     1       2.049  -2.078   1.136  0.00  0.00    +0.043 C 
ATOM     11  C   UNL     1       3.455  -2.271   0.587  0.00  0.00    +0.145 C 
ENDROOT
BRANCH   8  12
ATOM      5  N   UNL     1      -1.855   0.664   1.103  0.00  0.00    -0.240 NA
ATOM     12  C   UNL     1       0.196  -0.454   0.478  0.00  0.00    -0.024 A 
ATOM     15  C   UNL     1      -0.485  -1.174  -0.497  0.00  0.00    +0.009 A 
ATOM     16  C   UNL     1      -0.529   0.445   1.245  0.00  0.00    +0.116 A 
ATOM     17  C   UNL     1      -1.850  -0.976  -0.674  0.00  0.00    +0.044 A 
ATOM     18  C   UNL     1      -2.483  -0.054   0.144  0.00  0.00    +0.121 A 
BRANCH  18   6
ATOM      3  O   UNL     1      -6.635   0.545  -0.148  0.00  0.00    -0.377 OA
ATOM      6  N   UNL     1      -3.856   0.134  -0.044  0.00  0.00    -0.311 N 
ATOM     21  C   UNL     1      -4.423   1.456   0.254  0.00  0.00    +0.134 C 
ATOM     22  C   UNL     1      -4.779  -0.994   0.126  0.00  0.00    +0.134 C 
ATOM     23  C   UNL     1      -5.754   1.621  -0.471  0.00  0.00    +0.178 C 
ATOM     24  C   UNL     1      -6.092  -0.699  -0.591  0.00  0.00    +0.178 C 
ENDBRANCH  18   6
ENDBRANCH   8  12
BRANCH   9   1
ATOM      1  O   UNL     1       2.645  -2.466  -1.696  0.00  0.00    -0.388 OA
ATOM     26  H   UNL     1       2.608  -2.007  -2.553  0.00  0.00    +0.210 HD
ENDBRANCH   9   1
BRANCH  11   2
ATOM      2  O   UNL     1       3.804  -3.639   0.531  0.00  0.00    -0.389 OA
ATOM     27  H   UNL     1       3.747  -3.993   1.435  0.00  0.00    +0.210 HD
ENDBRANCH  11   2
BRANCH   7   4
ATOM      4  N   UNL     1       3.454   0.771  -0.278  0.00  0.00    -0.310 NA
ATOM     25  H   UNL     1       4.223   0.754  -0.947  0.00  0.00    +0.122 HD
BRANCH   4  13
ATOM     13  C   UNL     1       2.754   2.042  -0.390  0.00  0.00    +0.084 C 
BRANCH  13  14
ATOM     14  C   UNL     1       3.684   3.247  -0.169  0.00  0.00    -0.003 C 
ATOM     19  C   UNL     1       4.300   3.174   1.230  0.00  0.00    +0.008 C 
ATOM     20  C   UNL     1       4.796   3.331  -1.217  0.00  0.00    +0.008 C 
ENDBRANCH  13  14
ENDBRANCH   4  13
ENDBRANCH   7   4
TORSDOF 7
