REMARK  Name = 51136980
REMARK  9 active torsions:
REMARK  status: ('A' for Active; 'I' for Inactive)
REMARK    1  A    between atoms: O_5  and  C_15
REMARK    2  A    between atoms: O_6  and  C_22
REMARK    3  A    between atoms: N_8  and  C_13
REMARK    4  A    between atoms: N_9  and  C_23
REMARK    5  A    between atoms: N_10  and  C_19
REMARK    6  A    between atoms: C_14  and  C_19
REMARK    7  A    between atoms: C_16  and  C_22
REMARK    8  A    between atoms: C_24  and  C_28
REMARK    9  A    between atoms: C_27  and  C_31
REMARK                            x       y       z     vdW  Elec       q    Type
REMARK                         _______ _______ _______ _____ _____    ______ ____
ROOT
ATOM      4  O   UNL     1      -2.343  -2.612   0.910  0.00  0.00    -0.365 OA
ATOM     13  C   UNL     1       0.022  -2.389   0.755  0.00  0.00    +0.118 C 
ATOM     14  C   UNL     1      -1.307  -1.623   0.717  0.00  0.00    +0.155 C 
ATOM     15  C   UNL     1      -0.377  -3.790   0.318  0.00  0.00    +0.165 C 
ATOM     16  C   UNL     1      -1.739  -3.917   0.990  0.00  0.00    +0.174 C 
ENDROOT
BRANCH  13   8
ATOM      8  N   UNL     1       1.124  -1.799   0.016  0.00  0.00    -0.292 NA
ATOM      9  N   UNL     1       3.729  -0.680  -0.330  0.00  0.00    -0.327 N 
ATOM     17  C   UNL     1       2.317  -2.651   0.102  0.00  0.00    +0.104 C 
ATOM     18  C   UNL     1       1.430  -0.458   0.530  0.00  0.00    +0.104 C 
ATOM     20  C   UNL     1       3.469  -2.069  -0.720  0.00  0.00    +0.120 C 
ATOM     21  C   UNL     1       2.553   0.197  -0.279  0.00  0.00    +0.120 C 
BRANCH   9  23
ATOM     23  C   UNL     1       4.970  -0.099  -0.617  0.00  0.00    +0.030 A 
ATOM     25  C   UNL     1       5.487   0.891   0.219  0.00  0.00    +0.035 A 
ATOM     26  C   UNL     1       5.689  -0.510  -1.739  0.00  0.00    +0.023 A 
ATOM     27  C   UNL     1       6.723   1.470  -0.067  0.00  0.00    +0.057 A 
ATOM     29  C   UNL     1       6.926   0.069  -2.025  0.00  0.00    +0.002 A 
ATOM     30  C   UNL     1       7.442   1.059  -1.190  0.00  0.00    +0.012 A 
BRANCH  27  31
ATOM      1  F   UNL     1       8.490   2.989   0.407  0.00  0.00    -0.166 F 
ATOM      2  F   UNL     1       6.479   3.634   0.924  0.00  0.00    -0.166 F 
ATOM      3  F   UNL     1       7.466   2.113   2.114  0.00  0.00    -0.166 F 
ATOM     31  C   UNL     1       7.276   2.528   0.827  0.00  0.00    +0.417 C 
ENDBRANCH  27  31
ENDBRANCH   9  23
ENDBRANCH  13   8
BRANCH  15   5
ATOM      5  O   UNL     1      -0.512  -3.876  -1.095  0.00  0.00    -0.388 OA
ATOM     38  H   UNL     1      -0.661  -4.810  -1.320  0.00  0.00    +0.210 HD
ENDBRANCH  15   5
BRANCH  14  19
ATOM     19  C   UNL     1      -1.629  -0.877  -0.573  0.00  0.00    +0.137 C 
BRANCH  19  10
ATOM      7  O   UNL     1      -2.092   1.799   0.361  0.00  0.00    -0.270 OA
ATOM     10  N   UNL     1      -2.893  -0.210  -0.481  0.00  0.00    -0.309 N 
ATOM     24  C   UNL     1      -3.027   1.096  -0.014  0.00  0.00    +0.244 C 
ATOM     39  H   UNL     1      -3.714  -0.760  -0.707  0.00  0.00    +0.149 HD
BRANCH  24  28
ATOM     11  N   UNL     1      -7.822   1.428  -1.411  0.00  0.00    -0.344 N 
ATOM     12  N   UNL     1      -8.324   3.015   0.061  0.00  0.00    -0.236 NA
ATOM     28  C   UNL     1      -4.410   1.635   0.046  0.00  0.00    +0.039 A 
ATOM     32  C   UNL     1      -5.378   1.132  -0.830  0.00  0.00    +0.040 A 
ATOM     33  C   UNL     1      -4.719   2.633   0.973  0.00  0.00    +0.015 A 
ATOM     34  C   UNL     1      -6.659   1.676  -0.729  0.00  0.00    +0.067 A 
ATOM     35  C   UNL     1      -6.013   3.164   1.056  0.00  0.00    +0.030 A 
ATOM     36  C   UNL     1      -6.997   2.670   0.184  0.00  0.00    +0.089 A 
ATOM     37  C   UNL     1      -8.787   2.252  -0.903  0.00  0.00    +0.197 A 
ATOM     41  H   UNL     1      -7.945   0.755  -2.156  0.00  0.00    +0.167 HD
ENDBRANCH  24  28
ENDBRANCH  19  10
ENDBRANCH  14  19
BRANCH  16  22
ATOM     22  C   UNL     1      -2.676  -4.941   0.378  0.00  0.00    +0.190 C 
BRANCH  22   6
ATOM      6  O   UNL     1      -3.889  -4.951   1.114  0.00  0.00    -0.392 OA
ATOM     40  H   UNL     1      -4.468  -5.616   0.704  0.00  0.00    +0.210 HD
ENDBRANCH  22   6
ENDBRANCH  16  22
TORSDOF 9
