REMARK  Name = 75366980
REMARK  11 active torsions:
REMARK  status: ('A' for Active; 'I' for Inactive)
REMARK    1  A    between atoms: O_3  and  C_11
REMARK    2  A    between atoms: N_6  and  C_15
REMARK    3  A    between atoms: N_8  and  C_20
REMARK    4  A    between atoms: N_8  and  C_22
REMARK    5  A    between atoms: N_8  and  C_23
REMARK    6  A    between atoms: C_9  and  C_14
REMARK    7  A    between atoms: C_10  and  C_15
REMARK    8  A    between atoms: C_14  and  C_16
REMARK    9  A    between atoms: C_18  and  C_20
REMARK   10  A    between atoms: C_19  and  C_21
REMARK   11  A    between atoms: C_22  and  C_24
REMARK                            x       y       z     vdW  Elec       q    Type
REMARK                         _______ _______ _______ _____ _____    ______ ____
ROOT
ATOM      2  O   UNL     1       3.577  -0.121   0.398  0.00  0.00    -0.369 OA
ATOM      9  C   UNL     1       3.011  -1.362   0.828  0.00  0.00    +0.125 C 
ATOM     10  C   UNL     1       4.018  -0.093  -0.966  0.00  0.00    +0.164 C 
ATOM     11  C   UNL     1       5.018  -1.220  -1.253  0.00  0.00    +0.145 C 
ATOM     12  C   UNL     1       4.019  -2.498   0.669  0.00  0.00    +0.034 C 
ATOM     13  C   UNL     1       4.516  -2.579  -0.772  0.00  0.00    +0.036 C 
ENDROOT
BRANCH  11   3
ATOM      3  O   UNL     1       6.240  -0.939  -0.566  0.00  0.00    -0.389 OA
ATOM     35  H   UNL     1       6.875  -1.637  -0.798  0.00  0.00    +0.210 HD
ENDBRANCH  11   3
BRANCH   9  14
ATOM     14  C   UNL     1       2.604  -1.198   2.287  0.00  0.00    +0.090 C 
BRANCH  14  16
ATOM      4  O   UNL     1       0.004   1.272   2.642  0.00  0.00    -0.358 OA
ATOM      7  N   UNL     1       1.338   0.896   2.539  0.00  0.00    -0.083 NA
ATOM     16  C   UNL     1       1.314  -0.435   2.424  0.00  0.00    +0.086 A 
ATOM     17  C   UNL     1       0.006  -0.949   2.449  0.00  0.00    +0.072 A 
ATOM     18  C   UNL     1      -0.779   0.164   2.587  0.00  0.00    +0.151 A 
BRANCH  18  20
ATOM     20  C   UNL     1      -2.228   0.380   2.683  0.00  0.00    +0.161 C 
BRANCH  20   8
ATOM      8  N   UNL     1      -3.014  -0.612   1.930  0.00  0.00    -0.294 NA
ATOM     23  C   UNL     1      -4.385  -0.645   2.427  0.00  0.00    +0.105 C 
BRANCH   8  22
ATOM     22  C   UNL     1      -2.985  -0.298   0.506  0.00  0.00    +0.119 C 
BRANCH  22  24
ATOM     24  C   UNL     1      -3.291  -1.505  -0.341  0.00  0.00    -0.033 A 
ATOM     27  C   UNL     1      -2.257  -2.337  -0.769  0.00  0.00    +0.005 A 
ATOM     28  C   UNL     1      -4.609  -1.791  -0.697  0.00  0.00    +0.005 A 
ATOM     32  C   UNL     1      -2.541  -3.455  -1.554  0.00  0.00    +0.000 A 
ATOM     33  C   UNL     1      -4.893  -2.909  -1.481  0.00  0.00    +0.000 A 
ATOM     34  C   UNL     1      -3.859  -3.741  -1.909  0.00  0.00    +0.000 A 
ENDBRANCH  22  24
ENDBRANCH   8  22
ENDBRANCH  20   8
ENDBRANCH  18  20
ENDBRANCH  14  16
ENDBRANCH   9  14
BRANCH  10  15
ATOM     15  C   UNL     1       2.832  -0.088  -1.928  0.00  0.00    +0.138 C 
BRANCH  15   6
ATOM      5  O   UNL     1      -0.007  -0.075  -2.360  0.00  0.00    -0.270 OA
ATOM      6  N   UNL     1       1.925   0.976  -1.620  0.00  0.00    -0.309 N 
ATOM     19  C   UNL     1       0.556   0.898  -1.864  0.00  0.00    +0.244 C 
ATOM     36  H   UNL     1       2.334   1.857  -1.327  0.00  0.00    +0.149 HD
BRANCH  19  21
ATOM      1  F   UNL     1      -0.138   4.913   0.791  0.00  0.00    -0.205 F 
ATOM     21  C   UNL     1      -0.245   2.098  -1.511  0.00  0.00    +0.039 A 
ATOM     25  C   UNL     1       0.193   2.959  -0.505  0.00  0.00    +0.051 A 
ATOM     26  C   UNL     1      -1.437   2.364  -2.187  0.00  0.00    +0.013 A 
ATOM     29  C   UNL     1      -0.560   4.086  -0.174  0.00  0.00    +0.124 A 
ATOM     30  C   UNL     1      -2.190   3.491  -1.855  0.00  0.00    +0.004 A 
ATOM     31  C   UNL     1      -1.751   4.351  -0.849  0.00  0.00    +0.038 A 
ENDBRANCH  19  21
ENDBRANCH  15   6
ENDBRANCH  10  15
TORSDOF 10
