REMARK  Name = 45784177
REMARK  5 active torsions:
REMARK  status: ('A' for Active; 'I' for Inactive)
REMARK    1  A    between atoms: O_3  and  C_19
REMARK    2  A    between atoms: O_3  and  C_24
REMARK    3  A    between atoms: N_4  and  C_10
REMARK    4  A    between atoms: C_6  and  C_11
REMARK    5  A    between atoms: C_10  and  C_12
REMARK                            x       y       z     vdW  Elec       q    Type
REMARK                         _______ _______ _______ _____ _____    ______ ____
ROOT
ATOM      4  N   UNL     1      -1.352  -0.570  -0.175  0.00  0.00    -0.297 NA
ATOM      6  C   UNL     1       0.843  -0.923   0.571  0.00  0.00    +0.090 C 
ATOM      7  C   UNL     1       0.071  -0.098   1.615  0.00  0.00    +0.029 C 
ATOM      8  C   UNL     1      -0.012  -0.838  -0.701  0.00  0.00    +0.097 C 
ATOM      9  C   UNL     1      -1.152   0.428   0.875  0.00  0.00    +0.085 C 
ENDROOT
BRANCH   6  11
ATOM      1 CL   UNL     1       7.745   1.950  -0.756  0.00  0.00    -0.083 Cl
ATOM      2  O   UNL     1       3.226  -1.430   0.603  0.00  0.00    -0.439 OA
ATOM      5  N   UNL     1       2.720   0.679  -0.056  0.00  0.00    -0.213 NA
ATOM     11  C   UNL     1       2.273  -0.489   0.350  0.00  0.00    +0.201 A 
ATOM     13  C   UNL     1       4.083   0.506  -0.077  0.00  0.00    +0.111 A 
ATOM     14  C   UNL     1       4.396  -0.784   0.326  0.00  0.00    +0.155 A 
ATOM     17  C   UNL     1       5.124   1.381  -0.421  0.00  0.00    +0.051 A 
ATOM     18  C   UNL     1       5.686  -1.292   0.419  0.00  0.00    +0.050 A 
ATOM     22  C   UNL     1       6.440   0.903  -0.340  0.00  0.00    +0.043 A 
ATOM     23  C   UNL     1       6.713  -0.408   0.072  0.00  0.00    +0.024 A 
ENDBRANCH   6  11
BRANCH   4  10
ATOM     10  C   UNL     1      -2.272  -0.112  -1.207  0.00  0.00    +0.119 C 
BRANCH  10  12
ATOM     12  C   UNL     1      -3.709  -0.257  -0.781  0.00  0.00    -0.030 A 
ATOM     15  C   UNL     1      -4.432   0.865  -0.377  0.00  0.00    +0.050 A 
ATOM     16  C   UNL     1      -4.316  -1.512  -0.790  0.00  0.00    +0.005 A 
ATOM     19  C   UNL     1      -5.763   0.731   0.018  0.00  0.00    +0.120 A 
ATOM     20  C   UNL     1      -5.647  -1.647  -0.395  0.00  0.00    +0.004 A 
ATOM     21  C   UNL     1      -6.371  -0.525   0.009  0.00  0.00    +0.045 A 
BRANCH  19   3
ATOM      3  O   UNL     1      -6.469   1.826   0.413  0.00  0.00    -0.495 OA
ATOM     24  C   UNL     1      -7.825   1.617   0.806  0.00  0.00    +0.277 C 
ENDBRANCH  19   3
ENDBRANCH  10  12
ENDBRANCH   4  10
TORSDOF 4
