REMARK  Name = 7051759
REMARK  2 active torsions:
REMARK  status: ('A' for Active; 'I' for Inactive)
REMARK    1  A    between atoms: C_14  and  C_19
REMARK    2  A    between atoms: C_16  and  C_20
REMARK                            x       y       z     vdW  Elec       q    Type
REMARK                         _______ _______ _______ _____ _____    ______ ____
ROOT
ATOM      2  O   UNL     1       1.986  -2.774   2.431  0.00  0.00    -0.268 OA
ATOM      3  O   UNL     1       3.658   1.327  -0.046  0.00  0.00    -0.269 OA
ATOM      4  N   UNL     1       1.921   0.442  -1.337  0.00  0.00    -0.296 N 
ATOM      5  N   UNL     1       0.954  -1.935   0.503  0.00  0.00    -0.311 N 
ATOM      7  C   UNL     1       2.126  -1.991  -1.779  0.00  0.00    +0.027 C 
ATOM      8  C   UNL     1      -0.106  -0.979  -1.566  0.00  0.00    +0.054 C 
ATOM      9  C   UNL     1       0.713  -2.011  -2.341  0.00  0.00    +0.018 C 
ATOM     10  C   UNL     1       2.754  -0.596  -1.940  0.00  0.00    +0.113 C 
ATOM     11  C   UNL     1       2.072  -2.430  -0.314  0.00  0.00    +0.130 C 
ATOM     12  C   UNL     1       0.513   0.422  -1.760  0.00  0.00    +0.117 C 
ATOM     13  C   UNL     1      -0.174  -1.318  -0.075  0.00  0.00    +0.034 A 
ATOM     14  C   UNL     1      -1.251  -1.018   0.696  0.00  0.00    +0.004 A 
ATOM     15  C   UNL     1       1.032  -2.226   1.876  0.00  0.00    +0.252 A 
ATOM     16  C   UNL     1       2.479   1.313  -0.398  0.00  0.00    +0.253 C 
ATOM     17  C   UNL     1      -1.204  -1.300   2.118  0.00  0.00    +0.015 A 
ATOM     18  C   UNL     1      -0.140  -1.851   2.700  0.00  0.00    +0.071 A 
ENDROOT
BRANCH  14  19
ATOM      6  N   UNL     1      -4.642  -0.665  -0.871  0.00  0.00    -0.263 NA
ATOM     19  C   UNL     1      -2.466  -0.393   0.128  0.00  0.00    +0.002 A 
ATOM     21  C   UNL     1      -2.585   0.986   0.055  0.00  0.00    +0.011 A 
ATOM     22  C   UNL     1      -3.506  -1.171  -0.341  0.00  0.00    +0.119 A 
ATOM     24  C   UNL     1      -3.739   1.544  -0.484  0.00  0.00    +0.020 A 
ATOM     27  C   UNL     1      -4.729   0.683  -0.929  0.00  0.00    +0.111 A 
ENDBRANCH  14  19
BRANCH  16  20
ATOM      1  S   UNL     1       1.396   3.828  -0.471  0.00  0.00    -0.092 S 
ATOM     20  C   UNL     1       1.599   2.292   0.251  0.00  0.00    +0.074 A 
ATOM     23  C   UNL     1       0.874   2.158   1.410  0.00  0.00    +0.021 A 
ATOM     25  C   UNL     1       0.136   3.338   1.713  0.00  0.00    +0.008 A 
ATOM     26  C   UNL     1       0.329   4.325   0.772  0.00  0.00    +0.046 A 
ENDBRANCH  16  20
TORSDOF 2
