REMARK  Name = 11865672
REMARK  8 active torsions:
REMARK  status: ('A' for Active; 'I' for Inactive)
REMARK    1  A    between atoms: O_3  and  C_12
REMARK    2  A    between atoms: O_4  and  C_14
REMARK    3  A    between atoms: N_8  and  C_13
REMARK    4  A    between atoms: N_9  and  C_20
REMARK    5  A    between atoms: N_10  and  C_22
REMARK    6  A    between atoms: C_16  and  C_18
REMARK    7  A    between atoms: C_20  and  C_21
REMARK    8  A    between atoms: C_21  and  C_23
REMARK                            x       y       z     vdW  Elec       q    Type
REMARK                         _______ _______ _______ _____ _____    ______ ____
ROOT
ATOM     12  C   UNL     1       0.876   2.804   0.579  0.00  0.00    +0.167 C 
ATOM     13  C   UNL     1       0.737   1.553  -0.311  0.00  0.00    +0.129 C 
ATOM     14  C   UNL     1       2.197   3.537   0.315  0.00  0.00    +0.149 C 
ATOM     15  C   UNL     1       3.416   2.616   0.495  0.00  0.00    +0.074 C 
ATOM     16  C   UNL     1       3.191   1.221  -0.015  0.00  0.00    +0.015 C 
ATOM     17  C   UNL     1       1.997   0.735  -0.388  0.00  0.00    +0.006 C 
ENDROOT
BRANCH  13   8
ATOM      6  O   UNL     1      -2.004   1.708  -1.129  0.00  0.00    -0.252 OA
ATOM      8  N   UNL     1      -0.344   0.705   0.129  0.00  0.00    -0.290 N 
ATOM     10  N   UNL     1      -2.486  -0.111   0.274  0.00  0.00    -0.267 N 
ATOM     19  C   UNL     1      -1.661   0.847  -0.322  0.00  0.00    +0.304 C 
ATOM     29  H   UNL     1      -0.153   0.004   0.839  0.00  0.00    +0.151 HD
ATOM     33  H   UNL     1      -2.044  -0.755   0.925  0.00  0.00    +0.156 HD
BRANCH  10  22
ATOM      1  F   UNL     1      -3.880  -2.120   1.611  0.00  0.00    -0.203 F 
ATOM      2  F   UNL     1      -7.929  -0.843  -0.475  0.00  0.00    -0.205 F 
ATOM     22  C   UNL     1      -3.874  -0.301   0.084  0.00  0.00    +0.070 A 
ATOM     24  C   UNL     1      -4.543  -1.315   0.769  0.00  0.00    +0.147 A 
ATOM     25  C   UNL     1      -4.575   0.530  -0.790  0.00  0.00    +0.029 A 
ATOM     26  C   UNL     1      -5.913  -1.499   0.580  0.00  0.00    +0.078 A 
ATOM     27  C   UNL     1      -5.945   0.347  -0.979  0.00  0.00    +0.040 A 
ATOM     28  C   UNL     1      -6.614  -0.668  -0.294  0.00  0.00    +0.126 A 
ENDBRANCH  10  22
ENDBRANCH  13   8
BRANCH  16  18
ATOM      5  O   UNL     1       5.306   0.635  -0.853  0.00  0.00    -0.271 OA
ATOM      9  N   UNL     1       4.230  -0.819   0.618  0.00  0.00    -0.311 N 
ATOM     18  C   UNL     1       4.351   0.334  -0.137  0.00  0.00    +0.240 C 
ATOM     32  H   UNL     1       3.400  -0.965   1.185  0.00  0.00    +0.149 HD
BRANCH   9  20
ATOM     20  C   UNL     1       5.246  -1.847   0.658  0.00  0.00    +0.113 C 
BRANCH  20  21
ATOM     21  C   UNL     1       5.037  -2.905  -0.416  0.00  0.00    +0.114 C 
BRANCH  21  23
ATOM      7  O   UNL     1       2.892  -3.425   0.597  0.00  0.00    -0.276 OA
ATOM     11  N   UNL     1       3.550  -4.594  -1.269  0.00  0.00    -0.329 N 
ATOM     23  C   UNL     1       3.716  -3.642  -0.286  0.00  0.00    +0.212 C 
ATOM     34  H   UNL     1       4.248  -4.759  -1.988  0.00  0.00    +0.145 HD
ATOM     35  H   UNL     1       2.714  -5.167  -1.305  0.00  0.00    +0.145 HD
ENDBRANCH  21  23
ENDBRANCH  20  21
ENDBRANCH   9  20
ENDBRANCH  16  18
BRANCH  12   3
ATOM      3  O   UNL     1       0.830   2.420   1.955  0.00  0.00    -0.387 OA
ATOM     30  H   UNL     1       0.891   3.232   2.487  0.00  0.00    +0.210 HD
ENDBRANCH  12   3
BRANCH  14   4
ATOM      4  O   UNL     1       2.195   4.095  -0.997  0.00  0.00    -0.389 OA
ATOM     31  H   UNL     1       3.027   4.588  -1.108  0.00  0.00    +0.210 HD
ENDBRANCH  14   4
TORSDOF 8
