REMARK  Name = 38028426
REMARK  13 active torsions:
REMARK  status: ('A' for Active; 'I' for Inactive)
REMARK    1  A    between atoms: S_1  and  N_5
REMARK    2  A    between atoms: S_1  and  C_21
REMARK    3  A    between atoms: N_5  and  C_15
REMARK    4  A    between atoms: N_6  and  C_22
REMARK    5  A    between atoms: C_8  and  C_12
REMARK    6  A    between atoms: C_9  and  C_15
REMARK    7  A    between atoms: C_11  and  C_16
REMARK    8  A    between atoms: C_12  and  C_17
REMARK    9  A    between atoms: C_12  and  C_18
REMARK   10  A    between atoms: C_13  and  C_19
REMARK   11  A    between atoms: C_16  and  C_20
REMARK   12  A    between atoms: C_22  and  C_25
REMARK   13  A    between atoms: C_28  and  C_31
REMARK                            x       y       z     vdW  Elec       q    Type
REMARK                         _______ _______ _______ _____ _____    ______ ____
ROOT
ATOM      8  C   UNL     1       1.230   1.087  -1.267  0.00  0.00    +0.000 C 
ATOM      9  C   UNL     1       2.642   1.724  -1.228  0.00  0.00    +0.030 C 
ATOM     10  C   UNL     1       0.149   2.178  -1.240  0.00  0.00    +0.012 C 
ATOM     11  C   UNL     1       0.249   3.067   0.015  0.00  0.00    +0.023 C 
ATOM     13  C   UNL     1       1.672   3.518   0.272  0.00  0.00    -0.073 C 
ATOM     14  C   UNL     1       2.728   2.914  -0.302  0.00  0.00    -0.023 C 
ATOM     19  C   UNL     1       1.853   4.709   1.171  0.00  0.00    +0.039 C 
ENDROOT
BRANCH   8  12
ATOM     12  C   UNL     1       1.040   0.199  -2.501  0.00  0.00    -0.013 C 
ATOM     17  C   UNL     1       1.181   1.024  -3.776  0.00  0.00    +0.007 C 
ATOM     18  C   UNL     1      -0.318  -0.495  -2.453  0.00  0.00    +0.007 C 
ENDBRANCH   8  12
BRANCH   9  15
ATOM     15  C   UNL     1       3.703   0.691  -0.833  0.00  0.00    +0.113 C 
BRANCH  15   5
ATOM      5  N   UNL     1       3.462   0.260   0.553  0.00  0.00    -0.189 NA
ATOM     34  H   UNL     1       3.436   0.995   1.269  0.00  0.00    +0.148 HD
BRANCH   5   1
ATOM      1  S   UNL     1       3.892  -1.313   1.048  0.00  0.00    +0.058 S 
ATOM      3  O   UNL     1       4.096  -1.323   2.484  0.00  0.00    -0.153 OA
ATOM      4  O   UNL     1       4.918  -1.826   0.161  0.00  0.00    -0.153 OA
BRANCH   1  21
ATOM     21  C   UNL     1       2.412  -2.216   0.701  0.00  0.00    +0.105 A 
ATOM     23  C   UNL     1       2.235  -2.811  -0.548  0.00  0.00    +0.029 A 
ATOM     24  C   UNL     1       1.420  -2.330   1.676  0.00  0.00    +0.029 A 
ATOM     26  C   UNL     1       1.066  -3.521  -0.822  0.00  0.00    +0.005 A 
ATOM     27  C   UNL     1       0.252  -3.041   1.401  0.00  0.00    +0.005 A 
ATOM     28  C   UNL     1       0.075  -3.636   0.152  0.00  0.00    -0.050 A 
ATOM     31  C   UNL     1      -1.175  -4.395  -0.142  0.00  0.00    +0.044 C 
ENDBRANCH   1  21
ENDBRANCH   5   1
ENDBRANCH  15   5
ENDBRANCH   9  15
BRANCH  11  16
ATOM     16  C   UNL     1      -0.332   2.357   1.242  0.00  0.00    +0.103 C 
BRANCH  16  20
ATOM      2  O   UNL     1      -2.540   3.171   0.680  0.00  0.00    -0.276 OA
ATOM      6  N   UNL     1      -2.320   1.175   1.850  0.00  0.00    -0.311 N 
ATOM     20  C   UNL     1      -1.843   2.309   1.209  0.00  0.00    +0.214 C 
ATOM     35  H   UNL     1      -1.662   0.514   2.254  0.00  0.00    +0.149 HD
BRANCH   6  22
ATOM     22  C   UNL     1      -3.727   0.870   1.972  0.00  0.00    +0.141 C 
BRANCH  22  25
ATOM      7  N   UNL     1      -4.086  -1.976  -0.492  0.00  0.00    -0.263 NA
ATOM     25  C   UNL     1      -4.227   0.052   0.817  0.00  0.00    -0.012 A 
ATOM     29  C   UNL     1      -5.250   0.518  -0.002  0.00  0.00    +0.008 A 
ATOM     30  C   UNL     1      -3.683  -1.190   0.532  0.00  0.00    +0.115 A 
ATOM     32  C   UNL     1      -5.691  -0.261  -1.065  0.00  0.00    +0.020 A 
ATOM     33  C   UNL     1      -5.082  -1.489  -1.266  0.00  0.00    +0.111 A 
ENDBRANCH  22  25
ENDBRANCH   6  22
ENDBRANCH  16  20
ENDBRANCH  11  16
TORSDOF 9
