REMARK  Name = 51137408
REMARK  5 active torsions:
REMARK  status: ('A' for Active; 'I' for Inactive)
REMARK    1  A    between atoms: N_3  and  C_7
REMARK    2  A    between atoms: C_9  and  C_16
REMARK    3  A    between atoms: C_17  and  C_19
REMARK    4  A    between atoms: C_18  and  C_20
REMARK    5  A    between atoms: C_20  and  C_21
REMARK                            x       y       z     vdW  Elec       q    Type
REMARK                         _______ _______ _______ _____ _____    ______ ____
ROOT
ATOM      3  N   UNL     1       1.781  -0.502  -0.954  0.00  0.00    -0.299 NA
ATOM      8  C   UNL     1       0.884  -1.359  -0.176  0.00  0.00    +0.097 C 
ATOM      9  C   UNL     1      -0.260  -1.639  -1.160  0.00  0.00    +0.092 C 
ATOM     10  C   UNL     1       0.900   0.441  -1.642  0.00  0.00    +0.085 C 
ATOM     11  C   UNL     1      -0.230  -0.452  -2.139  0.00  0.00    +0.029 C 
ENDROOT
BRANCH   3   7
ATOM      2  O   UNL     1       7.568   1.459  -0.265  0.00  0.00    -0.276 OA
ATOM      4  N   UNL     1       5.533   0.709   0.569  0.00  0.00    -0.302 N 
ATOM      7  C   UNL     1       2.773   0.171  -0.118  0.00  0.00    +0.060 C 
ATOM     12  C   UNL     1       3.634  -0.865   0.615  0.00  0.00    +0.038 C 
ATOM     13  C   UNL     1       3.652   1.087  -0.979  0.00  0.00    +0.038 C 
ATOM     14  C   UNL     1       4.741  -0.186   1.422  0.00  0.00    +0.109 C 
ATOM     15  C   UNL     1       4.757   1.728  -0.141  0.00  0.00    +0.109 C 
ATOM     17  C   UNL     1       6.920   0.673   0.431  0.00  0.00    +0.212 C 
ATOM     19  C   UNL     1       7.647  -0.408   1.192  0.00  0.00    +0.109 C 
ENDBRANCH   3   7
BRANCH   9  16
ATOM      1  O   UNL     1      -2.066  -0.839   0.286  0.00  0.00    -0.424 OA
ATOM      5  N   UNL     1      -2.373  -2.913  -0.493  0.00  0.00    -0.112 NA
ATOM      6  N   UNL     1      -3.457  -2.590   0.301  0.00  0.00    -0.112 NA
ATOM     16  C   UNL     1      -1.587  -1.862  -0.473  0.00  0.00    +0.222 A 
ATOM     18  C   UNL     1      -3.236  -1.371   0.735  0.00  0.00    +0.222 A 
BRANCH  18  20
ATOM     20  C   UNL     1      -4.056  -0.526   1.611  0.00  0.00    +0.132 C 
BRANCH  20  21
ATOM     21  C   UNL     1      -4.856   0.553   0.889  0.00  0.00    -0.038 A 
ATOM     22  C   UNL     1      -4.233   1.739   0.499  0.00  0.00    +0.004 A 
ATOM     23  C   UNL     1      -6.210   0.356   0.620  0.00  0.00    +0.004 A 
ATOM     24  C   UNL     1      -4.965   2.727  -0.161  0.00  0.00    +0.000 A 
ATOM     25  C   UNL     1      -6.942   1.343  -0.040  0.00  0.00    +0.000 A 
ATOM     26  C   UNL     1      -6.319   2.529  -0.430  0.00  0.00    +0.000 A 
ENDBRANCH  20  21
ENDBRANCH  18  20
ENDBRANCH   9  16
TORSDOF 4
