REMARK  Name = 45783453
REMARK  8 active torsions:
REMARK  status: ('A' for Active; 'I' for Inactive)
REMARK    1  A    between atoms: O_3  and  C_22
REMARK    2  A    between atoms: O_3  and  C_25
REMARK    3  A    between atoms: O_4  and  C_26
REMARK    4  A    between atoms: O_4  and  C_27
REMARK    5  A    between atoms: N_5  and  C_9
REMARK    6  A    between atoms: C_10  and  C_18
REMARK    7  A    between atoms: C_19  and  C_20
REMARK    8  A    between atoms: C_25  and  C_26
REMARK                            x       y       z     vdW  Elec       q    Type
REMARK                         _______ _______ _______ _____ _____    ______ ____
ROOT
ATOM      2  O   UNL     1      -1.868   2.633  -0.896  0.00  0.00    -0.336 OA
ATOM      6  N   UNL     1      -0.672   1.152   0.283  0.00  0.00    -0.189 NA
ATOM      7  N   UNL     1      -0.525   2.888  -1.200  0.00  0.00    -0.054 NA
ATOM     18  C   UNL     1      -1.866   1.598  -0.017  0.00  0.00    +0.245 A 
ATOM     19  C   UNL     1       0.118   1.974  -0.466  0.00  0.00    +0.221 A 
ENDROOT
BRANCH  19  20
ATOM      8  N   UNL     1       2.211   2.733  -1.246  0.00  0.00    -0.252 NA
ATOM     20  C   UNL     1       1.548   1.856  -0.459  0.00  0.00    +0.115 A 
ATOM     21  C   UNL     1       2.166   0.892   0.321  0.00  0.00    +0.077 A 
ATOM     22  C   UNL     1       3.554   0.823   0.290  0.00  0.00    +0.124 A 
ATOM     23  C   UNL     1       3.559   2.635  -1.250  0.00  0.00    +0.115 A 
ATOM     24  C   UNL     1       4.272   1.707  -0.508  0.00  0.00    +0.065 A 
BRANCH  22   3
ATOM      3  O   UNL     1       4.208  -0.107   1.038  0.00  0.00    -0.490 OA
BRANCH   3  25
ATOM     25  C   UNL     1       3.526  -1.335   1.291  0.00  0.00    +0.257 C 
BRANCH  25  26
ATOM     26  C   UNL     1       4.546  -2.451   1.413  0.00  0.00    +0.200 C 
BRANCH  26   4
ATOM      4  O   UNL     1       5.265  -2.559   0.191  0.00  0.00    -0.380 OA
ATOM     27  C   UNL     1       6.252  -3.578   0.256  0.00  0.00    +0.194 C 
ENDBRANCH  26   4
ENDBRANCH  25  26
ENDBRANCH   3  25
ENDBRANCH  22   3
ENDBRANCH  19  20
BRANCH  18  10
ATOM      5  N   UNL     1      -3.216  -0.300   0.860  0.00  0.00    -0.288 NA
ATOM     10  C   UNL     1      -3.219   1.125   0.472  0.00  0.00    +0.146 C 
ATOM     11  C   UNL     1      -4.231  -0.447   1.903  0.00  0.00    +0.085 C 
ATOM     12  C   UNL     1      -3.690   1.872   1.734  0.00  0.00    +0.030 C 
ATOM     13  C   UNL     1      -3.985   0.782   2.754  0.00  0.00    +0.017 C 
BRANCH   5   9
ATOM      1  O   UNL     1      -2.524  -3.369  -1.920  0.00  0.00    -0.380 OA
ATOM      9  C   UNL     1      -3.449  -1.203  -0.265  0.00  0.00    +0.062 C 
ATOM     14  C   UNL     1      -3.483  -2.663   0.198  0.00  0.00    +0.047 C 
ATOM     15  C   UNL     1      -2.366  -1.017  -1.331  0.00  0.00    +0.047 C 
ATOM     16  C   UNL     1      -3.593  -3.597  -1.002  0.00  0.00    +0.161 C 
ATOM     17  C   UNL     1      -2.538  -2.042  -2.446  0.00  0.00    +0.161 C 
ENDBRANCH   5   9
ENDBRANCH  18  10
TORSDOF 7
