REMARK  Name = 75536915
REMARK  4 active torsions:
REMARK  status: ('A' for Active; 'I' for Inactive)
REMARK    1  A    between atoms: O_2  and  C_10
REMARK    2  A    between atoms: O_2  and  C_13
REMARK    3  A    between atoms: N_3  and  C_7
REMARK    4  A    between atoms: C_4  and  C_7
REMARK                            x       y       z     vdW  Elec       q    Type
REMARK                         _______ _______ _______ _____ _____    ______ ____
ROOT
ATOM      1  O   UNL     1      -0.432   2.868  -0.169  0.00  0.00    -0.375 OA
ATOM      3  N   UNL     1      -2.172   0.334   0.359  0.00  0.00    -0.296 NA
ATOM      8  C   UNL     1      -0.908  -0.325   0.013  0.00  0.00    +0.131 C 
ATOM      9  C   UNL     1      -2.020   1.538   1.178  0.00  0.00    +0.112 C 
ATOM     10  C   UNL     1       0.308   0.566  -0.282  0.00  0.00    +0.213 C 
ATOM     11  C   UNL     1      -1.775   2.752   0.281  0.00  0.00    +0.175 C 
ATOM     12  C   UNL     1      -0.016   1.836  -1.057  0.00  0.00    +0.205 C 
ENDROOT
BRANCH  10   2
ATOM      2  O   UNL     1       1.240  -0.195  -1.052  0.00  0.00    -0.485 OA
BRANCH   2  13
ATOM     13  C   UNL     1       2.465  -0.416  -0.486  0.00  0.00    +0.121 A 
ATOM     14  C   UNL     1       3.280   0.662  -0.142  0.00  0.00    +0.045 A 
ATOM     15  C   UNL     1       2.899  -1.721  -0.252  0.00  0.00    +0.045 A 
ATOM     16  C   UNL     1       4.529   0.436   0.435  0.00  0.00    +0.004 A 
ATOM     17  C   UNL     1       4.148  -1.947   0.326  0.00  0.00    +0.004 A 
ATOM     18  C   UNL     1       4.963  -0.869   0.669  0.00  0.00    +0.000 A 
ENDBRANCH   2  13
ENDBRANCH  10   2
BRANCH   3   7
ATOM      7  C   UNL     1      -3.086  -0.625   0.980  0.00  0.00    +0.088 C 
BRANCH   7   4
ATOM      4  C   UNL     1      -3.641  -1.578  -0.028  0.00  0.00    +0.003 C 
ATOM      5  C   UNL     1      -4.767  -1.154  -0.930  0.00  0.00    +0.005 C 
ATOM      6  C   UNL     1      -5.014  -2.162   0.158  0.00  0.00    +0.005 C 
ENDBRANCH   7   4
ENDBRANCH   3   7
TORSDOF 4
