REMARK  Name = 75537076
REMARK  4 active torsions:
REMARK  status: ('A' for Active; 'I' for Inactive)
REMARK    1  A    between atoms: N_2  and  C_9
REMARK    2  A    between atoms: N_4  and  C_16
REMARK    3  A    between atoms: C_6  and  C_9
REMARK    4  A    between atoms: C_16  and  C_17
REMARK                            x       y       z     vdW  Elec       q    Type
REMARK                         _______ _______ _______ _____ _____    ______ ____
ROOT
ATOM      1  O   UNL     1       1.367   2.723   0.472  0.00  0.00    -0.252 OA
ATOM      2  N   UNL     1      -3.012   0.161   0.325  0.00  0.00    -0.299 NA
ATOM      3  N   UNL     1      -0.577   1.516  -0.058  0.00  0.00    -0.278 N 
ATOM      4  N   UNL     1       1.357   0.890  -1.013  0.00  0.00    -0.278 N 
ATOM     10  C   UNL     1      -0.952   0.469  -0.986  0.00  0.00    +0.109 C 
ATOM     11  C   UNL     1      -1.875  -0.540  -0.304  0.00  0.00    +0.108 C 
ATOM     12  C   UNL     1      -2.540   1.127   1.338  0.00  0.00    +0.103 C 
ATOM     13  C   UNL     1      -1.605   2.171   0.724  0.00  0.00    +0.125 C 
ATOM     14  C   UNL     1       0.387  -0.098  -1.452  0.00  0.00    +0.133 C 
ATOM     15  C   UNL     1       0.787   1.827  -0.127  0.00  0.00    +0.306 C 
ENDROOT
BRANCH   2   9
ATOM      9  C   UNL     1      -3.934  -0.801   0.928  0.00  0.00    +0.088 C 
BRANCH   9   6
ATOM      6  C   UNL     1      -4.804  -1.440  -0.105  0.00  0.00    +0.003 C 
ATOM      7  C   UNL     1      -5.997  -0.705  -0.649  0.00  0.00    +0.005 C 
ATOM      8  C   UNL     1      -6.194  -1.893   0.251  0.00  0.00    +0.005 C 
ENDBRANCH   9   6
ENDBRANCH   2   9
BRANCH   4  16
ATOM     16  C   UNL     1       2.760   0.791  -1.351  0.00  0.00    +0.164 C 
BRANCH  16  17
ATOM      5  N   UNL     1       3.800  -1.372  -0.983  0.00  0.00    -0.258 NA
ATOM     17  C   UNL     1       3.488  -0.168  -0.455  0.00  0.00    +0.059 A 
ATOM     18  C   UNL     1       3.799   0.216   0.840  0.00  0.00    +0.025 A 
ATOM     19  C   UNL     1       4.474  -0.695   1.644  0.00  0.00    +0.003 A 
ATOM     20  C   UNL     1       4.457  -2.232  -0.172  0.00  0.00    +0.111 A 
ATOM     21  C   UNL     1       4.814  -1.945   1.136  0.00  0.00    +0.020 A 
ENDBRANCH  16  17
ENDBRANCH   4  16
TORSDOF 4
