REMARK  Name = 38029190
REMARK  14 active torsions:
REMARK  status: ('A' for Active; 'I' for Inactive)
REMARK    1  A    between atoms: N_4  and  C_15
REMARK    2  A    between atoms: N_5  and  C_22
REMARK    3  A    between atoms: N_5  and  C_23
REMARK    4  A    between atoms: N_6  and  C_25
REMARK    5  A    between atoms: C_8  and  C_12
REMARK    6  A    between atoms: C_9  and  C_15
REMARK    7  A    between atoms: C_11  and  C_16
REMARK    8  A    between atoms: C_12  and  C_17
REMARK    9  A    between atoms: C_12  and  C_18
REMARK   10  A    between atoms: C_13  and  C_19
REMARK   11  A    between atoms: C_16  and  C_20
REMARK   12  A    between atoms: C_22  and  C_24
REMARK   13  A    between atoms: C_34  and  C_35
REMARK   14  A    between atoms: C_35  and  C_36
REMARK                            x       y       z     vdW  Elec       q    Type
REMARK                         _______ _______ _______ _____ _____    ______ ____
ROOT
ATOM      8  C   UNL     1      -3.092  -1.418   0.882  0.00  0.00    +0.000 C 
ATOM      9  C   UNL     1      -3.419  -2.553  -0.121  0.00  0.00    +0.032 C 
ATOM     10  C   UNL     1      -4.073  -0.249   0.709  0.00  0.00    +0.012 C 
ATOM     11  C   UNL     1      -4.038   0.334  -0.716  0.00  0.00    +0.023 C 
ATOM     13  C   UNL     1      -4.087  -0.752  -1.771  0.00  0.00    -0.073 C 
ATOM     14  C   UNL     1      -3.821  -2.039  -1.484  0.00  0.00    -0.022 C 
ATOM     19  C   UNL     1      -4.494  -0.333  -3.156  0.00  0.00    +0.039 C 
ENDROOT
BRANCH   8  12
ATOM     12  C   UNL     1      -3.126  -1.914   2.332  0.00  0.00    -0.013 C 
ATOM     17  C   UNL     1      -4.561  -1.954   2.847  0.00  0.00    +0.007 C 
ATOM     18  C   UNL     1      -2.257  -1.026   3.218  0.00  0.00    +0.007 C 
ENDBRANCH   8  12
BRANCH   9  15
ATOM     15  C   UNL     1      -2.239  -3.520  -0.267  0.00  0.00    +0.113 C 
BRANCH  15   4
ATOM      2  O   UNL     1       0.362  -3.184   0.885  0.00  0.00    -0.253 OA
ATOM      4  N   UNL     1      -1.118  -2.865  -0.865  0.00  0.00    -0.299 N 
ATOM      6  N   UNL     1       1.035  -2.053  -1.059  0.00  0.00    -0.269 N 
ATOM     21  C   UNL     1       0.135  -2.737  -0.237  0.00  0.00    +0.304 C 
ATOM     37  H   UNL     1      -1.205  -2.531  -1.820  0.00  0.00    +0.150 HD
ATOM     38  H   UNL     1       0.684  -1.746  -1.963  0.00  0.00    +0.156 HD
BRANCH   6  25
ATOM     25  C   UNL     1       2.384  -1.727  -0.787  0.00  0.00    +0.035 A 
ATOM     28  C   UNL     1       2.961  -2.100   0.427  0.00  0.00    +0.024 A 
ATOM     29  C   UNL     1       3.138  -1.031  -1.733  0.00  0.00    +0.024 A 
ATOM     31  C   UNL     1       4.291  -1.778   0.695  0.00  0.00    +0.013 A 
ATOM     32  C   UNL     1       4.468  -0.708  -1.464  0.00  0.00    +0.013 A 
ATOM     34  C   UNL     1       5.045  -1.082  -0.250  0.00  0.00    +0.017 A 
BRANCH  34  35
ATOM      3  O   UNL     1       7.276  -0.649  -0.882  0.00  0.00    -0.292 OA
ATOM     35  C   UNL     1       6.431  -0.746   0.031  0.00  0.00    +0.160 C 
ATOM     36  C   UNL     1       6.887  -0.502   1.466  0.00  0.00    +0.091 C 
ENDBRANCH  34  35
ENDBRANCH   6  25
ENDBRANCH  15   4
ENDBRANCH   9  15
BRANCH  11  16
ATOM     16  C   UNL     1      -2.815   1.236  -0.913  0.00  0.00    +0.103 C 
BRANCH  16  20
ATOM      1  O   UNL     1      -3.985   2.837   0.433  0.00  0.00    -0.276 OA
ATOM      5  N   UNL     1      -1.889   3.455  -0.343  0.00  0.00    -0.300 N 
ATOM     20  C   UNL     1      -2.966   2.572  -0.210  0.00  0.00    +0.216 C 
ATOM     23  C   UNL     1      -1.879   4.776   0.272  0.00  0.00    +0.132 C 
BRANCH   5  22
ATOM     22  C   UNL     1      -0.691   3.118  -1.110  0.00  0.00    +0.144 C 
BRANCH  22  24
ATOM      7  N   UNL     1       2.748   3.964   0.217  0.00  0.00    -0.263 NA
ATOM     24  C   UNL     1       0.539   3.098  -0.250  0.00  0.00    -0.012 A 
ATOM     26  C   UNL     1       0.639   2.239   0.839  0.00  0.00    +0.008 A 
ATOM     27  C   UNL     1       1.612   3.934  -0.516  0.00  0.00    +0.115 A 
ATOM     30  C   UNL     1       1.791   2.241   1.617  0.00  0.00    +0.020 A 
ATOM     33  C   UNL     1       2.808   3.115   1.267  0.00  0.00    +0.111 A 
ENDBRANCH  22  24
ENDBRANCH   5  22
ENDBRANCH  16  20
ENDBRANCH  11  16
TORSDOF 9
