REMARK  Name = 7050095
REMARK  13 active torsions:
REMARK  status: ('A' for Active; 'I' for Inactive)
REMARK    1  A    between atoms: O_4  and  C_14
REMARK    2  A    between atoms: O_5  and  C_15
REMARK    3  A    between atoms: O_9  and  C_33
REMARK    4  A    between atoms: O_9  and  C_34
REMARK    5  A    between atoms: N_10  and  C_16
REMARK    6  A    between atoms: N_11  and  C_20
REMARK    7  A    between atoms: N_12  and  C_28
REMARK    8  A    between atoms: C_18  and  C_21
REMARK    9  A    between atoms: C_20  and  C_22
REMARK   10  A    between atoms: C_20  and  C_27
REMARK   11  A    between atoms: C_22  and  C_23
REMARK   12  A    between atoms: C_23  and  C_25
REMARK   13  A    between atoms: C_23  and  C_26
REMARK                            x       y       z     vdW  Elec       q    Type
REMARK                         _______ _______ _______ _____ _____    ______ ____
ROOT
ATOM     14  C   UNL     1       1.395   3.104   0.493  0.00  0.00    +0.167 C 
ATOM     15  C   UNL     1       2.717   3.780   0.109  0.00  0.00    +0.149 C 
ATOM     16  C   UNL     1       1.099   1.890  -0.408  0.00  0.00    +0.129 C 
ATOM     17  C   UNL     1       3.899   2.796   0.137  0.00  0.00    +0.074 C 
ATOM     18  C   UNL     1       3.550   1.430  -0.382  0.00  0.00    +0.015 C 
ATOM     19  C   UNL     1       2.300   1.014  -0.638  0.00  0.00    +0.006 C 
ENDROOT
BRANCH  16  10
ATOM      7  O   UNL     1      -1.700   2.202  -0.928  0.00  0.00    -0.252 OA
ATOM     10  N   UNL     1       0.028   1.082   0.123  0.00  0.00    -0.290 N 
ATOM     12  N   UNL     1      -2.126   0.367   0.473  0.00  0.00    -0.269 N 
ATOM     24  C   UNL     1      -1.321   1.302  -0.183  0.00  0.00    +0.304 C 
ATOM     35  H   UNL     1       0.255   0.351   0.790  0.00  0.00    +0.151 HD
ATOM     39  H   UNL     1      -1.651  -0.316   1.057  0.00  0.00    +0.156 HD
BRANCH  12  28
ATOM     28  C   UNL     1      -3.535   0.251   0.427  0.00  0.00    +0.035 A 
ATOM     29  C   UNL     1      -4.177  -0.751   1.154  0.00  0.00    +0.027 A 
ATOM     30  C   UNL     1      -4.283   1.140  -0.345  0.00  0.00    +0.027 A 
ATOM     31  C   UNL     1      -5.566  -0.865   1.109  0.00  0.00    +0.048 A 
ATOM     32  C   UNL     1      -5.672   1.026  -0.391  0.00  0.00    +0.048 A 
ATOM     33  C   UNL     1      -6.314   0.024   0.336  0.00  0.00    +0.130 A 
BRANCH  33   9
ATOM      9  O   UNL     1      -7.670  -0.086   0.294  0.00  0.00    -0.406 OA
BRANCH   9  34
ATOM      1  F   UNL     1      -9.411  -1.026  -0.794  0.00  0.00    -0.133 F 
ATOM      2  F   UNL     1      -7.424  -1.884  -1.097  0.00  0.00    -0.133 F 
ATOM      3  F   UNL     1      -8.478  -2.158   0.826  0.00  0.00    -0.133 F 
ATOM     34  C   UNL     1      -8.233  -1.301  -0.188  0.00  0.00    +0.575 C 
ENDBRANCH   9  34
ENDBRANCH  33   9
ENDBRANCH  12  28
ENDBRANCH  16  10
BRANCH  18  21
ATOM      6  O   UNL     1       5.526   0.772  -1.451  0.00  0.00    -0.271 OA
ATOM     11  N   UNL     1       4.541  -0.675   0.089  0.00  0.00    -0.300 N 
ATOM     21  C   UNL     1       4.644   0.491  -0.647  0.00  0.00    +0.241 C 
ATOM     36  H   UNL     1       3.799  -0.765   0.778  0.00  0.00    +0.150 HD
BRANCH  11  20
ATOM     20  C   UNL     1       5.497  -1.748  -0.004  0.00  0.00    +0.159 C 
BRANCH  20  27
ATOM      8  O   UNL     1       6.451  -0.864   2.050  0.00  0.00    -0.274 OA
ATOM     13  N   UNL     1       7.849  -1.885   0.541  0.00  0.00    -0.328 N 
ATOM     27  C   UNL     1       6.622  -1.428   0.972  0.00  0.00    +0.231 C 
ATOM     40  H   UNL     1       7.972  -2.369  -0.343  0.00  0.00    +0.145 HD
ATOM     41  H   UNL     1       8.682  -1.749   1.104  0.00  0.00    +0.145 HD
ENDBRANCH  20  27
BRANCH  20  22
ATOM     22  C   UNL     1       4.877  -3.111   0.329  0.00  0.00    +0.034 C 
BRANCH  22  23
ATOM     23  C   UNL     1       3.676  -3.508  -0.555  0.00  0.00    -0.015 C 
ATOM     25  C   UNL     1       4.045  -3.590  -2.037  0.00  0.00    +0.007 C 
ATOM     26  C   UNL     1       3.115  -4.854  -0.088  0.00  0.00    +0.007 C 
ENDBRANCH  22  23
ENDBRANCH  20  22
ENDBRANCH  11  20
ENDBRANCH  18  21
BRANCH  14   4
ATOM      4  O   UNL     1       1.473   2.683   1.856  0.00  0.00    -0.387 OA
ATOM     37  H   UNL     1       1.630   3.474   2.398  0.00  0.00    +0.210 HD
ENDBRANCH  14   4
BRANCH  15   5
ATOM      5  O   UNL     1       2.607   4.377  -1.181  0.00  0.00    -0.389 OA
ATOM     38  H   UNL     1       3.446   4.831  -1.368  0.00  0.00    +0.210 HD
ENDBRANCH  15   5
TORSDOF 11
