REMARK  Name = 44716859
REMARK  9 active torsions:
REMARK  status: ('A' for Active; 'I' for Inactive)
REMARK    1  A    between atoms: O_3  and  C_15
REMARK    2  A    between atoms: O_4  and  C_20
REMARK    3  A    between atoms: N_8  and  C_26
REMARK    4  A    between atoms: C_10  and  C_18
REMARK    5  A    between atoms: C_12  and  C_20
REMARK    6  A    between atoms: C_12  and  C_21
REMARK    7  A    between atoms: C_13  and  C_23
REMARK    8  A    between atoms: C_23  and  C_24
REMARK    9  A    between atoms: C_27  and  C_30
REMARK                            x       y       z     vdW  Elec       q    Type
REMARK                         _______ _______ _______ _____ _____    ______ ____
ROOT
ATOM      1  S   UNL     1      -0.518   3.018   0.139  0.00  0.00    -0.057 S 
ATOM      6  O   UNL     1       3.199   0.176   0.003  0.00  0.00    -0.270 OA
ATOM      7  N   UNL     1       0.209   0.538   0.024  0.00  0.00    -0.229 NA
ATOM      9  N   UNL     1       1.968   2.184   0.100  0.00  0.00    -0.261 N 
ATOM     10  C   UNL     1      -3.506  -0.431   0.383  0.00  0.00    -0.019 C 
ATOM     11  C   UNL     1      -4.003   0.884  -0.365  0.00  0.00    +0.011 C 
ATOM     12  C   UNL     1      -5.560   1.125  -0.431  0.00  0.00    +0.021 C 
ATOM     13  C   UNL     1      -1.989  -0.698  -0.043  0.00  0.00    +0.054 C 
ATOM     14  C   UNL     1      -4.362  -1.640  -0.078  0.00  0.00    +0.010 C 
ATOM     15  C   UNL     1      -6.265  -0.192  -0.861  0.00  0.00    +0.123 C 
ATOM     16  C   UNL     1      -3.193   2.134   0.087  0.00  0.00    +0.049 C 
ATOM     17  C   UNL     1      -5.863  -1.393  -0.012  0.00  0.00    +0.032 C 
ATOM     18  C   UNL     1      -3.597  -0.318   1.924  0.00  0.00    +0.012 C 
ATOM     19  C   UNL     1      -1.174   0.567   0.037  0.00  0.00    +0.058 A 
ATOM     21  C   UNL     1      -5.862   2.189  -1.524  0.00  0.00    +0.016 C 
ATOM     22  C   UNL     1      -1.734   1.827   0.076  0.00  0.00    +0.015 A 
ATOM     25  C   UNL     1       0.662   1.772   0.082  0.00  0.00    +0.165 A 
ATOM     27  C   UNL     1       3.148   1.400   0.061  0.00  0.00    +0.250 C 
ATOM     42  H   UNL     1       2.061   3.195   0.108  0.00  0.00    +0.157 HD
ENDROOT
BRANCH  27  30
ATOM      2  F   UNL     1       7.867   1.744  -1.064  0.00  0.00    -0.205 F 
ATOM     30  C   UNL     1       4.433   2.147   0.068  0.00  0.00    +0.040 A 
ATOM     33  C   UNL     1       5.569   1.584  -0.512  0.00  0.00    +0.051 A 
ATOM     34  C   UNL     1       4.502   3.410   0.654  0.00  0.00    +0.013 A 
ATOM     36  C   UNL     1       6.776   2.285  -0.506  0.00  0.00    +0.124 A 
ATOM     37  C   UNL     1       5.708   4.111   0.661  0.00  0.00    +0.004 A 
ATOM     38  C   UNL     1       6.845   3.548   0.081  0.00  0.00    +0.038 A 
ENDBRANCH  27  30
BRANCH  15   3
ATOM      3  O   UNL     1      -7.684  -0.045  -0.804  0.00  0.00    -0.391 OA
ATOM     39  H   UNL     1      -8.079  -0.874  -1.125  0.00  0.00    +0.210 HD
ENDBRANCH  15   3
BRANCH  12  20
ATOM     20  C   UNL     1      -6.178   1.682   0.871  0.00  0.00    +0.165 C 
BRANCH  20   4
ATOM      4  O   UNL     1      -7.561   1.853   0.654  0.00  0.00    -0.394 OA
ATOM     40  H   UNL     1      -7.940   2.212   1.474  0.00  0.00    +0.209 HD
ENDBRANCH  20   4
ENDBRANCH  12  20
BRANCH  13  23
ATOM     23  C   UNL     1      -1.310  -1.852   0.707  0.00  0.00    +0.106 C 
BRANCH  23  24
ATOM      5  O   UNL     1      -0.203  -2.518  -1.326  0.00  0.00    -0.275 OA
ATOM      8  N   UNL     1       0.791  -2.972   0.752  0.00  0.00    -0.285 N 
ATOM     24  C   UNL     1      -0.192  -2.479  -0.101  0.00  0.00    +0.218 C 
ATOM     41  H   UNL     1       0.648  -2.868   1.754  0.00  0.00    +0.155 HD
BRANCH   8  26
ATOM     26  C   UNL     1       1.994  -3.627   0.395  0.00  0.00    +0.033 A 
ATOM     28  C   UNL     1       2.873  -4.061   1.388  0.00  0.00    +0.023 A 
ATOM     29  C   UNL     1       2.301  -3.840  -0.949  0.00  0.00    +0.023 A 
ATOM     31  C   UNL     1       4.058  -4.706   1.037  0.00  0.00    +0.002 A 
ATOM     32  C   UNL     1       3.486  -4.486  -1.300  0.00  0.00    +0.002 A 
ATOM     35  C   UNL     1       4.365  -4.919  -0.307  0.00  0.00    +0.000 A 
ENDBRANCH   8  26
ENDBRANCH  23  24
ENDBRANCH  13  23
TORSDOF 7
