REMARK  Name = 28960095
REMARK  13 active torsions:
REMARK  status: ('A' for Active; 'I' for Inactive)
REMARK    1  A    between atoms: O_2  and  C_17
REMARK    2  A    between atoms: N_5  and  C_13
REMARK    3  A    between atoms: N_5  and  C_21
REMARK    4  A    between atoms: N_5  and  C_22
REMARK    5  A    between atoms: C_6  and  C_11
REMARK    6  A    between atoms: C_7  and  C_12
REMARK    7  A    between atoms: C_11  and  C_13
REMARK    8  A    between atoms: C_12  and  C_17
REMARK    9  A    between atoms: C_14  and  C_15
REMARK   10  A    between atoms: C_15  and  C_16
REMARK   11  A    between atoms: C_16  and  C_18
REMARK   12  A    between atoms: C_16  and  C_19
REMARK   13  A    between atoms: C_16  and  C_20
REMARK                            x       y       z     vdW  Elec       q    Type
REMARK                         _______ _______ _______ _____ _____    ______ ____
ROOT
ATOM      1  O   UNL     1       3.988  -0.431   1.211  0.00  0.00    -0.276 OA
ATOM      4  N   UNL     1       2.368  -1.231  -0.250  0.00  0.00    -0.301 N 
ATOM      6  C   UNL     1       0.028  -1.316  -1.083  0.00  0.00    +0.012 C 
ATOM      7  C   UNL     1      -0.135  -2.685  -0.374  0.00  0.00    +0.006 C 
ATOM      8  C   UNL     1       1.509  -1.081  -1.432  0.00  0.00    +0.111 C 
ATOM      9  C   UNL     1       0.818  -2.818   0.826  0.00  0.00    +0.023 C 
ATOM     10  C   UNL     1       2.261  -2.526   0.423  0.00  0.00    +0.108 C 
ATOM     14  C   UNL     1       3.257  -0.270   0.229  0.00  0.00    +0.216 C 
ENDROOT
BRANCH   6  11
ATOM     11  C   UNL     1      -0.524  -0.130  -0.282  0.00  0.00    +0.024 C 
BRANCH  11  13
ATOM     13  C   UNL     1      -0.877   1.054  -1.168  0.00  0.00    +0.105 C 
BRANCH  13   5
ATOM      5  N   UNL     1      -1.439   2.131  -0.389  0.00  0.00    -0.333 N 
ATOM     22  C   UNL     1      -0.541   3.169   0.121  0.00  0.00    +0.129 C 
BRANCH   5  21
ATOM     21  C   UNL     1      -2.812   2.193  -0.109  0.00  0.00    +0.029 A 
ATOM     23  C   UNL     1      -3.668   1.204  -0.594  0.00  0.00    +0.023 A 
ATOM     24  C   UNL     1      -3.321   3.244   0.654  0.00  0.00    +0.023 A 
ATOM     25  C   UNL     1      -5.033   1.266  -0.316  0.00  0.00    +0.002 A 
ATOM     26  C   UNL     1      -4.686   3.306   0.932  0.00  0.00    +0.002 A 
ATOM     27  C   UNL     1      -5.543   2.317   0.447  0.00  0.00    +0.000 A 
ENDBRANCH   5  21
ENDBRANCH  13   5
ENDBRANCH  11  13
ENDBRANCH   6  11
BRANCH   7  12
ATOM     12  C   UNL     1      -1.575  -2.976   0.046  0.00  0.00    +0.124 C 
BRANCH  12  17
ATOM      3  O   UNL     1      -1.001  -5.345   0.054  0.00  0.00    -0.251 OA
ATOM     17  C   UNL     1      -1.817  -4.450   0.215  0.00  0.00    +0.305 C 
BRANCH  17   2
ATOM      2  O   UNL     1      -3.107  -4.663   0.583  0.00  0.00    -0.481 OA
ATOM     28  H   UNL     1      -3.300  -5.618   0.703  0.00  0.00    +0.295 HD
ENDBRANCH  17   2
ENDBRANCH  12  17
ENDBRANCH   7  12
BRANCH  14  15
ATOM     15  C   UNL     1       3.306   1.038  -0.518  0.00  0.00    +0.102 C 
BRANCH  15  16
ATOM     16  C   UNL     1       4.353   2.013   0.051  0.00  0.00    -0.029 C 
ATOM     18  C   UNL     1       4.402   3.315  -0.768  0.00  0.00    +0.011 C 
ATOM     19  C   UNL     1       5.730   1.329  -0.032  0.00  0.00    +0.011 C 
ATOM     20  C   UNL     1       4.058   2.347   1.523  0.00  0.00    +0.011 C 
ENDBRANCH  15  16
ENDBRANCH  14  15
TORSDOF 9
