REMARK  Name = 51137094
REMARK  4 active torsions:
REMARK  status: ('A' for Active; 'I' for Inactive)
REMARK    1  A    between atoms: N_2  and  C_10
REMARK    2  A    between atoms: C_5  and  C_9
REMARK    3  A    between atoms: C_10  and  C_11
REMARK    4  A    between atoms: C_18  and  C_23
REMARK                            x       y       z     vdW  Elec       q    Type
REMARK                         _______ _______ _______ _____ _____    ______ ____
ROOT
ATOM      2  N   UNL     1      -1.798   1.517   0.096  0.00  0.00    -0.297 NA
ATOM      5  C   UNL     1       0.346   1.024   0.908  0.00  0.00    +0.070 C 
ATOM      6  C   UNL     1       0.134   2.547   0.907  0.00  0.00    +0.028 C 
ATOM      7  C   UNL     1      -0.772   0.476   0.011  0.00  0.00    +0.096 C 
ATOM      8  C   UNL     1      -1.064   2.779  -0.004  0.00  0.00    +0.085 C 
ENDROOT
BRANCH   5   9
ATOM      3  N   UNL     1       2.526  -0.155   1.307  0.00  0.00    -0.342 N 
ATOM      4  N   UNL     1       2.296   0.805  -0.684  0.00  0.00    -0.232 NA
ATOM      9  C   UNL     1       1.722   0.574   0.475  0.00  0.00    +0.113 A 
ATOM     12  C   UNL     1       3.696  -0.410   0.640  0.00  0.00    +0.066 A 
ATOM     13  C   UNL     1       3.529   0.200  -0.600  0.00  0.00    +0.089 A 
ATOM     14  C   UNL     1       4.853  -1.101   1.004  0.00  0.00    +0.031 A 
ATOM     15  C   UNL     1       4.566   0.126  -1.545  0.00  0.00    +0.030 A 
ATOM     18  C   UNL     1       5.875  -1.165   0.051  0.00  0.00    -0.048 A 
ATOM     19  C   UNL     1       5.736  -0.563  -1.201  0.00  0.00    +0.005 A 
ATOM     23  C   UNL     1       7.138  -1.891   0.382  0.00  0.00    +0.044 C 
ATOM     24  H   UNL     1       2.301  -0.454   2.247  0.00  0.00    +0.167 HD
ENDBRANCH   5   9
BRANCH   2  10
ATOM     10  C   UNL     1      -2.813   1.383  -0.938  0.00  0.00    +0.119 C 
BRANCH  10  11
ATOM      1 CL   UNL     1      -6.992  -2.683   0.543  0.00  0.00    -0.084 Cl
ATOM     11  C   UNL     1      -3.860   0.366  -0.568  0.00  0.00    -0.033 A 
ATOM     16  C   UNL     1      -3.690  -0.972  -0.926  0.00  0.00    +0.006 A 
ATOM     17  C   UNL     1      -4.999   0.760   0.133  0.00  0.00    +0.006 A 
ATOM     20  C   UNL     1      -4.659  -1.914  -0.584  0.00  0.00    +0.020 A 
ATOM     21  C   UNL     1      -5.969  -0.182   0.476  0.00  0.00    +0.020 A 
ATOM     22  C   UNL     1      -5.798  -1.520   0.117  0.00  0.00    +0.041 A 
ENDBRANCH  10  11
ENDBRANCH   2  10
TORSDOF 3
