REMARK  Name = 56775520
REMARK  12 active torsions:
REMARK  status: ('A' for Active; 'I' for Inactive)
REMARK    1  A    between atoms: O_3  and  C_18
REMARK    2  A    between atoms: N_4  and  C_6
REMARK    3  A    between atoms: N_4  and  C_10
REMARK    4  A    between atoms: C_6  and  C_9
REMARK    5  A    between atoms: C_9  and  C_12
REMARK    6  A    between atoms: C_10  and  C_11
REMARK    7  A    between atoms: C_11  and  C_13
REMARK    8  A    between atoms: C_11  and  C_14
REMARK    9  A    between atoms: C_11  and  C_15
REMARK   10  A    between atoms: C_17  and  C_18
REMARK   11  A    between atoms: C_18  and  C_19
REMARK   12  A    between atoms: C_18  and  C_20
REMARK                            x       y       z     vdW  Elec       q    Type
REMARK                         _______ _______ _______ _____ _____    ______ ____
ROOT
ATOM      1  O   UNL     1      -2.434   3.170   0.758  0.00  0.00    -0.376 OA
ATOM      6  C   UNL     1      -1.514   1.441  -0.090  0.00  0.00    +0.072 C 
ATOM      7  C   UNL     1      -2.813   2.221  -0.264  0.00  0.00    +0.184 C 
ATOM      8  C   UNL     1      -1.228   2.424   1.040  0.00  0.00    +0.184 C 
ENDROOT
BRANCH   6   4
ATOM      4  N   UNL     1      -1.824   0.131   0.490  0.00  0.00    -0.306 NA
ATOM     21  H   UNL     1      -1.044  -0.317   0.967  0.00  0.00    +0.123 HD
BRANCH   4  10
ATOM     10  C   UNL     1      -2.339  -0.749  -0.555  0.00  0.00    +0.087 C 
BRANCH  10  11
ATOM     11  C   UNL     1      -3.088  -1.996  -0.019  0.00  0.00    -0.025 C 
ATOM     13  C   UNL     1      -4.327  -1.518   0.761  0.00  0.00    +0.012 C 
ATOM     14  C   UNL     1      -3.553  -2.896  -1.178  0.00  0.00    +0.012 C 
ATOM     15  C   UNL     1      -2.197  -2.816   0.932  0.00  0.00    +0.012 C 
ENDBRANCH  10  11
ENDBRANCH   4  10
ENDBRANCH   6   4
BRANCH   6   9
ATOM      9  C   UNL     1      -0.559   1.359  -1.241  0.00  0.00    +0.085 C 
BRANCH   9  12
ATOM      2  O   UNL     1       2.847   1.290  -0.035  0.00  0.00    -0.356 OA
ATOM      5  N   UNL     1       1.692   1.959  -0.423  0.00  0.00    -0.083 NA
ATOM     12  C   UNL     1       0.831   0.995  -0.761  0.00  0.00    +0.086 A 
ATOM     16  C   UNL     1       1.381  -0.290  -0.608  0.00  0.00    +0.074 A 
ATOM     17  C   UNL     1       2.649  -0.049  -0.150  0.00  0.00    +0.168 A 
BRANCH  17  18
ATOM     18  C   UNL     1       3.777  -0.911   0.223  0.00  0.00    +0.120 C 
ATOM     19  C   UNL     1       5.050  -0.651  -0.634  0.00  0.00    +0.049 C 
ATOM     20  C   UNL     1       4.164  -0.790   1.725  0.00  0.00    +0.049 C 
BRANCH  18   3
ATOM      3  O   UNL     1       3.486  -2.324   0.030  0.00  0.00    -0.381 OA
ATOM     22  H   UNL     1       4.270  -2.835   0.295  0.00  0.00    +0.211 HD
ENDBRANCH  18   3
ENDBRANCH  17  18
ENDBRANCH   9  12
ENDBRANCH   6   9
TORSDOF 7
