REMARK  Name = 45361382
REMARK  14 active torsions:
REMARK  status: ('A' for Active; 'I' for Inactive)
REMARK    1  A    between atoms: O_1  and  C_11
REMARK    2  A    between atoms: O_4  and  C_31
REMARK    3  A    between atoms: O_4  and  C_37
REMARK    4  A    between atoms: O_5  and  C_36
REMARK    5  A    between atoms: O_5  and  C_38
REMARK    6  A    between atoms: N_6  and  C_15
REMARK    7  A    between atoms: N_7  and  C_25
REMARK    8  A    between atoms: C_8  and  C_18
REMARK    9  A    between atoms: C_10  and  C_20
REMARK   10  A    between atoms: C_14  and  C_19
REMARK   11  A    between atoms: C_19  and  C_21
REMARK   12  A    between atoms: C_19  and  C_22
REMARK   13  A    between atoms: C_23  and  C_24
REMARK   14  A    between atoms: C_25  and  C_28
REMARK                            x       y       z     vdW  Elec       q    Type
REMARK                         _______ _______ _______ _____ _____    ______ ____
ROOT
ATOM      8  C   UNL     1       0.246   0.203   1.150  0.00  0.00    -0.027 C 
ATOM      9  C   UNL     1      -0.152  -0.719  -0.051  0.00  0.00    +0.028 C 
ATOM     10  C   UNL     1      -1.701  -0.979  -0.066  0.00  0.00    +0.012 C 
ATOM     11  C   UNL     1       0.741  -1.992  -0.103  0.00  0.00    +0.122 C 
ATOM     12  C   UNL     1       1.756   0.531   1.070  0.00  0.00    +0.007 C 
ATOM     13  C   UNL     1      -0.531   1.535   1.042  0.00  0.00    +0.009 C 
ATOM     14  C   UNL     1       2.251  -1.661  -0.078  0.00  0.00    +0.029 C 
ATOM     15  C   UNL     1      -2.474   0.369  -0.098  0.00  0.00    +0.076 C 
ATOM     16  C   UNL     1       2.635  -0.713   1.058  0.00  0.00    +0.007 C 
ATOM     17  C   UNL     1      -2.041   1.344   0.996  0.00  0.00    +0.023 C 
ATOM     18  C   UNL     1      -0.049  -0.450   2.524  0.00  0.00    +0.011 C 
ATOM     20  C   UNL     1      -2.166  -1.857  -1.239  0.00  0.00    +0.010 C 
ENDROOT
BRANCH  15   6
ATOM      3  O   UNL     1      -4.520   1.992  -1.292  0.00  0.00    -0.270 OA
ATOM      6  N   UNL     1      -3.904   0.171   0.004  0.00  0.00    -0.308 N 
ATOM     23  C   UNL     1      -4.814   1.013  -0.611  0.00  0.00    +0.244 C 
ATOM     39  H   UNL     1      -4.221  -0.550   0.644  0.00  0.00    +0.149 HD
BRANCH  23  24
ATOM     24  C   UNL     1      -6.247   0.688  -0.388  0.00  0.00    +0.037 A 
ATOM     26  C   UNL     1      -7.208   1.698  -0.446  0.00  0.00    +0.016 A 
ATOM     27  C   UNL     1      -6.631  -0.625  -0.118  0.00  0.00    +0.016 A 
ATOM     29  C   UNL     1      -8.552   1.394  -0.234  0.00  0.00    +0.046 A 
ATOM     30  C   UNL     1      -7.975  -0.929   0.094  0.00  0.00    +0.046 A 
ATOM     31  C   UNL     1      -8.936   0.081   0.036  0.00  0.00    +0.120 A 
BRANCH  31   4
ATOM      4  O   UNL     1     -10.248  -0.216   0.243  0.00  0.00    -0.495 OA
ATOM     37  C   UNL     1     -11.178   0.864   0.169  0.00  0.00    +0.277 C 
ENDBRANCH  31   4
ENDBRANCH  23  24
ENDBRANCH  15   6
BRANCH  11   1
ATOM      1  O   UNL     1       0.497  -2.695  -1.323  0.00  0.00    -0.391 OA
ATOM     40  H   UNL     1       0.711  -2.101  -2.062  0.00  0.00    +0.210 HD
ENDBRANCH  11   1
BRANCH  14  19
ATOM     19  C   UNL     1       3.110  -2.929   0.001  0.00  0.00    +0.077 C 
ATOM     21  C   UNL     1       2.768  -3.717   1.261  0.00  0.00    +0.017 C 
BRANCH  19  22
ATOM      2  O   UNL     1       5.373  -2.858   0.861  0.00  0.00    -0.276 OA
ATOM      7  N   UNL     1       4.931  -1.855  -1.183  0.00  0.00    -0.311 N 
ATOM     22  C   UNL     1       4.589  -2.558  -0.037  0.00  0.00    +0.216 C 
ATOM     41  H   UNL     1       4.236  -1.692  -1.904  0.00  0.00    +0.149 HD
BRANCH   7  25
ATOM     25  C   UNL     1       6.275  -1.393  -1.445  0.00  0.00    +0.139 C 
BRANCH  25  28
ATOM     28  C   UNL     1       6.512  -0.015  -0.897  0.00  0.00    -0.030 A 
ATOM     32  C   UNL     1       5.980   1.097  -1.550  0.00  0.00    +0.009 A 
ATOM     33  C   UNL     1       7.263   0.152   0.266  0.00  0.00    +0.009 A 
ATOM     34  C   UNL     1       6.201   2.377  -1.040  0.00  0.00    +0.046 A 
ATOM     35  C   UNL     1       7.484   1.432   0.776  0.00  0.00    +0.046 A 
ATOM     36  C   UNL     1       6.953   2.544   0.123  0.00  0.00    +0.120 A 
BRANCH  36   5
ATOM      5  O   UNL     1       7.167   3.792   0.621  0.00  0.00    -0.495 OA
ATOM     38  C   UNL     1       6.594   4.884  -0.097  0.00  0.00    +0.277 C 
ENDBRANCH  36   5
ENDBRANCH  25  28
ENDBRANCH   7  25
ENDBRANCH  19  22
ENDBRANCH  14  19
TORSDOF 9
