REMARK  Name = 7135373
REMARK  10 active torsions:
REMARK  status: ('A' for Active; 'I' for Inactive)
REMARK    1  A    between atoms: O_2  and  C_20
REMARK    2  A    between atoms: O_3  and  C_21
REMARK    3  A    between atoms: O_3  and  C_25
REMARK    4  A    between atoms: C_5  and  C_6
REMARK    5  A    between atoms: C_6  and  C_12
REMARK    6  A    between atoms: C_6  and  C_13
REMARK    7  A    between atoms: C_16  and  C_23
REMARK    8  A    between atoms: C_19  and  C_24
REMARK    9  A    between atoms: C_25  and  C_26
REMARK   10  A    between atoms: C_26  and  C_27
REMARK                            x       y       z     vdW  Elec       q    Type
REMARK                         _______ _______ _______ _____ _____    ______ ____
ROOT
ATOM      5  C   UNL     1      -0.770   1.749   0.458  0.00  0.00    +0.005 C 
ATOM      7  C   UNL     1      -0.250   3.007  -0.244  0.00  0.00    +0.009 C 
ATOM      8  C   UNL     1      -0.085   0.506  -0.129  0.00  0.00    +0.040 C 
ATOM      9  C   UNL     1       1.250   3.174  -0.003  0.00  0.00    +0.036 C 
ATOM     10  C   UNL     1       1.413   0.648  -0.251  0.00  0.00    -0.037 A 
ATOM     11  C   UNL     1       2.037   1.908  -0.232  0.00  0.00    -0.041 A 
ATOM     16  C   UNL     1       2.191  -0.503  -0.447  0.00  0.00    -0.005 A 
ATOM     19  C   UNL     1       3.430   1.989  -0.372  0.00  0.00    -0.044 A 
ATOM     21  C   UNL     1       3.575  -0.408  -0.594  0.00  0.00    +0.124 A 
ATOM     22  C   UNL     1       4.194   0.837  -0.554  0.00  0.00    +0.049 A 
ATOM     23  C   UNL     1       1.556  -1.858  -0.511  0.00  0.00    +0.048 C 
ATOM     24  C   UNL     1       4.147   3.301  -0.321  0.00  0.00    +0.044 C 
ENDROOT
BRANCH   5   6
ATOM      6  C   UNL     1      -2.288   1.639   0.328  0.00  0.00    +0.075 C 
ATOM     13  C   UNL     1      -2.983   2.863   0.903  0.00  0.00    +0.017 C 
BRANCH   6  12
ATOM      1  O   UNL     1      -2.153   0.019   2.052  0.00  0.00    -0.275 OA
ATOM      4  N   UNL     1      -3.896  -0.225   0.535  0.00  0.00    -0.301 N 
ATOM     12  C   UNL     1      -2.767   0.407   1.054  0.00  0.00    +0.219 C 
ATOM     14  C   UNL     1      -4.668   0.234  -0.626  0.00  0.00    +0.110 C 
ATOM     15  C   UNL     1      -4.420  -1.429   1.183  0.00  0.00    +0.110 C 
ATOM     17  C   UNL     1      -4.794  -0.880  -1.667  0.00  0.00    +0.050 C 
ATOM     18  C   UNL     1      -4.542  -2.578   0.182  0.00  0.00    +0.050 C 
ATOM     20  C   UNL     1      -5.347  -2.170  -1.054  0.00  0.00    +0.118 C 
BRANCH  20   2
ATOM      2  O   UNL     1      -6.708  -1.982  -0.674  0.00  0.00    -0.392 OA
ATOM     28  H   UNL     1      -7.202  -1.730  -1.473  0.00  0.00    +0.210 HD
ENDBRANCH  20   2
ENDBRANCH   6  12
ENDBRANCH   5   6
BRANCH  21   3
ATOM      3  O   UNL     1       4.337  -1.523  -0.780  0.00  0.00    -0.492 OA
BRANCH   3  25
ATOM     25  C   UNL     1       5.345  -1.788   0.193  0.00  0.00    +0.229 C 
BRANCH  25  26
ATOM     26  C   UNL     1       5.570  -3.290   0.271  0.00  0.00    +0.038 C 
ATOM     27  C   UNL     1       6.625  -3.650   1.302  0.00  0.00    +0.007 C 
ENDBRANCH  25  26
ENDBRANCH   3  25
ENDBRANCH  21   3
TORSDOF 6
