REMARK  Name = 25314446
REMARK  6 active torsions:
REMARK  status: ('A' for Active; 'I' for Inactive)
REMARK    1  A    between atoms: S_1  and  C_11
REMARK    2  A    between atoms: S_1  and  C_15
REMARK    3  A    between atoms: O_4  and  C_10
REMARK    4  A    between atoms: N_6  and  C_8
REMARK    5  A    between atoms: N_7  and  C_18
REMARK    6  A    between atoms: C_18  and  C_22
REMARK                            x       y       z     vdW  Elec       q    Type
REMARK                         _______ _______ _______ _____ _____    ______ ____
ROOT
ATOM      2  O   UNL     1      -2.838   1.020   1.353  0.00  0.00    -0.343 OA
ATOM      3  O   UNL     1      -4.105   0.157  -0.391  0.00  0.00    -0.347 OA
ATOM      8  C   UNL     1      -1.322   1.442  -0.475  0.00  0.00    +0.135 C 
ATOM      9  C   UNL     1      -2.635   1.865   0.217  0.00  0.00    +0.170 C 
ATOM     10  C   UNL     1      -1.232  -0.076  -0.762  0.00  0.00    +0.155 C 
ATOM     11  C   UNL     1      -2.054  -0.955   0.206  0.00  0.00    +0.138 C 
ATOM     12  C   UNL     1      -3.280  -0.196   0.735  0.00  0.00    +0.266 C 
ATOM     13  C   UNL     1      -3.887   1.562  -0.580  0.00  0.00    +0.196 C 
ENDROOT
BRANCH   8   6
ATOM      5  O   UNL     1       1.269   2.286  -1.421  0.00  0.00    -0.253 OA
ATOM      6  N   UNL     1      -0.193   1.864   0.331  0.00  0.00    -0.291 N 
ATOM      7  N   UNL     1       1.927   2.609   0.780  0.00  0.00    -0.296 N 
ATOM     14  C   UNL     1       1.021   2.255  -0.217  0.00  0.00    +0.300 C 
ATOM     24  H   UNL     1      -0.270   1.796   1.341  0.00  0.00    +0.151 HD
ATOM     26  H   UNL     1       1.640   2.532   1.751  0.00  0.00    +0.151 HD
BRANCH   7  18
ATOM     18  C   UNL     1       3.270   3.055   0.494  0.00  0.00    +0.132 C 
BRANCH  18  22
ATOM     22  C   UNL     1       4.180   1.872   0.457  0.00  0.00    -0.016 C 
ATOM     23  C   UNL     1       4.875   1.500  -0.624  0.00  0.00    +0.005 C 
ENDBRANCH  18  22
ENDBRANCH   7  18
ENDBRANCH   8   6
BRANCH  10   4
ATOM      4  O   UNL     1      -1.699  -0.310  -2.100  0.00  0.00    -0.389 OA
ATOM     25  H   UNL     1      -1.123   0.188  -2.704  0.00  0.00    +0.210 HD
ENDBRANCH  10   4
BRANCH  11   1
ATOM      1  S   UNL     1      -1.015  -1.509   1.606  0.00  0.00    -0.114 S 
BRANCH   1  15
ATOM     15  C   UNL     1       0.277  -2.388   0.741  0.00  0.00    +0.008 A 
ATOM     16  C   UNL     1      -0.040  -3.484  -0.060  0.00  0.00    +0.015 A 
ATOM     17  C   UNL     1       1.604  -1.977   0.867  0.00  0.00    +0.015 A 
ATOM     19  C   UNL     1       0.969  -4.170  -0.736  0.00  0.00    +0.001 A 
ATOM     20  C   UNL     1       2.614  -2.662   0.191  0.00  0.00    +0.001 A 
ATOM     21  C   UNL     1       2.296  -3.759  -0.610  0.00  0.00    +0.000 A 
ENDBRANCH   1  15
ENDBRANCH  11   1
TORSDOF 6
