REMARK  Name = 51136856
REMARK  5 active torsions:
REMARK  status: ('A' for Active; 'I' for Inactive)
REMARK    1  A    between atoms: N_2  and  C_9
REMARK    2  A    between atoms: N_3  and  C_19
REMARK    3  A    between atoms: N_7  and  C_28
REMARK    4  A    between atoms: C_10  and  C_18
REMARK    5  A    between atoms: C_20  and  C_25
REMARK                            x       y       z     vdW  Elec       q    Type
REMARK                         _______ _______ _______ _____ _____    ______ ____
ROOT
ATOM      1  O   UNL     1      -2.122   2.107  -1.806  0.00  0.00    -0.336 OA
ATOM      4  N   UNL     1      -1.374   1.142   0.072  0.00  0.00    -0.190 NA
ATOM      5  N   UNL     1      -0.747   1.916  -1.987  0.00  0.00    -0.056 NA
ATOM     18  C   UNL     1      -2.409   1.625  -0.568  0.00  0.00    +0.245 A 
ATOM     20  C   UNL     1      -0.378   1.343  -0.838  0.00  0.00    +0.204 A 
ENDROOT
BRANCH  20  25
ATOM      6  N   UNL     1       4.904  -0.111   0.128  0.00  0.00    -0.313 N 
ATOM      7  N   UNL     1       7.683  -0.652   0.504  0.00  0.00    -0.302 NA
ATOM      8  N   UNL     1       3.275   0.831  -1.309  0.00  0.00    -0.240 NA
ATOM     21  C   UNL     1       5.739  -0.502  -1.015  0.00  0.00    +0.122 C 
ATOM     22  C   UNL     1       5.619   0.477   1.264  0.00  0.00    +0.122 C 
ATOM     23  C   UNL     1       6.928  -1.345  -0.547  0.00  0.00    +0.103 C 
ATOM     24  C   UNL     1       6.813  -0.396   1.658  0.00  0.00    +0.103 C 
ATOM     25  C   UNL     1       0.978   0.960  -0.567  0.00  0.00    +0.041 A 
ATOM     26  C   UNL     1       3.577   0.257  -0.123  0.00  0.00    +0.121 A 
ATOM     27  C   UNL     1       1.327   0.366   0.641  0.00  0.00    +0.016 A 
ATOM     28  C   UNL     1       8.847  -1.442   0.904  0.00  0.00    +0.105 C 
ATOM     29  C   UNL     1       2.650   0.005   0.875  0.00  0.00    +0.044 A 
ATOM     30  C   UNL     1       1.980   1.169  -1.501  0.00  0.00    +0.124 A 
ENDBRANCH  20  25
BRANCH  18  10
ATOM      2  N   UNL     1      -4.217   0.668   0.849  0.00  0.00    -0.288 NA
ATOM     10  C   UNL     1      -3.855   1.715  -0.127  0.00  0.00    +0.146 C 
ATOM     11  C   UNL     1      -5.277   1.231   1.685  0.00  0.00    +0.085 C 
ATOM     14  C   UNL     1      -4.176   3.042   0.586  0.00  0.00    +0.030 C 
ATOM     15  C   UNL     1      -4.771   2.639   1.928  0.00  0.00    +0.017 C 
BRANCH   2   9
ATOM      3  N   UNL     1      -4.193  -3.455  -0.184  0.00  0.00    -0.305 NA
ATOM      9  C   UNL     1      -4.621  -0.588   0.221  0.00  0.00    +0.060 C 
ATOM     12  C   UNL     1      -4.972  -1.626   1.291  0.00  0.00    +0.034 C 
ATOM     13  C   UNL     1      -3.513  -1.129  -0.687  0.00  0.00    +0.034 C 
ATOM     16  C   UNL     1      -5.302  -2.979   0.655  0.00  0.00    +0.085 C 
ATOM     17  C   UNL     1      -3.890  -2.498  -1.258  0.00  0.00    +0.085 C 
ATOM     19  C   UNL     1      -4.503  -4.770  -0.744  0.00  0.00    +0.104 C 
ENDBRANCH   2   9
ENDBRANCH  18  10
TORSDOF 3
