REMARK  Name = 9391268
REMARK  6 active torsions:
REMARK  status: ('A' for Active; 'I' for Inactive)
REMARK    1  A    between atoms: S_1  and  N_9
REMARK    2  A    between atoms: S_1  and  C_23
REMARK    3  A    between atoms: N_9  and  C_18
REMARK    4  A    between atoms: N_10  and  C_24
REMARK    5  A    between atoms: C_23  and  C_25
REMARK    6  A    between atoms: C_25  and  C_28
REMARK                            x       y       z     vdW  Elec       q    Type
REMARK                         _______ _______ _______ _____ _____    ______ ____
ROOT
ATOM      3  O   UNL     1       3.024  -1.556  -3.098  0.00  0.00    -0.268 OA
ATOM      4  O   UNL     1      -0.778  -3.280  -0.190  0.00  0.00    -0.252 OA
ATOM      7  N   UNL     1       2.753  -1.031  -0.830  0.00  0.00    -0.310 N 
ATOM      8  N   UNL     1       0.626  -2.116   1.228  0.00  0.00    -0.284 N 
ATOM     10  N   UNL     1      -1.317  -1.093   0.371  0.00  0.00    -0.269 N 
ATOM     11  C   UNL     1       3.004  -2.801   1.006  0.00  0.00    +0.027 C 
ATOM     12  C   UNL     1       2.443  -0.479   1.606  0.00  0.00    +0.055 C 
ATOM     13  C   UNL     1       3.423  -1.623   1.874  0.00  0.00    +0.018 C 
ATOM     14  C   UNL     1       3.169  -2.391  -0.459  0.00  0.00    +0.130 C 
ATOM     15  C   UNL     1       1.561  -3.238   1.330  0.00  0.00    +0.114 C 
ATOM     16  C   UNL     1       1.026  -0.932   2.007  0.00  0.00    +0.119 C 
ATOM     17  C   UNL     1       2.455  -0.051   0.140  0.00  0.00    +0.049 A 
ATOM     18  C   UNL     1       2.162   1.198  -0.277  0.00  0.00    +0.068 A 
ATOM     19  C   UNL     1       2.756  -0.745  -2.210  0.00  0.00    +0.252 A 
ATOM     20  C   UNL     1      -0.528  -2.242   0.428  0.00  0.00    +0.306 C 
ATOM     21  C   UNL     1       2.153   1.556  -1.666  0.00  0.00    +0.031 A 
ATOM     22  C   UNL     1       2.422   0.647  -2.606  0.00  0.00    +0.072 A 
ATOM     33  H   UNL     1      -0.866  -0.195   0.504  0.00  0.00    +0.156 HD
ENDROOT
BRANCH  10  24
ATOM      2  F   UNL     1      -6.736  -0.785  -0.744  0.00  0.00    -0.205 F 
ATOM     24  C   UNL     1      -2.702  -1.015   0.086  0.00  0.00    +0.035 A 
ATOM     26  C   UNL     1      -3.445  -2.182  -0.066  0.00  0.00    +0.026 A 
ATOM     27  C   UNL     1      -3.313   0.230  -0.041  0.00  0.00    +0.026 A 
ATOM     29  C   UNL     1      -4.809  -2.105  -0.346  0.00  0.00    +0.040 A 
ATOM     30  C   UNL     1      -4.677   0.307  -0.321  0.00  0.00    +0.040 A 
ATOM     31  C   UNL     1      -5.426  -0.860  -0.474  0.00  0.00    +0.124 A 
ENDBRANCH  10  24
BRANCH  18   9
ATOM      9  N   UNL     1       1.823   2.187   0.677  0.00  0.00    -0.219 N 
ATOM     32  H   UNL     1       2.163   2.047   1.633  0.00  0.00    +0.173 HD
BRANCH   9   1
ATOM      1  S   UNL     1       0.234   2.785   0.564  0.00  0.00    +0.043 S 
ATOM      5  O   UNL     1      -0.364   2.362  -0.688  0.00  0.00    -0.155 OA
ATOM      6  O   UNL     1      -0.449   2.581   1.827  0.00  0.00    -0.155 OA
BRANCH   1  23
ATOM     23  C   UNL     1       0.587   4.519   0.419  0.00  0.00    +0.188 C 
BRANCH  23  25
ATOM     25  C   UNL     1      -0.689   5.335   0.298  0.00  0.00    +0.021 C 
ATOM     28  C   UNL     1      -0.388   6.818   0.154  0.00  0.00    +0.005 C 
ENDBRANCH  23  25
ENDBRANCH   1  23
ENDBRANCH   9   1
ENDBRANCH  18   9
TORSDOF 5
