REMARK  Name = 75536074
REMARK  5 active torsions:
REMARK  status: ('A' for Active; 'I' for Inactive)
REMARK    1  A    between atoms: O_1  and  C_8
REMARK    2  A    between atoms: O_2  and  C_10
REMARK    3  A    between atoms: N_4  and  C_6
REMARK    4  A    between atoms: C_7  and  C_15
REMARK    5  A    between atoms: C_11  and  C_16
REMARK                            x       y       z     vdW  Elec       q    Type
REMARK                         _______ _______ _______ _____ _____    ______ ____
ROOT
ATOM      6  C   UNL     1      -0.468  -1.248  -0.057  0.00  0.00    +0.111 C 
ATOM      7  C   UNL     1      -1.171  -0.311   0.951  0.00  0.00    +0.046 C 
ATOM      8  C   UNL     1      -1.087  -2.614   0.237  0.00  0.00    +0.164 C 
ATOM      9  C   UNL     1      -2.505  -1.011   1.320  0.00  0.00    +0.044 C 
ATOM     10  C   UNL     1      -2.555  -2.284   0.478  0.00  0.00    +0.145 C 
ENDROOT
BRANCH   7  15
ATOM      5  N   UNL     1      -0.873   3.462   0.692  0.00  0.00    -0.263 NA
ATOM     15  C   UNL     1      -1.331   1.103   0.432  0.00  0.00    -0.024 A 
ATOM     17  C   UNL     1      -2.050   1.363  -0.729  0.00  0.00    +0.007 A 
ATOM     18  C   UNL     1      -0.767   2.178   1.100  0.00  0.00    +0.114 A 
ATOM     19  C   UNL     1      -2.182   2.671  -1.181  0.00  0.00    +0.020 A 
ATOM     20  C   UNL     1      -1.580   3.676  -0.441  0.00  0.00    +0.111 A 
ENDBRANCH   7  15
BRANCH   6   4
ATOM      3  O   UNL     1       1.447   0.392  -1.432  0.00  0.00    -0.276 OA
ATOM      4  N   UNL     1       0.962  -1.256   0.120  0.00  0.00    -0.309 N 
ATOM     16  C   UNL     1       1.825  -0.427  -0.588  0.00  0.00    +0.216 C 
ATOM     21  H   UNL     1       1.355  -1.873   0.826  0.00  0.00    +0.149 HD
BRANCH  16  11
ATOM     11  C   UNL     1       3.299  -0.631  -0.229  0.00  0.00    +0.075 C 
ATOM     12  C   UNL     1       4.331   0.379  -0.796  0.00  0.00    +0.013 C 
ATOM     13  C   UNL     1       3.763  -0.174   1.179  0.00  0.00    +0.013 C 
ATOM     14  C   UNL     1       5.098   0.244   0.534  0.00  0.00    +0.001 C 
ENDBRANCH  16  11
ENDBRANCH   6   4
BRANCH   8   1
ATOM      1  O   UNL     1      -0.936  -3.515  -0.844  0.00  0.00    -0.387 OA
ATOM     22  H   UNL     1      -1.432  -4.321  -0.624  0.00  0.00    +0.210 HD
ENDBRANCH   8   1
BRANCH  10   2
ATOM      2  O   UNL     1      -3.221  -1.995  -0.748  0.00  0.00    -0.389 OA
ATOM     23  H   UNL     1      -4.138  -1.754  -0.532  0.00  0.00    +0.210 HD
ENDBRANCH  10   2
TORSDOF 5
