REMARK  Name = 26743656
REMARK  5 active torsions:
REMARK  status: ('A' for Active; 'I' for Inactive)
REMARK    1  A    between atoms: O_1  and  C_13
REMARK    2  A    between atoms: N_4  and  C_9
REMARK    3  A    between atoms: C_10  and  C_18
REMARK    4  A    between atoms: C_19  and  C_20
REMARK    5  A    between atoms: C_21  and  C_22
REMARK                            x       y       z     vdW  Elec       q    Type
REMARK                         _______ _______ _______ _____ _____    ______ ____
ROOT
ATOM      4  N   UNL     1      -1.585  -1.616  -0.315  0.00  0.00    -0.286 NA
ATOM     10  C   UNL     1      -0.665  -2.250   0.651  0.00  0.00    +0.149 C 
ATOM     11  C   UNL     1      -2.434  -2.685  -0.840  0.00  0.00    +0.116 C 
ATOM     12  C   UNL     1      -0.521  -3.703   0.162  0.00  0.00    +0.061 C 
ATOM     13  C   UNL     1      -1.431  -3.803  -1.055  0.00  0.00    +0.130 C 
ENDROOT
BRANCH   4   9
ATOM      3  O   UNL     1      -3.951   4.024  -0.942  0.00  0.00    -0.276 OA
ATOM      5  N   UNL     1      -3.120   2.268   0.332  0.00  0.00    -0.302 N 
ATOM      9  C   UNL     1      -2.368  -0.527   0.264  0.00  0.00    +0.060 C 
ATOM     14  C   UNL     1      -3.287   0.085  -0.801  0.00  0.00    +0.038 C 
ATOM     15  C   UNL     1      -1.433   0.542   0.843  0.00  0.00    +0.038 C 
ATOM     16  C   UNL     1      -4.045   1.287  -0.241  0.00  0.00    +0.109 C 
ATOM     17  C   UNL     1      -2.227   1.738   1.370  0.00  0.00    +0.109 C 
ATOM     19  C   UNL     1      -3.166   3.595  -0.092  0.00  0.00    +0.212 C 
ATOM     20  C   UNL     1      -2.180   4.542   0.544  0.00  0.00    +0.109 C 
ENDBRANCH   4   9
BRANCH  10  18
ATOM      2  O   UNL     1       1.323  -1.635   1.931  0.00  0.00    -0.336 OA
ATOM      6  N   UNL     1       1.284  -0.808  -0.150  0.00  0.00    -0.189 NA
ATOM      7  N   UNL     1       2.505  -0.898   1.783  0.00  0.00    -0.054 NA
ATOM     18  C   UNL     1       0.664  -1.530   0.748  0.00  0.00    +0.245 A 
ATOM     21  C   UNL     1       2.409  -0.442   0.530  0.00  0.00    +0.220 A 
BRANCH  21  22
ATOM      8  N   UNL     1       4.482   0.670   0.713  0.00  0.00    -0.252 NA
ATOM     22  C   UNL     1       3.419   0.380  -0.071  0.00  0.00    +0.111 A 
ATOM     23  C   UNL     1       3.272   0.827  -1.375  0.00  0.00    +0.031 A 
ATOM     24  C   UNL     1       4.281   1.621  -1.908  0.00  0.00    +0.004 A 
ATOM     25  C   UNL     1       5.442   1.445   0.160  0.00  0.00    +0.111 A 
ATOM     26  C   UNL     1       5.390   1.940  -1.133  0.00  0.00    +0.020 A 
ENDBRANCH  21  22
ENDBRANCH  10  18
BRANCH  13   1
ATOM      1  O   UNL     1      -2.060  -5.068  -1.110  0.00  0.00    -0.390 OA
ATOM     27  H   UNL     1      -1.360  -5.740  -1.171  0.00  0.00    +0.210 HD
ENDBRANCH  13   1
TORSDOF 4
