REMARK  Name = 56774711
REMARK  9 active torsions:
REMARK  status: ('A' for Active; 'I' for Inactive)
REMARK    1  A    between atoms: O_2  and  C_8
REMARK    2  A    between atoms: N_5  and  C_9
REMARK    3  A    between atoms: N_6  and  C_21
REMARK    4  A    between atoms: C_7  and  C_8
REMARK    5  A    between atoms: C_8  and  C_14
REMARK    6  A    between atoms: C_9  and  C_11
REMARK    7  A    between atoms: C_11  and  C_15
REMARK    8  A    between atoms: C_11  and  C_16
REMARK    9  A    between atoms: C_22  and  C_23
REMARK                            x       y       z     vdW  Elec       q    Type
REMARK                         _______ _______ _______ _____ _____    ______ ____
ROOT
ATOM     14  C   UNL     1      -0.726  -0.370   0.832  0.00  0.00    -0.017 A 
ATOM     17  C   UNL     1       0.019  -1.509   1.139  0.00  0.00    +0.008 A 
ATOM     18  C   UNL     1      -0.089   0.771   0.346  0.00  0.00    +0.008 A 
ATOM     19  C   UNL     1       1.403  -1.506   0.959  0.00  0.00    +0.023 A 
ATOM     20  C   UNL     1       1.294   0.774   0.166  0.00  0.00    +0.023 A 
ATOM     21  C   UNL     1       2.040  -0.364   0.473  0.00  0.00    +0.034 A 
ENDROOT
BRANCH  21   6
ATOM      4  O   UNL     1       3.859   1.800  -0.527  0.00  0.00    -0.270 OA
ATOM      6  N   UNL     1       3.424  -0.361   0.293  0.00  0.00    -0.282 N 
ATOM     22  C   UNL     1       4.230   0.683  -0.180  0.00  0.00    +0.248 C 
ATOM     30  H   UNL     1       3.877  -1.221   0.589  0.00  0.00    +0.155 HD
BRANCH  22  23
ATOM     23  C   UNL     1       5.686   0.390  -0.233  0.00  0.00    +0.037 A 
ATOM     24  C   UNL     1       6.611   1.429  -0.129  0.00  0.00    +0.013 A 
ATOM     25  C   UNL     1       6.127  -0.924  -0.386  0.00  0.00    +0.013 A 
ATOM     26  C   UNL     1       7.978   1.153  -0.177  0.00  0.00    +0.001 A 
ATOM     27  C   UNL     1       7.494  -1.200  -0.434  0.00  0.00    +0.001 A 
ATOM     28  C   UNL     1       8.419  -0.161  -0.330  0.00  0.00    +0.000 A 
ENDBRANCH  22  23
ENDBRANCH  21   6
BRANCH  14   8
ATOM      8  C   UNL     1      -2.221  -0.374   1.026  0.00  0.00    +0.167 C 
BRANCH   8   7
ATOM      1  O   UNL     1      -3.110  -2.381  -0.921  0.00  0.00    -0.369 OA
ATOM      3  O   UNL     1      -6.378  -1.290   0.161  0.00  0.00    -0.273 OA
ATOM      5  N   UNL     1      -4.416  -0.056  -0.054  0.00  0.00    -0.291 N 
ATOM      7  C   UNL     1      -2.965  -0.083  -0.280  0.00  0.00    +0.135 C 
ATOM     10  C   UNL     1      -2.623  -1.114  -1.349  0.00  0.00    +0.185 C 
ATOM     12  C   UNL     1      -5.196  -1.204  -0.178  0.00  0.00    +0.242 C 
ATOM     13  C   UNL     1      -4.519  -2.386  -0.862  0.00  0.00    +0.255 C 
BRANCH   5   9
ATOM      9  C   UNL     1      -4.991   1.170   0.483  0.00  0.00    +0.111 C 
BRANCH   9  11
ATOM     11  C   UNL     1      -6.191   1.658  -0.336  0.00  0.00    +0.000 C 
ATOM     15  C   UNL     1      -6.819   2.913   0.276  0.00  0.00    +0.009 C 
ATOM     16  C   UNL     1      -5.764   1.938  -1.777  0.00  0.00    +0.009 C 
ENDBRANCH   9  11
ENDBRANCH   5   9
ENDBRANCH   8   7
BRANCH   8   2
ATOM      2  O   UNL     1      -2.576   0.604   1.998  0.00  0.00    -0.385 OA
ATOM     29  H   UNL     1      -2.289   1.478   1.685  0.00  0.00    +0.210 HD
ENDBRANCH   8   2
ENDBRANCH  14   8
TORSDOF 7
