REMARK  Name = 11912771
REMARK  8 active torsions:
REMARK  status: ('A' for Active; 'I' for Inactive)
REMARK    1  A    between atoms: O_3  and  C_16
REMARK    2  A    between atoms: O_3  and  C_20
REMARK    3  A    between atoms: O_7  and  C_35
REMARK    4  A    between atoms: O_7  and  C_38
REMARK    5  A    between atoms: N_9  and  C_15
REMARK    6  A    between atoms: N_12  and  C_24
REMARK    7  A    between atoms: C_21  and  C_25
REMARK    8  A    between atoms: C_26  and  C_35
REMARK                            x       y       z     vdW  Elec       q    Type
REMARK                         _______ _______ _______ _____ _____    ______ ____
ROOT
ATOM      1  O   UNL     1       1.067  -1.279   1.296  0.00  0.00    -0.368 OA
ATOM      2  O   UNL     1      -0.772   1.159   0.999  0.00  0.00    -0.368 OA
ATOM     13  C   UNL     1      -0.779  -0.130   0.349  0.00  0.00    +0.173 C 
ATOM     14  C   UNL     1       0.670  -0.523   0.141  0.00  0.00    +0.192 C 
ATOM     15  C   UNL     1      -1.311  -1.182   1.294  0.00  0.00    +0.130 C 
ATOM     16  C   UNL     1       1.367   0.815   0.081  0.00  0.00    +0.235 C 
ATOM     17  C   UNL     1      -0.083  -1.527   2.119  0.00  0.00    +0.185 C 
ATOM     18  C   UNL     1       0.581   1.629   1.084  0.00  0.00    +0.207 C 
ENDROOT
BRANCH  15   9
ATOM      9  N   UNL     1      -1.759  -2.341   0.552  0.00  0.00    -0.306 N 
ATOM     10  N   UNL     1      -3.855  -1.413   0.182  0.00  0.00    -0.214 NA
ATOM     11  N   UNL     1      -3.288  -3.597  -0.664  0.00  0.00    -0.223 NA
ATOM     19  C   UNL     1      -3.022  -2.455  -0.001  0.00  0.00    +0.216 A 
ATOM     21  C   UNL     1      -5.077  -1.557  -0.369  0.00  0.00    +0.076 A 
ATOM     22  C   UNL     1      -4.528  -3.674  -1.190  0.00  0.00    +0.116 A 
ATOM     23  C   UNL     1      -5.474  -2.676  -1.073  0.00  0.00    +0.048 A 
ATOM     39  H   UNL     1      -1.110  -3.100   0.374  0.00  0.00    +0.149 HD
BRANCH  21  25
ATOM      5  O   UNL     1      -6.337   3.147  -0.848  0.00  0.00    -0.453 OA
ATOM      6  O   UNL     1      -8.426   2.814   0.308  0.00  0.00    -0.453 OA
ATOM     25  C   UNL     1      -5.973  -0.441  -0.176  0.00  0.00    +0.004 A 
ATOM     27  C   UNL     1      -5.621   0.821  -0.660  0.00  0.00    +0.059 A 
ATOM     29  C   UNL     1      -7.191  -0.636   0.498  0.00  0.00    +0.014 A 
ATOM     30  C   UNL     1      -6.509   1.857  -0.452  0.00  0.00    +0.167 A 
ATOM     31  C   UNL     1      -7.701   1.667   0.208  0.00  0.00    +0.166 A 
ATOM     32  C   UNL     1      -8.072   0.430   0.696  0.00  0.00    +0.050 A 
ATOM     37  C   UNL     1      -7.556   3.748  -0.364  0.00  0.00    +0.466 C 
ENDBRANCH  21  25
ENDBRANCH  15   9
BRANCH  16   3
ATOM      3  O   UNL     1       2.737   0.751   0.407  0.00  0.00    -0.442 OA
BRANCH   3  20
ATOM      4  O   UNL     1       3.257   0.516  -1.808  0.00  0.00    -0.226 OA
ATOM     12  N   UNL     1       4.913   0.553  -0.153  0.00  0.00    -0.250 N 
ATOM     20  C   UNL     1       3.621   0.596  -0.641  0.00  0.00    +0.405 C 
ATOM     40  H   UNL     1       5.003   0.635   0.855  0.00  0.00    +0.158 HD
BRANCH  12  24
ATOM     24  C   UNL     1       6.114   0.406  -0.884  0.00  0.00    +0.050 A 
ATOM     26  C   UNL     1       7.350   0.382  -0.237  0.00  0.00    +0.080 A 
ATOM     28  C   UNL     1       6.051   0.284  -2.272  0.00  0.00    +0.024 A 
ATOM     33  C   UNL     1       8.523   0.237  -0.978  0.00  0.00    +0.017 A 
ATOM     34  C   UNL     1       7.224   0.140  -3.013  0.00  0.00    +0.002 A 
ATOM     36  C   UNL     1       8.460   0.116  -2.367  0.00  0.00    +0.001 A 
BRANCH  26  35
ATOM      8  O   UNL     1       6.654   1.137   1.915  0.00  0.00    -0.245 OA
ATOM     35  C   UNL     1       7.452   0.506   1.212  0.00  0.00    +0.341 C 
BRANCH  35   7
ATOM      7  O   UNL     1       8.541  -0.163   1.696  0.00  0.00    -0.464 OA
ATOM     38  C   UNL     1       8.749  -0.116   3.112  0.00  0.00    +0.280 C 
ENDBRANCH  35   7
ENDBRANCH  26  35
ENDBRANCH  12  24
ENDBRANCH   3  20
ENDBRANCH  16   3
TORSDOF 7
