REMARK  Name = 44716832
REMARK  11 active torsions:
REMARK  status: ('A' for Active; 'I' for Inactive)
REMARK    1  A    between atoms: S_1  and  N_9
REMARK    2  A    between atoms: S_1  and  C_24
REMARK    3  A    between atoms: N_9  and  C_15
REMARK    4  A    between atoms: N_10  and  C_22
REMARK    5  A    between atoms: N_13  and  C_34
REMARK    6  A    between atoms: C_17  and  C_20
REMARK    7  A    between atoms: C_21  and  C_23
REMARK    8  A    between atoms: C_22  and  C_25
REMARK    9  A    between atoms: C_22  and  C_26
REMARK   10  A    between atoms: C_25  and  C_29
REMARK   11  A    between atoms: C_31  and  C_35
REMARK                            x       y       z     vdW  Elec       q    Type
REMARK                         _______ _______ _______ _____ _____    ______ ____
ROOT
ATOM      4  O   UNL     1      -3.575   3.415   0.941  0.00  0.00    -0.268 OA
ATOM      8  N   UNL     1      -1.543   2.381   0.396  0.00  0.00    -0.285 N 
ATOM     15  C   UNL     1       1.337   2.586   0.022  0.00  0.00    +0.080 C 
ATOM     16  C   UNL     1       0.505   1.628  -0.834  0.00  0.00    +0.052 C 
ATOM     17  C   UNL     1      -0.818   1.232  -0.177  0.00  0.00    +0.164 C 
ATOM     18  C   UNL     1       0.498   3.784   0.457  0.00  0.00    +0.039 C 
ATOM     19  C   UNL     1      -0.754   3.326   1.193  0.00  0.00    +0.110 C 
ATOM     21  C   UNL     1      -2.936   2.541   0.358  0.00  0.00    +0.266 C 
ENDROOT
BRANCH  21  23
ATOM      2  S   UNL     1      -5.383  -0.170  -1.181  0.00  0.00    -0.080 S 
ATOM     11  N   UNL     1      -3.500   1.487  -1.804  0.00  0.00    -0.240 NA
ATOM     23  C   UNL     1      -3.720   1.597  -0.446  0.00  0.00    +0.133 A 
ATOM     28  C   UNL     1      -4.702   0.780   0.074  0.00  0.00    +0.080 A 
ATOM     31  C   UNL     1      -4.319   0.585  -2.296  0.00  0.00    +0.076 A 
ATOM     35  C   UNL     1      -4.375   0.193  -3.721  0.00  0.00    +0.073 C 
ENDBRANCH  21  23
BRANCH  17  20
ATOM      3  O   UNL     1       0.031   0.511   1.936  0.00  0.00    -0.274 OA
ATOM     10  N   UNL     1      -1.239  -0.971   0.667  0.00  0.00    -0.302 N 
ATOM     20  C   UNL     1      -0.624   0.241   0.933  0.00  0.00    +0.234 C 
ATOM     40  H   UNL     1      -1.836  -1.056  -0.150  0.00  0.00    +0.150 HD
BRANCH  10  22
ATOM     22  C   UNL     1      -1.183  -2.100   1.567  0.00  0.00    +0.163 C 
BRANCH  22  26
ATOM      7  O   UNL     1      -3.416  -1.454   2.275  0.00  0.00    -0.274 OA
ATOM     14  N   UNL     1      -2.018  -2.439   3.809  0.00  0.00    -0.328 N 
ATOM     26  C   UNL     1      -2.323  -1.938   2.561  0.00  0.00    +0.231 C 
ATOM     41  H   UNL     1      -1.119  -2.857   4.025  0.00  0.00    +0.145 HD
ATOM     42  H   UNL     1      -2.697  -2.407   4.563  0.00  0.00    +0.145 HD
ENDBRANCH  22  26
BRANCH  22  25
ATOM     25  C   UNL     1      -1.305  -3.437   0.827  0.00  0.00    +0.067 C 
BRANCH  25  29
ATOM     29  C   UNL     1      -0.214  -3.641  -0.195  0.00  0.00    -0.045 A 
ATOM     32  C   UNL     1      -0.399  -3.207  -1.508  0.00  0.00    +0.004 A 
ATOM     33  C   UNL     1       0.979  -4.263   0.172  0.00  0.00    +0.004 A 
ATOM     36  C   UNL     1       0.609  -3.396  -2.454  0.00  0.00    +0.000 A 
ATOM     37  C   UNL     1       1.987  -4.452  -0.773  0.00  0.00    +0.000 A 
ATOM     38  C   UNL     1       1.802  -4.018  -2.086  0.00  0.00    +0.000 A 
ENDBRANCH  25  29
ENDBRANCH  22  25
ENDBRANCH  10  22
ENDBRANCH  17  20
BRANCH  15   9
ATOM      9  N   UNL     1       2.502   3.063  -0.762  0.00  0.00    -0.185 NA
ATOM     39  H   UNL     1       2.346   3.178  -1.771  0.00  0.00    +0.148 HD
BRANCH   9   1
ATOM      1  S   UNL     1       4.077   2.750  -0.209  0.00  0.00    +0.077 S 
ATOM      5  O   UNL     1       4.216   3.232   1.152  0.00  0.00    -0.152 OA
ATOM      6  O   UNL     1       5.020   3.164  -1.230  0.00  0.00    -0.152 OA
BRANCH   1  24
ATOM     12  N   UNL     1       4.098   0.225  -1.311  0.00  0.00    -0.216 NA
ATOM     13  N   UNL     1       4.146  -1.091   0.478  0.00  0.00    -0.338 N 
ATOM     24  C   UNL     1       4.104   0.983  -0.167  0.00  0.00    +0.211 A 
ATOM     27  C   UNL     1       4.133   0.189   0.955  0.00  0.00    +0.135 A 
ATOM     30  C   UNL     1       4.124  -1.020  -0.887  0.00  0.00    +0.201 A 
ATOM     34  C   UNL     1       4.176  -2.297   1.268  0.00  0.00    +0.150 C 
ENDBRANCH   1  24
ENDBRANCH   9   1
ENDBRANCH  15   9
TORSDOF 9
