REMARK  Name = 11941843
REMARK  4 active torsions:
REMARK  status: ('A' for Active; 'I' for Inactive)
REMARK    1  A    between atoms: N_5  and  C_12
REMARK    2  A    between atoms: N_6  and  C_13
REMARK    3  A    between atoms: N_7  and  C_16
REMARK    4  A    between atoms: C_24  and  C_27
REMARK                            x       y       z     vdW  Elec       q    Type
REMARK                         _______ _______ _______ _____ _____    ______ ____
ROOT
ATOM      2  O   UNL     1       0.099   0.974   1.754  0.00  0.00    -0.370 OA
ATOM      3  O   UNL     1      -0.022   3.728   0.293  0.00  0.00    -0.370 OA
ATOM     10  C   UNL     1      -0.512   2.418  -0.035  0.00  0.00    +0.171 C 
ATOM     11  C   UNL     1       0.517   1.416   0.452  0.00  0.00    +0.171 C 
ATOM     12  C   UNL     1      -1.747   2.100   0.776  0.00  0.00    +0.131 C 
ATOM     13  C   UNL     1       1.793   2.218   0.556  0.00  0.00    +0.130 C 
ATOM     14  C   UNL     1      -1.158   1.587   2.078  0.00  0.00    +0.185 C 
ATOM     15  C   UNL     1       1.284   3.612   0.876  0.00  0.00    +0.185 C 
ENDROOT
BRANCH  13   6
ATOM      6  N   UNL     1       2.484   2.217  -0.715  0.00  0.00    -0.306 N 
ATOM      8  N   UNL     1       3.554   0.180  -0.256  0.00  0.00    -0.214 NA
ATOM      9  N   UNL     1       3.932   1.336  -2.337  0.00  0.00    -0.223 NA
ATOM     23  C   UNL     1       3.349   1.214  -1.114  0.00  0.00    +0.216 A 
ATOM     24  C   UNL     1       4.403  -0.780  -0.678  0.00  0.00    +0.083 A 
ATOM     25  C   UNL     1       4.769   0.340  -2.695  0.00  0.00    +0.116 A 
ATOM     26  C   UNL     1       5.045  -0.753  -1.899  0.00  0.00    +0.049 A 
ATOM     32  H   UNL     1       2.298   2.956  -1.383  0.00  0.00    +0.149 HD
BRANCH  24  27
ATOM      1  S   UNL     1       3.324  -2.290   1.313  0.00  0.00    -0.095 S 
ATOM     27  C   UNL     1       4.600  -1.861   0.251  0.00  0.00    +0.038 A 
ATOM     28  C   UNL     1       5.713  -2.657   0.441  0.00  0.00    +0.017 A 
ATOM     29  C   UNL     1       5.513  -3.625   1.466  0.00  0.00    +0.008 A 
ATOM     30  C   UNL     1       4.257  -3.537   2.024  0.00  0.00    +0.046 A 
ENDBRANCH  24  27
ENDBRANCH  13   6
BRANCH  12   5
ATOM      4  O   UNL     1      -4.576   1.689   1.089  0.00  0.00    -0.253 OA
ATOM      5  N   UNL     1      -2.550   1.089   0.131  0.00  0.00    -0.292 N 
ATOM      7  N   UNL     1      -4.453  -0.089  -0.399  0.00  0.00    -0.297 N 
ATOM     19  C   UNL     1      -3.921   0.963   0.342  0.00  0.00    +0.300 C 
ATOM     31  H   UNL     1      -2.087   0.398  -0.453  0.00  0.00    +0.151 HD
ATOM     33  H   UNL     1      -3.810  -0.671  -0.927  0.00  0.00    +0.151 HD
BRANCH   7  16
ATOM     16  C   UNL     1      -5.854  -0.448  -0.371  0.00  0.00    +0.074 C 
ATOM     17  C   UNL     1      -6.306  -1.005  -1.725  0.00  0.00    +0.022 C 
ATOM     18  C   UNL     1      -6.147  -1.436   0.762  0.00  0.00    +0.022 C 
ATOM     20  C   UNL     1      -5.745  -2.400  -2.001  0.00  0.00    +0.002 C 
ATOM     21  C   UNL     1      -5.586  -2.830   0.483  0.00  0.00    +0.002 C 
ATOM     22  C   UNL     1      -6.059  -3.368  -0.864  0.00  0.00    +0.000 C 
ENDBRANCH   7  16
ENDBRANCH  12   5
TORSDOF 4
