REMARK  Name = 11866400
REMARK  7 active torsions:
REMARK  status: ('A' for Active; 'I' for Inactive)
REMARK    1  A    between atoms: S_1  and  C_23
REMARK    2  A    between atoms: S_1  and  C_29
REMARK    3  A    between atoms: O_5  and  C_30
REMARK    4  A    between atoms: O_5  and  C_31
REMARK    5  A    between atoms: N_7  and  C_10
REMARK    6  A    between atoms: C_18  and  C_23
REMARK    7  A    between atoms: C_21  and  C_24
REMARK                            x       y       z     vdW  Elec       q    Type
REMARK                         _______ _______ _______ _____ _____    ______ ____
ROOT
ATOM      2  O   UNL     1       2.632   2.895   0.313  0.00  0.00    -0.273 OA
ATOM      3  O   UNL     1      -0.312  -0.574  -2.237  0.00  0.00    -0.270 OA
ATOM      6  N   UNL     1       1.373   0.091  -0.785  0.00  0.00    -0.286 N 
ATOM      8  N   UNL     1       0.357   2.681   0.222  0.00  0.00    -0.283 N 
ATOM      9  C   UNL     1       1.731   0.664   0.506  0.00  0.00    +0.164 C 
ATOM     10  C   UNL     1       4.179   0.061   0.021  0.00  0.00    +0.077 C 
ATOM     11  C   UNL     1       3.074   0.185   1.069  0.00  0.00    +0.054 C 
ATOM     12  C   UNL     1       3.679  -0.788  -1.142  0.00  0.00    +0.041 C 
ATOM     13  C   UNL     1       2.437  -0.166  -1.758  0.00  0.00    +0.111 C 
ATOM     14  C   UNL     1       1.637   2.168   0.317  0.00  0.00    +0.238 C 
ATOM     15  C   UNL     1       0.045  -0.006  -1.204  0.00  0.00    +0.249 C 
ATOM     16  C   UNL     1      -1.007   0.674  -0.403  0.00  0.00    +0.059 A 
ATOM     17  C   UNL     1      -0.858   1.963   0.142  0.00  0.00    +0.046 A 
ATOM     19  C   UNL     1      -2.268   0.054  -0.383  0.00  0.00    +0.023 A 
ATOM     20  C   UNL     1      -1.994   2.627   0.633  0.00  0.00    +0.024 A 
ATOM     21  C   UNL     1      -3.374   0.709   0.155  0.00  0.00    -0.017 A 
ATOM     22  C   UNL     1      -3.240   2.001   0.650  0.00  0.00    +0.010 A 
ATOM     33  H   UNL     1       0.277   3.690   0.322  0.00  0.00    +0.155 HD
ENDROOT
BRANCH  21  24
ATOM     24  C   UNL     1      -4.665   0.056   0.173  0.00  0.00    -0.018 A 
ATOM     25  C   UNL     1      -5.832   0.815   0.072  0.00  0.00    +0.012 A 
ATOM     26  C   UNL     1      -4.743  -1.331   0.293  0.00  0.00    +0.012 A 
ATOM     27  C   UNL     1      -7.076   0.185   0.091  0.00  0.00    +0.046 A 
ATOM     28  C   UNL     1      -5.988  -1.961   0.312  0.00  0.00    +0.046 A 
ATOM     30  C   UNL     1      -7.154  -1.203   0.211  0.00  0.00    +0.120 A 
BRANCH  30   5
ATOM      5  O   UNL     1      -8.368  -1.817   0.231  0.00  0.00    -0.495 OA
ATOM     31  C   UNL     1      -8.375  -3.238   0.355  0.00  0.00    +0.277 C 
ENDBRANCH  30   5
ENDBRANCH  21  24
BRANCH  10   7
ATOM      4  O   UNL     1       6.921   0.567  -0.757  0.00  0.00    -0.275 OA
ATOM      7  N   UNL     1       5.371  -0.511   0.600  0.00  0.00    -0.312 N 
ATOM     18  C   UNL     1       6.651  -0.208   0.159  0.00  0.00    +0.223 C 
ATOM     32  H   UNL     1       5.257  -1.220   1.319  0.00  0.00    +0.149 HD
BRANCH  18  23
ATOM     23  C   UNL     1       7.728  -0.950   0.915  0.00  0.00    +0.164 C 
BRANCH  23   1
ATOM      1  S   UNL     1       8.079  -2.505   0.060  0.00  0.00    -0.155 S 
ATOM     29  C   UNL     1       9.360  -3.139   1.169  0.00  0.00    +0.085 C 
ENDBRANCH  23   1
ENDBRANCH  18  23
ENDBRANCH  10   7
TORSDOF 5
