REMARK  Name = 40778210
REMARK  10 active torsions:
REMARK  status: ('A' for Active; 'I' for Inactive)
REMARK    1  A    between atoms: O_2  and  C_11
REMARK    2  A    between atoms: O_3  and  C_12
REMARK    3  A    between atoms: O_5  and  C_23
REMARK    4  A    between atoms: O_5  and  C_31
REMARK    5  A    between atoms: N_8  and  C_21
REMARK    6  A    between atoms: N_9  and  C_15
REMARK    7  A    between atoms: C_10  and  C_14
REMARK    8  A    between atoms: C_13  and  C_15
REMARK    9  A    between atoms: C_14  and  C_16
REMARK   10  A    between atoms: C_22  and  C_25
REMARK                            x       y       z     vdW  Elec       q    Type
REMARK                         _______ _______ _______ _____ _____    ______ ____
ROOT
ATOM      1  O   UNL     1      -4.003   0.899   0.834  0.00  0.00    -0.366 OA
ATOM     10  C   UNL     1      -3.508   1.907  -0.077  0.00  0.00    +0.159 C 
ATOM     11  C   UNL     1      -4.453   1.907  -1.274  0.00  0.00    +0.175 C 
ATOM     12  C   UNL     1      -4.946   0.474  -1.286  0.00  0.00    +0.176 C 
ATOM     13  C   UNL     1      -5.080   0.186   0.200  0.00  0.00    +0.167 C 
ENDROOT
BRANCH  11   2
ATOM      2  O   UNL     1      -5.529   2.799  -0.988  0.00  0.00    -0.387 OA
ATOM     35  H   UNL     1      -5.163   3.699  -0.966  0.00  0.00    +0.210 HD
ENDBRANCH  11   2
BRANCH  12   3
ATOM      3  O   UNL     1      -6.169   0.310  -1.970  0.00  0.00    -0.387 OA
ATOM     36  H   UNL     1      -6.040   0.630  -2.879  0.00  0.00    +0.210 HD
ENDBRANCH  12   3
BRANCH  10  14
ATOM     14  C   UNL     1      -2.078   1.538  -0.447  0.00  0.00    +0.130 C 
BRANCH  14  16
ATOM      4  O   UNL     1      -1.594   2.445   1.693  0.00  0.00    -0.276 OA
ATOM      7  N   UNL     1       0.203   1.593   0.491  0.00  0.00    -0.298 N 
ATOM      8  N   UNL     1       3.045   1.197   0.111  0.00  0.00    -0.324 N 
ATOM     16  C   UNL     1      -1.144   1.905   0.680  0.00  0.00    +0.218 C 
ATOM     17  C   UNL     1       1.172   1.923   1.534  0.00  0.00    +0.126 C 
ATOM     18  C   UNL     1       0.735   0.951  -0.713  0.00  0.00    +0.126 C 
ATOM     19  C   UNL     1       2.536   2.285   0.951  0.00  0.00    +0.124 C 
ATOM     20  C   UNL     1       2.079   0.262  -0.472  0.00  0.00    +0.124 C 
BRANCH   8  21
ATOM     21  C   UNL     1       4.413   1.038  -0.095  0.00  0.00    +0.072 A 
ATOM     23  C   UNL     1       4.960  -0.231  -0.283  0.00  0.00    +0.141 A 
ATOM     24  C   UNL     1       5.238   2.163  -0.111  0.00  0.00    +0.027 A 
ATOM     26  C   UNL     1       6.333  -0.376  -0.488  0.00  0.00    +0.047 A 
ATOM     27  C   UNL     1       6.611   2.018  -0.316  0.00  0.00    +0.002 A 
ATOM     28  C   UNL     1       7.158   0.749  -0.504  0.00  0.00    +0.004 A 
BRANCH  23   5
ATOM      5  O   UNL     1       4.172  -1.343  -0.270  0.00  0.00    -0.493 OA
ATOM     31  C   UNL     1       4.818  -2.598  -0.471  0.00  0.00    +0.277 C 
ENDBRANCH  23   5
ENDBRANCH   8  21
ENDBRANCH  14  16
ENDBRANCH  10  14
BRANCH  13  15
ATOM     15  C   UNL     1      -4.984  -1.291   0.538  0.00  0.00    +0.138 C 
BRANCH  15   9
ATOM      6  O   UNL     1      -2.608  -1.402   2.145  0.00  0.00    -0.270 OA
ATOM      9  N   UNL     1      -3.692  -1.835   0.143  0.00  0.00    -0.309 N 
ATOM     22  C   UNL     1      -2.609  -1.840   0.998  0.00  0.00    +0.244 C 
ATOM     37  H   UNL     1      -3.640  -2.267  -0.773  0.00  0.00    +0.149 HD
BRANCH  22  25
ATOM     25  C   UNL     1      -1.355  -2.406   0.436  0.00  0.00    +0.037 A 
ATOM     29  C   UNL     1      -0.407  -2.979   1.283  0.00  0.00    +0.013 A 
ATOM     30  C   UNL     1      -1.127  -2.365  -0.940  0.00  0.00    +0.013 A 
ATOM     32  C   UNL     1       0.769  -3.512   0.755  0.00  0.00    +0.001 A 
ATOM     33  C   UNL     1       0.048  -2.898  -1.468  0.00  0.00    +0.001 A 
ATOM     34  C   UNL     1       0.997  -3.472  -0.621  0.00  0.00    +0.000 A 
ENDBRANCH  22  25
ENDBRANCH  15   9
ENDBRANCH  13  15
TORSDOF 9
