REMARK  Name = 45783668
REMARK  8 active torsions:
REMARK  status: ('A' for Active; 'I' for Inactive)
REMARK    1  A    between atoms: N_2  and  C_11
REMARK    2  A    between atoms: N_6  and  C_23
REMARK    3  A    between atoms: C_8  and  C_14
REMARK    4  A    between atoms: C_11  and  C_13
REMARK    5  A    between atoms: C_13  and  C_15
REMARK    6  A    between atoms: C_13  and  C_16
REMARK    7  A    between atoms: C_13  and  C_17
REMARK    8  A    between atoms: C_18  and  C_19
REMARK                            x       y       z     vdW  Elec       q    Type
REMARK                         _______ _______ _______ _____ _____    ______ ____
ROOT
ATOM      1  O   UNL     1      -1.694   2.495  -1.107  0.00  0.00    -0.336 OA
ATOM      3  N   UNL     1      -1.080   0.746   0.151  0.00  0.00    -0.190 NA
ATOM      4  N   UNL     1      -0.302   2.398  -1.227  0.00  0.00    -0.056 NA
ATOM     14  C   UNL     1      -2.071   1.486  -0.278  0.00  0.00    +0.245 A 
ATOM     18  C   UNL     1      -0.015   1.343  -0.458  0.00  0.00    +0.204 A 
ENDROOT
BRANCH  18  19
ATOM      5  N   UNL     1       3.680   1.076  -0.772  0.00  0.00    -0.237 NA
ATOM     19  C   UNL     1       1.324   0.863  -0.275  0.00  0.00    +0.041 A 
ATOM     20  C   UNL     1       1.587  -0.237   0.535  0.00  0.00    +0.017 A 
ATOM     21  C   UNL     1       2.396   1.479  -0.900  0.00  0.00    +0.124 A 
ATOM     22  C   UNL     1       2.896  -0.680   0.692  0.00  0.00    +0.047 A 
ATOM     23  C   UNL     1       3.897   0.004   0.023  0.00  0.00    +0.139 A 
BRANCH  23   6
ATOM      6  N   UNL     1       5.204  -0.434   0.176  0.00  0.00    -0.290 N 
ATOM      7  N   UNL     1       6.919  -1.657   0.877  0.00  0.00    -0.244 NA
ATOM     24  C   UNL     1       6.314   0.113  -0.402  0.00  0.00    +0.114 A 
ATOM     25  C   UNL     1       5.616  -1.494   0.934  0.00  0.00    +0.205 A 
ATOM     26  C   UNL     1       7.360  -0.659   0.045  0.00  0.00    +0.130 A 
ENDBRANCH  23   6
ENDBRANCH  18  19
BRANCH  14   8
ATOM      2  N   UNL     1      -3.962  -0.009   0.340  0.00  0.00    -0.291 NA
ATOM      8  C   UNL     1      -3.552   1.372   0.016  0.00  0.00    +0.146 C 
ATOM      9  C   UNL     1      -3.981   2.205   1.238  0.00  0.00    +0.030 C 
ATOM     10  C   UNL     1      -5.110   0.102   1.240  0.00  0.00    +0.085 C 
ATOM     12  C   UNL     1      -4.676   1.219   2.167  0.00  0.00    +0.017 C 
BRANCH   2  11
ATOM     11  C   UNL     1      -4.264  -0.810  -0.839  0.00  0.00    +0.091 C 
BRANCH  11  13
ATOM     13  C   UNL     1      -4.141  -2.339  -0.612  0.00  0.00    -0.025 C 
ATOM     15  C   UNL     1      -5.180  -2.757   0.445  0.00  0.00    +0.012 C 
ATOM     16  C   UNL     1      -2.740  -2.715  -0.097  0.00  0.00    +0.012 C 
ATOM     17  C   UNL     1      -4.426  -3.110  -1.913  0.00  0.00    +0.012 C 
ENDBRANCH  11  13
ENDBRANCH   2  11
ENDBRANCH  14   8
TORSDOF 5
