REMARK  Name = 40777878
REMARK  11 active torsions:
REMARK  status: ('A' for Active; 'I' for Inactive)
REMARK    1  A    between atoms: O_3  and  C_10
REMARK    2  A    between atoms: O_4  and  C_11
REMARK    3  A    between atoms: O_7  and  C_29
REMARK    4  A    between atoms: O_7  and  C_31
REMARK    5  A    between atoms: N_8  and  C_15
REMARK    6  A    between atoms: N_9  and  C_18
REMARK    7  A    between atoms: C_12  and  C_14
REMARK    8  A    between atoms: C_13  and  C_15
REMARK    9  A    between atoms: C_14  and  C_16
REMARK   10  A    between atoms: C_17  and  C_19
REMARK   11  A    between atoms: C_18  and  C_20
REMARK                            x       y       z     vdW  Elec       q    Type
REMARK                         _______ _______ _______ _____ _____    ______ ____
ROOT
ATOM      2  O   UNL     1      -2.753  -0.285   0.467  0.00  0.00    -0.366 OA
ATOM     10  C   UNL     1      -4.876  -0.285  -0.559  0.00  0.00    +0.175 C 
ATOM     11  C   UNL     1      -4.820  -1.460   0.395  0.00  0.00    +0.176 C 
ATOM     12  C   UNL     1      -3.777   0.607  -0.008  0.00  0.00    +0.158 C 
ATOM     13  C   UNL     1      -3.321  -1.605   0.633  0.00  0.00    +0.167 C 
ENDROOT
BRANCH  10   3
ATOM      3  O   UNL     1      -6.129   0.365  -0.573  0.00  0.00    -0.387 OA
ATOM     32  H   UNL     1      -6.797  -0.295  -0.824  0.00  0.00    +0.210 HD
ENDBRANCH  10   3
BRANCH  11   4
ATOM      4  O   UNL     1      -5.436  -1.120   1.637  0.00  0.00    -0.387 OA
ATOM     33  H   UNL     1      -5.343  -1.887   2.227  0.00  0.00    +0.210 HD
ENDBRANCH  11   4
BRANCH  12  14
ATOM     14  C   UNL     1      -3.192   1.552  -1.042  0.00  0.00    +0.130 C 
BRANCH  14  16
ATOM      5  O   UNL     1      -2.881   3.765  -0.116  0.00  0.00    -0.276 OA
ATOM      9  N   UNL     1      -1.064   2.321  -0.236  0.00  0.00    -0.311 N 
ATOM     16  C   UNL     1      -2.392   2.679  -0.416  0.00  0.00    +0.216 C 
ATOM     35  H   UNL     1      -0.768   1.388  -0.512  0.00  0.00    +0.149 HD
BRANCH   9  18
ATOM     18  C   UNL     1      -0.079   3.207   0.339  0.00  0.00    +0.139 C 
BRANCH  18  20
ATOM     20  C   UNL     1       1.277   2.566   0.417  0.00  0.00    -0.030 A 
ATOM     23  C   UNL     1       1.540   1.606   1.394  0.00  0.00    +0.009 A 
ATOM     24  C   UNL     1       2.273   2.930  -0.489  0.00  0.00    +0.009 A 
ATOM     27  C   UNL     1       2.799   1.010   1.466  0.00  0.00    +0.046 A 
ATOM     28  C   UNL     1       3.532   2.334  -0.417  0.00  0.00    +0.046 A 
ATOM     29  C   UNL     1       3.795   1.375   0.560  0.00  0.00    +0.120 A 
BRANCH  29   7
ATOM      7  O   UNL     1       5.024   0.793   0.630  0.00  0.00    -0.495 OA
ATOM     31  C   UNL     1       5.996   1.212  -0.327  0.00  0.00    +0.277 C 
ENDBRANCH  29   7
ENDBRANCH  18  20
ENDBRANCH   9  18
ENDBRANCH  14  16
ENDBRANCH  12  14
BRANCH  13  15
ATOM     15  C   UNL     1      -2.645  -2.532  -0.367  0.00  0.00    +0.138 C 
BRANCH  15   8
ATOM      6  O   UNL     1      -0.540  -0.882  -1.411  0.00  0.00    -0.270 OA
ATOM      8  N   UNL     1      -1.222  -2.657  -0.086  0.00  0.00    -0.309 N 
ATOM     17  C   UNL     1      -0.288  -1.807  -0.643  0.00  0.00    +0.244 C 
ATOM     34  H   UNL     1      -0.942  -3.441   0.493  0.00  0.00    +0.149 HD
BRANCH  17  19
ATOM      1  F   UNL     1       4.469  -1.627  -1.636  0.00  0.00    -0.205 F 
ATOM     19  C   UNL     1       1.125  -2.083  -0.278  0.00  0.00    +0.039 A 
ATOM     21  C   UNL     1       2.154  -1.718  -1.146  0.00  0.00    +0.051 A 
ATOM     22  C   UNL     1       1.423  -2.709   0.933  0.00  0.00    +0.013 A 
ATOM     25  C   UNL     1       3.481  -1.978  -0.803  0.00  0.00    +0.124 A 
ATOM     26  C   UNL     1       2.750  -2.969   1.276  0.00  0.00    +0.004 A 
ATOM     30  C   UNL     1       3.779  -2.604   0.408  0.00  0.00    +0.038 A 
ENDBRANCH  17  19
ENDBRANCH  15   8
ENDBRANCH  13  15
TORSDOF 10
