REMARK  Name = 28990967
REMARK  10 active torsions:
REMARK  status: ('A' for Active; 'I' for Inactive)
REMARK    1  A    between atoms: N_3  and  C_19
REMARK    2  A    between atoms: N_4  and  C_14
REMARK    3  A    between atoms: N_4  and  C_18
REMARK    4  A    between atoms: N_6  and  C_30
REMARK    5  A    between atoms: N_6  and  C_32
REMARK    6  A    between atoms: N_6  and  C_33
REMARK    7  A    between atoms: C_8  and  C_15
REMARK    8  A    between atoms: C_9  and  C_14
REMARK    9  A    between atoms: C_17  and  C_20
REMARK   10  A    between atoms: C_18  and  C_21
REMARK                            x       y       z     vdW  Elec       q    Type
REMARK                         _______ _______ _______ _____ _____    ______ ____
ROOT
ATOM      2  N   UNL     1      -4.363   0.377   1.154  0.00  0.00    -0.298 NA
ATOM      7  C   UNL     1      -3.837  -1.020  -0.980  0.00  0.00    +0.002 C 
ATOM      8  C   UNL     1      -3.142  -1.643   0.262  0.00  0.00    +0.055 C 
ATOM      9  C   UNL     1      -3.895   1.272   0.063  0.00  0.00    +0.071 C 
ATOM     10  C   UNL     1      -3.383   0.446  -1.137  0.00  0.00    +0.024 C 
ATOM     11  C   UNL     1      -5.351  -0.997  -0.678  0.00  0.00    +0.019 C 
ATOM     12  C   UNL     1      -3.333  -0.651   1.446  0.00  0.00    +0.094 C 
ATOM     13  C   UNL     1      -5.586  -0.315   0.681  0.00  0.00    +0.085 C 
ENDROOT
BRANCH   8  15
ATOM      3  N   UNL     1      -1.356  -3.363  -0.274  0.00  0.00    -0.270 N 
ATOM      5  N   UNL     1      -0.029  -3.571  -0.334  0.00  0.00    -0.171 NA
ATOM     15  C   UNL     1      -1.699  -2.104   0.122  0.00  0.00    +0.044 A 
ATOM     16  C   UNL     1      -0.514  -1.443   0.338  0.00  0.00    +0.053 A 
ATOM     17  C   UNL     1       0.479  -2.394   0.041  0.00  0.00    +0.093 A 
ATOM     19  C   UNL     1      -2.255  -4.441  -0.617  0.00  0.00    +0.172 C 
BRANCH  17  20
ATOM      1  F   UNL     1       5.992  -1.649   0.310  0.00  0.00    -0.205 F 
ATOM     20  C   UNL     1       1.904  -2.202   0.110  0.00  0.00    +0.002 A 
ATOM     22  C   UNL     1       2.503  -1.855   1.322  0.00  0.00    +0.013 A 
ATOM     23  C   UNL     1       2.686  -2.362  -1.034  0.00  0.00    +0.013 A 
ATOM     26  C   UNL     1       3.884  -1.668   1.389  0.00  0.00    +0.039 A 
ATOM     27  C   UNL     1       4.067  -2.175  -0.966  0.00  0.00    +0.039 A 
ATOM     31  C   UNL     1       4.666  -1.828   0.245  0.00  0.00    +0.123 A 
ENDBRANCH  17  20
ENDBRANCH   8  15
BRANCH   9  14
ATOM     14  C   UNL     1      -2.852   2.283   0.546  0.00  0.00    +0.100 C 
BRANCH  14   4
ATOM      4  N   UNL     1      -2.527   3.231  -0.507  0.00  0.00    -0.311 NA
ATOM     34  H   UNL     1      -3.375   3.734  -0.771  0.00  0.00    +0.122 HD
BRANCH   4  18
ATOM     18  C   UNL     1      -1.527   4.191  -0.056  0.00  0.00    +0.116 C 
BRANCH  18  21
ATOM     21  C   UNL     1      -0.137   3.612  -0.096  0.00  0.00    -0.033 A 
ATOM     24  C   UNL     1       0.626   3.550   1.071  0.00  0.00    +0.007 A 
ATOM     25  C   UNL     1       0.387   3.138  -1.298  0.00  0.00    +0.007 A 
ATOM     28  C   UNL     1       1.913   3.014   1.034  0.00  0.00    +0.023 A 
ATOM     29  C   UNL     1       1.675   2.603  -1.335  0.00  0.00    +0.023 A 
ATOM     30  C   UNL     1       2.437   2.540  -0.169  0.00  0.00    +0.029 A 
BRANCH  30   6
ATOM      6  N   UNL     1       3.739   1.998  -0.205  0.00  0.00    -0.336 N 
ATOM     32  C   UNL     1       4.290   1.497  -1.449  0.00  0.00    +0.129 C 
ATOM     33  C   UNL     1       4.540   1.929   1.001  0.00  0.00    +0.129 C 
ENDBRANCH  30   6
ENDBRANCH  18  21
ENDBRANCH   4  18
ENDBRANCH  14   4
ENDBRANCH   9  14
TORSDOF 7
