REMARK  Name = 7049332
REMARK  9 active torsions:
REMARK  status: ('A' for Active; 'I' for Inactive)
REMARK    1  A    between atoms: O_1  and  C_13
REMARK    2  A    between atoms: O_2  and  C_15
REMARK    3  A    between atoms: O_3  and  C_16
REMARK    4  A    between atoms: N_8  and  C_12
REMARK    5  A    between atoms: N_9  and  C_23
REMARK    6  A    between atoms: C_11  and  C_19
REMARK    7  A    between atoms: C_21  and  C_22
REMARK    8  A    between atoms: C_23  and  C_24
REMARK    9  A    between atoms: C_23  and  C_25
REMARK                            x       y       z     vdW  Elec       q    Type
REMARK                         _______ _______ _______ _____ _____    ______ ____
ROOT
ATOM     12  C   UNL     1      -0.696  -1.462   0.190  0.00  0.00    +0.127 C 
ATOM     13  C   UNL     1      -0.492  -2.597  -0.832  0.00  0.00    +0.167 C 
ATOM     15  C   UNL     1       0.706  -3.481  -0.459  0.00  0.00    +0.149 C 
ATOM     18  C   UNL     1       2.001  -2.665  -0.304  0.00  0.00    +0.074 C 
ATOM     20  C   UNL     1       0.587  -0.784   0.589  0.00  0.00    +0.006 C 
ATOM     21  C   UNL     1       1.789  -1.331   0.354  0.00  0.00    +0.015 C 
ENDROOT
BRANCH  12   8
ATOM      4  O   UNL     1      -3.582  -1.427   0.499  0.00  0.00    -0.274 OA
ATOM      8  N   UNL     1      -1.617  -0.466  -0.299  0.00  0.00    -0.305 N 
ATOM     19  C   UNL     1      -2.987  -0.535  -0.101  0.00  0.00    +0.231 C 
ATOM     27  H   UNL     1      -1.243   0.296  -0.859  0.00  0.00    +0.149 HD
BRANCH  19  11
ATOM      7  N   UNL     1      -5.136   0.442  -0.415  0.00  0.00    -0.303 NA
ATOM     11  C   UNL     1      -3.707   0.638  -0.688  0.00  0.00    +0.143 C 
ATOM     14  C   UNL     1      -3.303   1.953  -0.027  0.00  0.00    +0.060 C 
ATOM     16  C   UNL     1      -4.547   2.417   0.720  0.00  0.00    +0.130 C 
ATOM     17  C   UNL     1      -5.410   1.175   0.831  0.00  0.00    +0.113 C 
ATOM     26  H   UNL     1      -5.391  -0.540  -0.336  0.00  0.00    +0.123 HD
BRANCH  16   3
ATOM      3  O   UNL     1      -5.242   3.401  -0.039  0.00  0.00    -0.390 OA
ATOM     30  H   UNL     1      -4.657   4.173  -0.120  0.00  0.00    +0.210 HD
ENDBRANCH  16   3
ENDBRANCH  19  11
ENDBRANCH  12   8
BRANCH  21  22
ATOM      5  O   UNL     1       3.759  -1.058   1.605  0.00  0.00    -0.271 OA
ATOM      9  N   UNL     1       3.069   0.665   0.196  0.00  0.00    -0.301 N 
ATOM     22  C   UNL     1       2.971  -0.581   0.790  0.00  0.00    +0.240 C 
ATOM     31  H   UNL     1       2.354   0.960  -0.464  0.00  0.00    +0.150 HD
BRANCH   9  23
ATOM     23  C   UNL     1       4.147   1.588   0.469  0.00  0.00    +0.156 C 
ATOM     24  C   UNL     1       3.799   2.509   1.628  0.00  0.00    +0.038 C 
BRANCH  23  25
ATOM      6  O   UNL     1       3.554   2.714  -1.599  0.00  0.00    -0.274 OA
ATOM     10  N   UNL     1       5.750   2.740  -0.926  0.00  0.00    -0.328 N 
ATOM     25  C   UNL     1       4.424   2.385  -0.796  0.00  0.00    +0.231 C 
ATOM     32  H   UNL     1       6.068   3.284  -1.721  0.00  0.00    +0.145 HD
ATOM     33  H   UNL     1       6.454   2.478  -0.243  0.00  0.00    +0.145 HD
ENDBRANCH  23  25
ENDBRANCH   9  23
ENDBRANCH  21  22
BRANCH  13   1
ATOM      1  O   UNL     1      -0.266  -2.041  -2.129  0.00  0.00    -0.387 OA
ATOM     28  H   UNL     1      -0.171  -2.781  -2.752  0.00  0.00    +0.210 HD
ENDBRANCH  13   1
BRANCH  15   2
ATOM      2  O   UNL     1       0.432  -4.198   0.743  0.00  0.00    -0.389 OA
ATOM     29  H   UNL     1       1.192  -4.777   0.920  0.00  0.00    +0.210 HD
ENDBRANCH  15   2
TORSDOF 8
