REMARK  Name = 40781655
REMARK  12 active torsions:
REMARK  status: ('A' for Active; 'I' for Inactive)
REMARK    1  A    between atoms: O_2  and  C_11
REMARK    2  A    between atoms: O_3  and  C_12
REMARK    3  A    between atoms: N_6  and  C_14
REMARK    4  A    between atoms: N_7  and  C_15
REMARK    5  A    between atoms: N_8  and  C_24
REMARK    6  A    between atoms: N_9  and  C_25
REMARK    7  A    between atoms: N_9  and  C_26
REMARK    8  A    between atoms: N_9  and  C_27
REMARK    9  A    between atoms: C_10  and  C_15
REMARK   10  A    between atoms: C_13  and  C_18
REMARK   11  A    between atoms: C_18  and  C_23
REMARK   12  A    between atoms: C_24  and  C_25
REMARK                            x       y       z     vdW  Elec       q    Type
REMARK                         _______ _______ _______ _____ _____    ______ ____
ROOT
ATOM      1  O   UNL     1      -2.248  -0.353   0.569  0.00  0.00    -0.366 OA
ATOM     10  C   UNL     1      -3.009  -1.577   0.446  0.00  0.00    +0.167 C 
ATOM     11  C   UNL     1      -4.460  -1.160   0.233  0.00  0.00    +0.176 C 
ATOM     12  C   UNL     1      -4.306   0.183  -0.450  0.00  0.00    +0.175 C 
ATOM     13  C   UNL     1      -3.111   0.763   0.287  0.00  0.00    +0.158 C 
ENDROOT
BRANCH  11   2
ATOM      2  O   UNL     1      -5.068  -0.998   1.514  0.00  0.00    -0.387 OA
ATOM     30  H   UNL     1      -5.112  -1.877   1.927  0.00  0.00    +0.210 HD
ENDBRANCH  11   2
BRANCH  12   3
ATOM      3  O   UNL     1      -5.449   1.004  -0.335  0.00  0.00    -0.387 OA
ATOM     31  H   UNL     1      -6.196   0.519  -0.725  0.00  0.00    +0.210 HD
ENDBRANCH  12   3
BRANCH  10  15
ATOM     15  C   UNL     1      -2.437  -2.366  -0.724  0.00  0.00    +0.140 C 
BRANCH  15   7
ATOM      4  O   UNL     1      -0.099  -0.843  -1.416  0.00  0.00    -0.253 OA
ATOM      6  N   UNL     1       1.226  -2.518  -0.505  0.00  0.00    -0.297 N 
ATOM      7  N   UNL     1      -1.073  -2.732  -0.483  0.00  0.00    -0.297 N 
ATOM     22  C   UNL     1       0.012  -1.931  -0.853  0.00  0.00    +0.300 C 
ATOM     28  H   UNL     1       1.200  -3.384   0.024  0.00  0.00    +0.151 HD
ATOM     29  H   UNL     1      -0.886  -3.612  -0.012  0.00  0.00    +0.150 HD
BRANCH   6  14
ATOM     14  C   UNL     1       2.507  -1.903  -0.771  0.00  0.00    +0.074 C 
ATOM     16  C   UNL     1       2.921  -0.974   0.375  0.00  0.00    +0.022 C 
ATOM     17  C   UNL     1       3.581  -2.963  -1.043  0.00  0.00    +0.022 C 
ATOM     19  C   UNL     1       3.322  -1.742   1.635  0.00  0.00    +0.002 C 
ATOM     20  C   UNL     1       3.980  -3.727   0.220  0.00  0.00    +0.002 C 
ATOM     21  C   UNL     1       4.399  -2.782   1.341  0.00  0.00    +0.000 C 
ENDBRANCH   6  14
ENDBRANCH  15   7
ENDBRANCH  10  15
BRANCH  13  18
ATOM     18  C   UNL     1      -2.354   1.804  -0.518  0.00  0.00    +0.130 C 
BRANCH  18  23
ATOM      5  O   UNL     1      -0.775   1.914   1.311  0.00  0.00    -0.276 OA
ATOM      8  N   UNL     1      -0.417   3.224  -0.575  0.00  0.00    -0.314 N 
ATOM     23  C   UNL     1      -1.108   2.299   0.194  0.00  0.00    +0.216 C 
ATOM     32  H   UNL     1      -0.773   3.470  -1.494  0.00  0.00    +0.149 HD
BRANCH   8  24
ATOM     24  C   UNL     1       0.806   3.858  -0.136  0.00  0.00    +0.119 C 
BRANCH  24  25
ATOM     25  C   UNL     1       2.025   3.050  -0.555  0.00  0.00    +0.102 C 
BRANCH  25   9
ATOM      9  N   UNL     1       3.247   3.720  -0.128  0.00  0.00    -0.307 NA
ATOM     26  C   UNL     1       4.389   3.270  -0.927  0.00  0.00    +0.104 C 
ATOM     27  C   UNL     1       3.498   3.481   1.294  0.00  0.00    +0.104 C 
ENDBRANCH  25   9
ENDBRANCH  24  25
ENDBRANCH   8  24
ENDBRANCH  18  23
ENDBRANCH  13  18
TORSDOF 10
