REMARK  Name = 11867064
REMARK  14 active torsions:
REMARK  status: ('A' for Active; 'I' for Inactive)
REMARK    1  A    between atoms: O_2  and  C_16
REMARK    2  A    between atoms: O_3  and  C_21
REMARK    3  A    between atoms: O_6  and  C_30
REMARK    4  A    between atoms: O_6  and  C_36
REMARK    5  A    between atoms: O_7  and  C_35
REMARK    6  A    between atoms: O_7  and  C_37
REMARK    7  A    between atoms: N_9  and  C_27
REMARK    8  A    between atoms: C_11  and  C_19
REMARK    9  A    between atoms: C_13  and  C_21
REMARK   10  A    between atoms: C_13  and  C_22
REMARK   11  A    between atoms: C_14  and  C_24
REMARK   12  A    between atoms: C_24  and  C_25
REMARK   13  A    between atoms: C_27  and  C_29
REMARK   14  A    between atoms: C_28  and  C_30
REMARK                            x       y       z     vdW  Elec       q    Type
REMARK                         _______ _______ _______ _____ _____    ______ ____
ROOT
ATOM      1  S   UNL     1      -0.082   2.840  -0.493  0.00  0.00    -0.057 S 
ATOM      5  O   UNL     1       3.477   0.517   1.427  0.00  0.00    -0.273 OA
ATOM      8  N   UNL     1       0.594   0.662   0.728  0.00  0.00    -0.229 NA
ATOM     10  N   UNL     1       2.344   2.268   0.319  0.00  0.00    -0.263 N 
ATOM     11  C   UNL     1      -3.142  -0.284   0.837  0.00  0.00    -0.019 C 
ATOM     12  C   UNL     1      -3.456   0.479  -0.525  0.00  0.00    +0.011 C 
ATOM     13  C   UNL     1      -4.966   0.548  -0.976  0.00  0.00    +0.021 C 
ATOM     14  C   UNL     1      -1.579  -0.612   0.870  0.00  0.00    +0.054 C 
ATOM     15  C   UNL     1      -3.923  -1.623   0.870  0.00  0.00    +0.010 C 
ATOM     16  C   UNL     1      -5.607  -0.862  -0.838  0.00  0.00    +0.123 C 
ATOM     17  C   UNL     1      -2.718   1.848  -0.593  0.00  0.00    +0.049 C 
ATOM     18  C   UNL     1      -5.402  -1.483   0.540  0.00  0.00    +0.032 C 
ATOM     19  C   UNL     1      -3.522   0.543   2.091  0.00  0.00    +0.012 C 
ATOM     20  C   UNL     1      -0.764   0.594   0.478  0.00  0.00    +0.058 A 
ATOM     22  C   UNL     1      -5.029   0.940  -2.479  0.00  0.00    +0.016 C 
ATOM     23  C   UNL     1      -1.291   1.678  -0.194  0.00  0.00    +0.015 A 
ATOM     26  C   UNL     1       1.057   1.804   0.267  0.00  0.00    +0.165 A 
ATOM     28  C   UNL     1       3.456   1.615   0.882  0.00  0.00    +0.244 C 
ATOM     41  H   UNL     1       2.488   3.183  -0.101  0.00  0.00    +0.157 HD
ENDROOT
BRANCH  16   2
ATOM      2  O   UNL     1      -7.006  -0.808  -1.114  0.00  0.00    -0.391 OA
ATOM     38  H   UNL     1      -7.120  -0.730  -2.076  0.00  0.00    +0.210 HD
ENDBRANCH  16   2
BRANCH  13  21
ATOM     21  C   UNL     1      -5.808   1.610  -0.234  0.00  0.00    +0.165 C 
BRANCH  21   3
ATOM      3  O   UNL     1      -7.119   1.558  -0.750  0.00  0.00    -0.394 OA
ATOM     39  H   UNL     1      -7.162   2.144  -1.524  0.00  0.00    +0.209 HD
ENDBRANCH  21   3
ENDBRANCH  13  21
BRANCH  14  24
ATOM     24  C   UNL     1      -1.082  -1.221   2.188  0.00  0.00    +0.106 C 
BRANCH  24  25
ATOM      4  O   UNL     1       1.254  -1.195   2.817  0.00  0.00    -0.276 OA
ATOM      9  N   UNL     1       0.539  -2.614   1.121  0.00  0.00    -0.311 N 
ATOM     25  C   UNL     1       0.364  -1.650   2.104  0.00  0.00    +0.214 C 
ATOM     40  H   UNL     1      -0.267  -2.973   0.619  0.00  0.00    +0.149 HD
BRANCH   9  27
ATOM     27  C   UNL     1       1.821  -3.207   0.816  0.00  0.00    +0.139 C 
BRANCH  27  29
ATOM     29  C   UNL     1       2.559  -2.437  -0.240  0.00  0.00    -0.030 A 
ATOM     31  C   UNL     1       1.884  -2.009  -1.377  0.00  0.00    +0.009 A 
ATOM     32  C   UNL     1       3.911  -2.161  -0.071  0.00  0.00    +0.009 A 
ATOM     33  C   UNL     1       2.570  -1.294  -2.359  0.00  0.00    +0.046 A 
ATOM     34  C   UNL     1       4.597  -1.446  -1.053  0.00  0.00    +0.046 A 
ATOM     35  C   UNL     1       3.927  -1.013  -2.197  0.00  0.00    +0.120 A 
BRANCH  35   7
ATOM      7  O   UNL     1       4.595  -0.315  -3.155  0.00  0.00    -0.495 OA
ATOM     37  C   UNL     1       5.981  -0.061  -2.927  0.00  0.00    +0.277 C 
ENDBRANCH  35   7
ENDBRANCH  27  29
ENDBRANCH   9  27
ENDBRANCH  24  25
ENDBRANCH  14  24
BRANCH  28  30
ATOM     30  C   UNL     1       4.715   2.452   0.743  0.00  0.00    +0.255 C 
BRANCH  30   6
ATOM      6  O   UNL     1       5.828   1.784   1.299  0.00  0.00    -0.374 OA
ATOM     36  C   UNL     1       7.022   2.552   1.180  0.00  0.00    +0.194 C 
ENDBRANCH  30   6
ENDBRANCH  28  30
TORSDOF 10
