REMARK  Name = 45783409
REMARK  9 active torsions:
REMARK  status: ('A' for Active; 'I' for Inactive)
REMARK    1  A    between atoms: O_3  and  C_23
REMARK    2  A    between atoms: O_3  and  C_27
REMARK    3  A    between atoms: O_4  and  C_28
REMARK    4  A    between atoms: O_4  and  C_29
REMARK    5  A    between atoms: N_5  and  C_13
REMARK    6  A    between atoms: C_9  and  C_14
REMARK    7  A    between atoms: C_13  and  C_15
REMARK    8  A    between atoms: C_18  and  C_21
REMARK    9  A    between atoms: C_27  and  C_28
REMARK                            x       y       z     vdW  Elec       q    Type
REMARK                         _______ _______ _______ _____ _____    ______ ____
ROOT
ATOM      2  O   UNL     1      -1.293  -2.767  -1.344  0.00  0.00    -0.336 OA
ATOM      6  N   UNL     1      -1.411  -1.169   0.221  0.00  0.00    -0.190 NA
ATOM      7  N   UNL     1      -2.440  -2.019  -1.638  0.00  0.00    -0.056 NA
ATOM     14  C   UNL     1      -0.747  -2.200  -0.236  0.00  0.00    +0.245 A 
ATOM     18  C   UNL     1      -2.441  -1.095  -0.672  0.00  0.00    +0.207 A 
ENDROOT
BRANCH  18  21
ATOM      8  N   UNL     1      -4.126   2.141   0.087  0.00  0.00    -0.221 NA
ATOM     21  C   UNL     1      -3.457  -0.088  -0.569  0.00  0.00    +0.084 A 
ATOM     23  C   UNL     1      -3.200   1.163  -0.029  0.00  0.00    +0.226 A 
ATOM     24  C   UNL     1      -4.746  -0.351  -1.018  0.00  0.00    +0.018 A 
ATOM     25  C   UNL     1      -5.726   0.631  -0.915  0.00  0.00    +0.021 A 
ATOM     26  C   UNL     1      -5.367   1.849  -0.361  0.00  0.00    +0.114 A 
BRANCH  23   3
ATOM      3  O   UNL     1      -1.944   1.470   0.427  0.00  0.00    -0.474 OA
BRANCH   3  27
ATOM     27  C   UNL     1      -1.761   2.773   0.966  0.00  0.00    +0.258 C 
BRANCH  27  28
ATOM     28  C   UNL     1      -0.327   2.917   1.437  0.00  0.00    +0.200 C 
BRANCH  28   4
ATOM      4  O   UNL     1      -0.071   1.952   2.451  0.00  0.00    -0.380 OA
ATOM     29  C   UNL     1       1.269   2.027   2.915  0.00  0.00    +0.194 C 
ENDBRANCH  28   4
ENDBRANCH  27  28
ENDBRANCH   3  27
ENDBRANCH  23   3
ENDBRANCH  18  21
BRANCH  14   9
ATOM      5  N   UNL     1       1.646  -1.880   0.367  0.00  0.00    -0.287 NA
ATOM      9  C   UNL     1       0.522  -2.835   0.291  0.00  0.00    +0.146 C 
ATOM     10  C   UNL     1       0.367  -3.371   1.727  0.00  0.00    +0.030 C 
ATOM     11  C   UNL     1       1.483  -2.708   2.522  0.00  0.00    +0.017 C 
ATOM     12  C   UNL     1       2.501  -2.334   1.463  0.00  0.00    +0.085 C 
BRANCH   5  13
ATOM     13  C   UNL     1       2.380  -1.756  -0.886  0.00  0.00    +0.120 C 
BRANCH  13  15
ATOM      1 CL   UNL     1       5.520   3.369  -1.142  0.00  0.00    -0.084 Cl
ATOM     15  C   UNL     1       3.166  -0.474  -0.951  0.00  0.00    -0.033 A 
ATOM     16  C   UNL     1       2.582   0.676  -1.481  0.00  0.00    +0.006 A 
ATOM     17  C   UNL     1       4.479  -0.437  -0.480  0.00  0.00    +0.006 A 
ATOM     19  C   UNL     1       3.311   1.864  -1.541  0.00  0.00    +0.020 A 
ATOM     20  C   UNL     1       5.207   0.751  -0.540  0.00  0.00    +0.020 A 
ATOM     22  C   UNL     1       4.623   1.902  -1.071  0.00  0.00    +0.041 A 
ENDBRANCH  13  15
ENDBRANCH   5  13
ENDBRANCH  14   9
TORSDOF 8
