REMARK  Name = 26743878
REMARK  5 active torsions:
REMARK  status: ('A' for Active; 'I' for Inactive)
REMARK    1  A    between atoms: O_1  and  C_8
REMARK    2  A    between atoms: N_3  and  C_11
REMARK    3  A    between atoms: C_6  and  C_10
REMARK    4  A    between atoms: C_12  and  C_13
REMARK    5  A    between atoms: C_16  and  C_19
REMARK                            x       y       z     vdW  Elec       q    Type
REMARK                         _______ _______ _______ _____ _____    ______ ____
ROOT
ATOM      2  O   UNL     1       0.747  -2.175   0.468  0.00  0.00    -0.336 OA
ATOM      4  N   UNL     1       0.145  -0.058   0.053  0.00  0.00    -0.190 NA
ATOM      5  N   UNL     1      -0.653  -2.163   0.462  0.00  0.00    -0.056 NA
ATOM     10  C   UNL     1       1.136  -0.896   0.220  0.00  0.00    +0.245 A 
ATOM     12  C   UNL     1      -0.933  -0.880   0.211  0.00  0.00    +0.202 A 
ENDROOT
BRANCH  12  13
ATOM     13  C   UNL     1      -2.276  -0.388   0.112  0.00  0.00    +0.023 A 
ATOM     14  C   UNL     1      -2.508   0.962  -0.152  0.00  0.00    +0.015 A 
ATOM     15  C   UNL     1      -3.352  -1.261   0.280  0.00  0.00    +0.012 A 
ATOM     16  C   UNL     1      -3.815   1.439  -0.249  0.00  0.00    -0.050 A 
ATOM     17  C   UNL     1      -4.659  -0.783   0.183  0.00  0.00    +0.001 A 
ATOM     18  C   UNL     1      -4.891   0.567  -0.082  0.00  0.00    +0.003 A 
ATOM     19  C   UNL     1      -4.063   2.882  -0.532  0.00  0.00    +0.044 C 
ENDBRANCH  12  13
BRANCH  10   6
ATOM      3  N   UNL     1       3.065  -0.056  -1.110  0.00  0.00    -0.292 NA
ATOM      6  C   UNL     1       2.628  -0.642   0.173  0.00  0.00    +0.148 C 
ATOM      7  C   UNL     1       3.094   0.363   1.244  0.00  0.00    +0.061 C 
ATOM      8  C   UNL     1       3.822   1.454   0.469  0.00  0.00    +0.130 C 
ATOM      9  C   UNL     1       4.240   0.761  -0.813  0.00  0.00    +0.116 C 
ATOM     11  C   UNL     1       3.336  -1.055  -2.135  0.00  0.00    +0.105 C 
BRANCH   8   1
ATOM      1  O   UNL     1       4.938   1.927   1.198  0.00  0.00    -0.390 OA
ATOM     20  H   UNL     1       4.607   2.289   2.038  0.00  0.00    +0.210 HD
ENDBRANCH   8   1
ENDBRANCH  10   6
TORSDOF 3
