REMARK  Name = 45784182
REMARK  4 active torsions:
REMARK  status: ('A' for Active; 'I' for Inactive)
REMARK    1  A    between atoms: N_2  and  C_8
REMARK    2  A    between atoms: C_4  and  C_9
REMARK    3  A    between atoms: C_8  and  C_10
REMARK    4  A    between atoms: C_17  and  C_22
REMARK                            x       y       z     vdW  Elec       q    Type
REMARK                         _______ _______ _______ _____ _____    ______ ____
ROOT
ATOM      2  N   UNL     1      -2.152   1.276  -0.110  0.00  0.00    -0.297 NA
ATOM      4  C   UNL     1      -0.002   1.038   0.795  0.00  0.00    +0.090 C 
ATOM      5  C   UNL     1      -0.279   2.525   0.511  0.00  0.00    +0.029 C 
ATOM      6  C   UNL     1      -1.081   0.284   0.006  0.00  0.00    +0.097 C 
ATOM      7  C   UNL     1      -1.471   2.529  -0.437  0.00  0.00    +0.085 C 
ENDROOT
BRANCH   4   9
ATOM      1  O   UNL     1       2.122   0.074   1.502  0.00  0.00    -0.439 OA
ATOM      3  N   UNL     1       2.014   0.603  -0.699  0.00  0.00    -0.213 NA
ATOM      9  C   UNL     1       1.400   0.579   0.463  0.00  0.00    +0.201 A 
ATOM     11  C   UNL     1       3.249   0.071  -0.415  0.00  0.00    +0.110 A 
ATOM     12  C   UNL     1       3.318  -0.254   0.931  0.00  0.00    +0.155 A 
ATOM     15  C   UNL     1       4.364  -0.172  -1.230  0.00  0.00    +0.035 A 
ATOM     16  C   UNL     1       4.427  -0.814   1.554  0.00  0.00    +0.049 A 
ATOM     17  C   UNL     1       5.503  -0.736  -0.637  0.00  0.00    -0.048 A 
ATOM     18  C   UNL     1       5.531  -1.050   0.728  0.00  0.00    +0.007 A 
ATOM     22  C   UNL     1       6.707  -1.007  -1.478  0.00  0.00    +0.044 C 
ENDBRANCH   4   9
BRANCH   2   8
ATOM      8  C   UNL     1      -3.143   0.908  -1.110  0.00  0.00    +0.119 C 
BRANCH   8  10
ATOM     10  C   UNL     1      -4.151  -0.070  -0.566  0.00  0.00    -0.033 A 
ATOM     13  C   UNL     1      -3.918  -1.441  -0.670  0.00  0.00    +0.005 A 
ATOM     14  C   UNL     1      -5.317   0.396   0.041  0.00  0.00    +0.005 A 
ATOM     19  C   UNL     1      -4.852  -2.347  -0.166  0.00  0.00    +0.000 A 
ATOM     20  C   UNL     1      -6.250  -0.510   0.545  0.00  0.00    +0.000 A 
ATOM     21  C   UNL     1      -6.018  -1.881   0.441  0.00  0.00    +0.000 A 
ENDBRANCH   8  10
ENDBRANCH   2   8
TORSDOF 3
