REMARK  Name = 11882563
REMARK  16 active torsions:
REMARK  status: ('A' for Active; 'I' for Inactive)
REMARK    1  A    between atoms: O_1  and  C_12
REMARK    2  A    between atoms: O_2  and  C_15
REMARK    3  A    between atoms: O_3  and  C_17
REMARK    4  A    between atoms: N_7  and  C_13
REMARK    5  A    between atoms: N_8  and  C_21
REMARK    6  A    between atoms: N_9  and  C_20
REMARK    7  A    between atoms: N_9  and  C_29
REMARK    8  A    between atoms: C_12  and  C_18
REMARK    9  A    between atoms: C_19  and  C_20
REMARK   10  A    between atoms: C_20  and  C_22
REMARK   11  A    between atoms: C_21  and  C_23
REMARK   12  A    between atoms: C_21  and  C_25
REMARK   13  A    between atoms: C_22  and  C_24
REMARK   14  A    between atoms: C_23  and  C_26
REMARK   15  A    between atoms: C_24  and  C_27
REMARK   16  A    between atoms: C_24  and  C_28
REMARK                            x       y       z     vdW  Elec       q    Type
REMARK                         _______ _______ _______ _____ _____    ______ ____
ROOT
ATOM     12  C   UNL     1      -0.013   2.717   0.165  0.00  0.00    +0.146 C 
ATOM     13  C   UNL     1       2.314   1.699   0.219  0.00  0.00    +0.107 C 
ATOM     14  C   UNL     1       0.806   1.427   0.240  0.00  0.00    +0.069 C 
ATOM     15  C   UNL     1       2.728   2.702   1.304  0.00  0.00    +0.163 C 
ATOM     16  C   UNL     1       0.395   3.698   1.262  0.00  0.00    +0.078 C 
ATOM     17  C   UNL     1       1.897   3.986   1.248  0.00  0.00    +0.148 C 
ENDROOT
BRANCH  12  18
ATOM      4  O   UNL     1      -2.176   2.860   1.169  0.00  0.00    -0.273 OA
ATOM      8  N   UNL     1      -1.913   1.590  -0.764  0.00  0.00    -0.301 N 
ATOM     18  C   UNL     1      -1.481   2.417   0.259  0.00  0.00    +0.246 C 
ATOM     41  H   UNL     1      -1.276   1.377  -1.526  0.00  0.00    +0.150 HD
BRANCH   8  21
ATOM     21  C   UNL     1      -3.279   1.135  -0.889  0.00  0.00    +0.163 C 
BRANCH  21  25
ATOM      6  O   UNL     1      -3.543   2.867  -2.572  0.00  0.00    -0.274 OA
ATOM     10  N   UNL     1      -5.357   2.305  -1.279  0.00  0.00    -0.328 N 
ATOM     25  C   UNL     1      -4.037   2.201  -1.665  0.00  0.00    +0.231 C 
ATOM     43  H   UNL     1      -5.758   1.730  -0.545  0.00  0.00    +0.145 HD
ATOM     44  H   UNL     1      -5.979   2.970  -1.727  0.00  0.00    +0.145 HD
ENDBRANCH  21  25
BRANCH  21  23
ATOM     23  C   UNL     1      -3.376  -0.220  -1.602  0.00  0.00    +0.069 C 
BRANCH  23  26
ATOM     11  N   UNL     1      -1.932  -2.966   0.369  0.00  0.00    -0.360 N 
ATOM     26  C   UNL     1      -3.055  -1.382  -0.706  0.00  0.00    -0.020 A 
ATOM     30  C   UNL     1      -3.976  -2.115   0.095  0.00  0.00    +0.003 A 
ATOM     31  C   UNL     1      -1.807  -1.929  -0.516  0.00  0.00    +0.087 A 
ATOM     32  C   UNL     1      -3.245  -3.102   0.759  0.00  0.00    +0.047 A 
ATOM     33  C   UNL     1      -5.364  -2.032   0.319  0.00  0.00    +0.010 A 
ATOM     34  C   UNL     1      -3.836  -4.015   1.640  0.00  0.00    +0.026 A 
ATOM     35  C   UNL     1      -5.969  -2.938   1.198  0.00  0.00    +0.001 A 
ATOM     36  C   UNL     1      -5.215  -3.914   1.847  0.00  0.00    +0.002 A 
ATOM     45  H   UNL     1      -1.170  -3.547   0.691  0.00  0.00    +0.165 HD
ENDBRANCH  23  26
ENDBRANCH  21  23
ENDBRANCH   8  21
ENDBRANCH  12  18
BRANCH  13   7
ATOM      5  O   UNL     1       3.127  -0.112  -1.877  0.00  0.00    -0.274 OA
ATOM      7  N   UNL     1       3.037   0.455   0.373  0.00  0.00    -0.309 N 
ATOM     19  C   UNL     1       3.386  -0.353  -0.699  0.00  0.00    +0.230 C 
ATOM     37  H   UNL     1       3.232   0.139   1.318  0.00  0.00    +0.149 HD
BRANCH  19  20
ATOM     20  C   UNL     1       4.112  -1.621  -0.263  0.00  0.00    +0.140 C 
BRANCH  20   9
ATOM      9  N   UNL     1       3.226  -2.729  -0.629  0.00  0.00    -0.309 NA
ATOM     29  C   UNL     1       2.176  -2.894   0.363  0.00  0.00    +0.101 C 
ATOM     42  H   UNL     1       2.832  -2.592  -1.558  0.00  0.00    +0.122 HD
ENDBRANCH  20   9
BRANCH  20  22
ATOM     22  C   UNL     1       5.474  -1.783  -0.958  0.00  0.00    +0.031 C 
BRANCH  22  24
ATOM     24  C   UNL     1       6.275  -3.026  -0.514  0.00  0.00    -0.015 C 
ATOM     27  C   UNL     1       7.594  -3.174  -1.274  0.00  0.00    +0.007 C 
ATOM     28  C   UNL     1       6.552  -2.950   0.990  0.00  0.00    +0.007 C 
ENDBRANCH  22  24
ENDBRANCH  20  22
ENDBRANCH  19  20
ENDBRANCH  13   7
BRANCH  12   1
ATOM      1  O   UNL     1       0.155   3.341  -1.103  0.00  0.00    -0.379 OA
ATOM     38  H   UNL     1      -0.298   4.201  -1.085  0.00  0.00    +0.211 HD
ENDBRANCH  12   1
BRANCH  15   2
ATOM      2  O   UNL     1       4.098   3.065   1.107  0.00  0.00    -0.387 OA
ATOM     39  H   UNL     1       4.182   3.450   0.218  0.00  0.00    +0.210 HD
ENDBRANCH  15   2
BRANCH  17   3
ATOM      3  O   UNL     1       2.224   4.787   2.383  0.00  0.00    -0.389 OA
ATOM     40  H   UNL     1       1.698   5.603   2.327  0.00  0.00    +0.210 HD
ENDBRANCH  17   3
TORSDOF 13
