REMARK  Name = 25314972
REMARK  7 active torsions:
REMARK  status: ('A' for Active; 'I' for Inactive)
REMARK    1  A    between atoms: O_3  and  C_9
REMARK    2  A    between atoms: O_4  and  C_23
REMARK    3  A    between atoms: N_5  and  C_8
REMARK    4  A    between atoms: N_6  and  C_10
REMARK    5  A    between atoms: N_6  and  C_18
REMARK    6  A    between atoms: N_7  and  C_19
REMARK    7  A    between atoms: C_18  and  C_20
REMARK                            x       y       z     vdW  Elec       q    Type
REMARK                         _______ _______ _______ _____ _____    ______ ____
ROOT
ATOM      1  O   UNL     1       1.598  -2.360  -1.556  0.00  0.00    -0.343 OA
ATOM      2  O   UNL     1       1.967  -4.262  -0.283  0.00  0.00    -0.347 OA
ATOM      8  C   UNL     1       0.605  -2.491   0.641  0.00  0.00    +0.143 C 
ATOM      9  C   UNL     1       1.855  -1.825   1.261  0.00  0.00    +0.156 C 
ATOM     10  C   UNL     1       2.901  -1.360   0.218  0.00  0.00    +0.116 C 
ATOM     11  C   UNL     1       2.928  -2.263  -1.036  0.00  0.00    +0.166 C 
ATOM     12  C   UNL     1       0.988  -3.270  -0.631  0.00  0.00    +0.270 C 
ATOM     13  C   UNL     1       3.216  -3.725  -0.745  0.00  0.00    +0.196 C 
ENDROOT
BRANCH   8   5
ATOM      5  N   UNL     1      -0.414  -1.489   0.326  0.00  0.00    -0.290 NA
ATOM      7  N   UNL     1      -3.061  -0.432   0.137  0.00  0.00    -0.327 N 
ATOM     14  C   UNL     1      -1.148  -1.103   1.537  0.00  0.00    +0.104 C 
ATOM     15  C   UNL     1      -1.348  -2.004  -0.682  0.00  0.00    +0.104 C 
ATOM     16  C   UNL     1      -2.179  -0.014   1.232  0.00  0.00    +0.120 C 
ATOM     17  C   UNL     1      -2.385  -0.945  -1.062  0.00  0.00    +0.120 C 
BRANCH   7  19
ATOM     19  C   UNL     1      -4.308   0.182  -0.023  0.00  0.00    +0.030 A 
ATOM     21  C   UNL     1      -4.488   1.508   0.368  0.00  0.00    +0.023 A 
ATOM     22  C   UNL     1      -5.371  -0.533  -0.574  0.00  0.00    +0.023 A 
ATOM     25  C   UNL     1      -5.731   2.120   0.209  0.00  0.00    +0.002 A 
ATOM     26  C   UNL     1      -6.615   0.078  -0.733  0.00  0.00    +0.002 A 
ATOM     29  C   UNL     1      -6.795   1.405  -0.342  0.00  0.00    +0.000 A 
ENDBRANCH   7  19
ENDBRANCH   8   5
BRANCH   9   3
ATOM      3  O   UNL     1       2.473  -2.786   2.130  0.00  0.00    -0.388 OA
ATOM     32  H   UNL     1       3.221  -2.347   2.568  0.00  0.00    +0.210 HD
ENDBRANCH   9   3
BRANCH  10   6
ATOM      6  N   UNL     1       2.623   0.014  -0.213  0.00  0.00    -0.305 NA
ATOM     31  H   UNL     1       1.625   0.118  -0.399  0.00  0.00    +0.123 HD
BRANCH   6  18
ATOM     18  C   UNL     1       3.048   0.963   0.801  0.00  0.00    +0.120 C 
BRANCH  18  20
ATOM     20  C   UNL     1       2.771   2.384   0.390  0.00  0.00    +0.008 A 
ATOM     23  C   UNL     1       3.581   3.027  -0.545  0.00  0.00    +0.121 A 
ATOM     24  C   UNL     1       1.689   3.059   0.957  0.00  0.00    +0.008 A 
ATOM     27  C   UNL     1       3.311   4.345  -0.914  0.00  0.00    +0.046 A 
ATOM     28  C   UNL     1       1.419   4.377   0.588  0.00  0.00    +0.001 A 
ATOM     30  C   UNL     1       2.230   5.020  -0.348  0.00  0.00    +0.004 A 
BRANCH  23   4
ATOM      4  O   UNL     1       4.642   2.383  -1.108  0.00  0.00    -0.506 OA
ATOM     33  H   UNL     1       5.085   2.984  -1.731  0.00  0.00    +0.292 HD
ENDBRANCH  23   4
ENDBRANCH  18  20
ENDBRANCH   6  18
ENDBRANCH  10   6
TORSDOF 7
