REMARK  Name = 38027263
REMARK  12 active torsions:
REMARK  status: ('A' for Active; 'I' for Inactive)
REMARK    1  A    between atoms: S_1  and  N_5
REMARK    2  A    between atoms: S_1  and  C_25
REMARK    3  A    between atoms: N_5  and  C_14
REMARK    4  A    between atoms: N_6  and  C_18
REMARK    5  A    between atoms: C_7  and  C_11
REMARK    6  A    between atoms: C_8  and  C_14
REMARK    7  A    between atoms: C_10  and  C_15
REMARK    8  A    between atoms: C_11  and  C_16
REMARK    9  A    between atoms: C_11  and  C_17
REMARK   10  A    between atoms: C_12  and  C_19
REMARK   11  A    between atoms: C_15  and  C_20
REMARK   12  A    between atoms: C_25  and  C_26
REMARK                            x       y       z     vdW  Elec       q    Type
REMARK                         _______ _______ _______ _____ _____    ______ ____
ROOT
ATOM      7  C   UNL     1      -0.674  -1.936   0.899  0.00  0.00    +0.000 C 
ATOM      8  C   UNL     1       0.239  -2.740  -0.060  0.00  0.00    +0.030 C 
ATOM      9  C   UNL     1      -2.149  -2.292   0.660  0.00  0.00    +0.012 C 
ATOM     10  C   UNL     1      -2.590  -2.005  -0.788  0.00  0.00    +0.023 C 
ATOM     12  C   UNL     1      -1.593  -2.539  -1.796  0.00  0.00    -0.073 C 
ATOM     13  C   UNL     1      -0.338  -2.874  -1.450  0.00  0.00    -0.023 C 
ATOM     19  C   UNL     1      -2.086  -2.721  -3.205  0.00  0.00    +0.039 C 
ENDROOT
BRANCH   7  11
ATOM     11  C   UNL     1      -0.312  -2.183   2.367  0.00  0.00    -0.013 C 
ATOM     16  C   UNL     1      -0.758  -1.006   3.230  0.00  0.00    +0.007 C 
ATOM     17  C   UNL     1      -0.942  -3.482   2.859  0.00  0.00    +0.007 C 
ENDBRANCH   7  11
BRANCH   8  14
ATOM     14  C   UNL     1       1.637  -2.117  -0.145  0.00  0.00    +0.113 C 
BRANCH  14   5
ATOM      5  N   UNL     1       1.535  -0.789  -0.770  0.00  0.00    -0.194 NA
ATOM     32  H   UNL     1       1.274  -0.817  -1.764  0.00  0.00    +0.148 HD
BRANCH   5   1
ATOM      1  S   UNL     1       2.656   0.426  -0.338  0.00  0.00    +0.033 S 
ATOM      3  O   UNL     1       2.566   0.692   1.085  0.00  0.00    -0.158 OA
ATOM      4  O   UNL     1       2.561   1.506  -1.302  0.00  0.00    -0.158 OA
BRANCH   1  25
ATOM     25  C   UNL     1       4.188  -0.423  -0.640  0.00  0.00    +0.220 C 
BRANCH  25  26
ATOM     26  C   UNL     1       5.305   0.517  -0.306  0.00  0.00    -0.025 A 
ATOM     27  C   UNL     1       5.601   0.803   1.027  0.00  0.00    +0.005 A 
ATOM     28  C   UNL     1       6.048   1.108  -1.328  0.00  0.00    +0.005 A 
ATOM     29  C   UNL     1       6.641   1.679   1.338  0.00  0.00    +0.000 A 
ATOM     30  C   UNL     1       7.088   1.984  -1.017  0.00  0.00    +0.000 A 
ATOM     31  C   UNL     1       7.384   2.270   0.316  0.00  0.00    +0.000 A 
ENDBRANCH  25  26
ENDBRANCH   1  25
ENDBRANCH   5   1
ENDBRANCH  14   5
ENDBRANCH   8  14
BRANCH  10  15
ATOM     15  C   UNL     1      -2.840  -0.508  -1.003  0.00  0.00    +0.103 C 
BRANCH  15  20
ATOM      2  O   UNL     1      -4.887  -0.795   0.256  0.00  0.00    -0.276 OA
ATOM      6  N   UNL     1      -4.325   1.310  -0.551  0.00  0.00    -0.312 N 
ATOM     20  C   UNL     1      -4.127  -0.049  -0.356  0.00  0.00    +0.214 C 
ATOM     33  H   UNL     1      -3.606   1.845  -1.032  0.00  0.00    +0.149 HD
BRANCH   6  18
ATOM     18  C   UNL     1      -5.473   2.020  -0.045  0.00  0.00    +0.073 C 
ATOM     21  C   UNL     1      -5.802   3.239  -0.898  0.00  0.00    +0.022 C 
ATOM     22  C   UNL     1      -5.206   2.630   1.326  0.00  0.00    +0.022 C 
ATOM     23  C   UNL     1      -4.848   4.322  -0.403  0.00  0.00    +0.002 C 
ATOM     24  C   UNL     1      -4.499   3.953   1.039  0.00  0.00    +0.002 C 
ENDBRANCH   6  18
ENDBRANCH  15  20
ENDBRANCH  10  15
TORSDOF 9
