REMARK  Name = 28959550
REMARK  11 active torsions:
REMARK  status: ('A' for Active; 'I' for Inactive)
REMARK    1  A    between atoms: O_1  and  C_16
REMARK    2  A    between atoms: N_5  and  C_14
REMARK    3  A    between atoms: N_5  and  C_17
REMARK    4  A    between atoms: N_5  and  C_18
REMARK    5  A    between atoms: N_6  and  C_21
REMARK    6  A    between atoms: C_7  and  C_11
REMARK    7  A    between atoms: C_8  and  C_13
REMARK    8  A    between atoms: C_11  and  C_14
REMARK    9  A    between atoms: C_13  and  C_16
REMARK   10  A    between atoms: C_17  and  C_19
REMARK   11  A    between atoms: C_18  and  C_20
REMARK                            x       y       z     vdW  Elec       q    Type
REMARK                         _______ _______ _______ _____ _____    ______ ____
ROOT
ATOM      2  O   UNL     1       1.693   2.445  -1.373  0.00  0.00    -0.252 OA
ATOM      4  N   UNL     1       0.117   1.807   0.193  0.00  0.00    -0.285 N 
ATOM      6  N   UNL     1       2.158   0.639   0.007  0.00  0.00    -0.269 N 
ATOM      7  C   UNL     1      -1.684   0.275   0.939  0.00  0.00    +0.011 C 
ATOM      8  C   UNL     1      -2.724   1.327   0.468  0.00  0.00    +0.006 C 
ATOM      9  C   UNL     1      -2.157   2.237  -0.637  0.00  0.00    +0.023 C 
ATOM     10  C   UNL     1      -0.369   0.983   1.309  0.00  0.00    +0.113 C 
ATOM     12  C   UNL     1      -0.819   2.851  -0.226  0.00  0.00    +0.109 C 
ATOM     15  C   UNL     1       1.365   1.688  -0.456  0.00  0.00    +0.306 C 
ATOM     27  H   UNL     1       1.693  -0.177   0.392  0.00  0.00    +0.156 HD
ENDROOT
BRANCH   6  21
ATOM     21  C   UNL     1       3.573   0.579   0.035  0.00  0.00    +0.035 A 
ATOM     22  C   UNL     1       4.213  -0.556   0.535  0.00  0.00    +0.023 A 
ATOM     23  C   UNL     1       4.326   1.653  -0.437  0.00  0.00    +0.023 A 
ATOM     24  C   UNL     1       5.606  -0.615   0.562  0.00  0.00    +0.002 A 
ATOM     25  C   UNL     1       5.720   1.594  -0.409  0.00  0.00    +0.002 A 
ATOM     26  C   UNL     1       6.360   0.460   0.091  0.00  0.00    +0.000 A 
ENDBRANCH   6  21
BRANCH   7  11
ATOM     11  C   UNL     1      -1.424  -0.844  -0.076  0.00  0.00    +0.020 C 
BRANCH  11  14
ATOM     14  C   UNL     1      -0.936  -2.106   0.620  0.00  0.00    +0.084 C 
BRANCH  14   5
ATOM      5  N   UNL     1      -0.679  -3.149  -0.367  0.00  0.00    -0.303 NA
BRANCH   5  17
ATOM     17  C   UNL     1      -1.929  -3.796  -0.771  0.00  0.00    +0.081 C 
ATOM     19  C   UNL     1      -1.683  -4.839  -1.848  0.00  0.00    +0.020 C 
ENDBRANCH   5  17
BRANCH   5  18
ATOM     18  C   UNL     1       0.258  -4.141   0.164  0.00  0.00    +0.081 C 
ATOM     20  C   UNL     1      -0.322  -4.851   1.375  0.00  0.00    +0.020 C 
ENDBRANCH   5  18
ENDBRANCH  14   5
ENDBRANCH  11  14
ENDBRANCH   7  11
BRANCH   8  13
ATOM     13  C   UNL     1      -4.048   0.705   0.027  0.00  0.00    +0.124 C 
BRANCH  13  16
ATOM      3  O   UNL     1      -5.102   2.860   0.462  0.00  0.00    -0.251 OA
ATOM     16  C   UNL     1      -5.179   1.694   0.104  0.00  0.00    +0.305 C 
BRANCH  16   1
ATOM      1  O   UNL     1      -6.334   1.100  -0.290  0.00  0.00    -0.481 OA
ATOM     28  H   UNL     1      -7.095   1.718  -0.253  0.00  0.00    +0.295 HD
ENDBRANCH  16   1
ENDBRANCH  13  16
ENDBRANCH   8  13
TORSDOF 9
