REMARK  Name = 45361473
REMARK  9 active torsions:
REMARK  status: ('A' for Active; 'I' for Inactive)
REMARK    1  A    between atoms: O_1  and  C_9
REMARK    2  A    between atoms: N_4  and  C_13
REMARK    3  A    between atoms: N_5  and  C_25
REMARK    4  A    between atoms: C_6  and  C_16
REMARK    5  A    between atoms: C_8  and  C_18
REMARK    6  A    between atoms: C_12  and  C_17
REMARK    7  A    between atoms: C_17  and  C_19
REMARK    8  A    between atoms: C_17  and  C_21
REMARK    9  A    between atoms: C_20  and  C_22
REMARK                            x       y       z     vdW  Elec       q    Type
REMARK                         _______ _______ _______ _____ _____    ______ ____
ROOT
ATOM      6  C   UNL     1       0.770   0.453   1.611  0.00  0.00    -0.027 C 
ATOM      7  C   UNL     1       0.935   0.365   0.057  0.00  0.00    +0.028 C 
ATOM      8  C   UNL     1       2.425   0.633  -0.362  0.00  0.00    +0.012 C 
ATOM      9  C   UNL     1      -0.131   1.230  -0.673  0.00  0.00    +0.122 C 
ATOM     10  C   UNL     1      -0.679   0.073   1.998  0.00  0.00    +0.007 C 
ATOM     11  C   UNL     1       1.718  -0.571   2.278  0.00  0.00    +0.009 C 
ATOM     12  C   UNL     1      -1.572   0.918  -0.206  0.00  0.00    +0.029 C 
ATOM     13  C   UNL     1       3.377  -0.352   0.372  0.00  0.00    +0.076 C 
ATOM     14  C   UNL     1      -1.724   0.944   1.315  0.00  0.00    +0.007 C 
ATOM     15  C   UNL     1       3.176  -0.376   1.887  0.00  0.00    +0.023 C 
ATOM     16  C   UNL     1       1.077   1.868   2.162  0.00  0.00    +0.011 C 
ATOM     18  C   UNL     1       2.666   0.534  -1.878  0.00  0.00    +0.010 C 
ENDROOT
BRANCH  13   4
ATOM      3  O   UNL     1       5.589  -2.234   0.214  0.00  0.00    -0.276 OA
ATOM      4  N   UNL     1       4.768  -0.058   0.098  0.00  0.00    -0.312 N 
ATOM     22  C   UNL     1       5.747  -1.030   0.045  0.00  0.00    +0.216 C 
ATOM     31  H   UNL     1       5.037   0.916  -0.002  0.00  0.00    +0.149 HD
BRANCH  22  20
ATOM     20  C   UNL     1       7.110  -0.502  -0.254  0.00  0.00    +0.075 C 
ATOM     23  C   UNL     1       7.317   0.328  -1.487  0.00  0.00    +0.013 C 
ATOM     24  C   UNL     1       7.873  -1.064  -1.417  0.00  0.00    +0.013 C 
ENDBRANCH  22  20
ENDBRANCH  13   4
BRANCH   9   1
ATOM      1  O   UNL     1      -0.088   0.958  -2.075  0.00  0.00    -0.391 OA
ATOM     32  H   UNL     1      -0.274   0.012  -2.205  0.00  0.00    +0.210 HD
ENDBRANCH   9   1
BRANCH  12  17
ATOM     17  C   UNL     1      -2.594   1.870  -0.840  0.00  0.00    +0.077 C 
ATOM     19  C   UNL     1      -2.269   3.313  -0.469  0.00  0.00    +0.017 C 
BRANCH  17  21
ATOM      2  O   UNL     1      -4.749   2.265   0.194  0.00  0.00    -0.276 OA
ATOM      5  N   UNL     1      -4.332   0.183  -0.740  0.00  0.00    -0.312 N 
ATOM     21  C   UNL     1      -4.004   1.487  -0.399  0.00  0.00    +0.216 C 
ATOM     33  H   UNL     1      -3.661  -0.383  -1.248  0.00  0.00    +0.149 HD
BRANCH   5  25
ATOM     25  C   UNL     1      -5.613  -0.409  -0.427  0.00  0.00    +0.073 C 
ATOM     26  C   UNL     1      -5.600  -1.046   0.967  0.00  0.00    +0.022 C 
ATOM     27  C   UNL     1      -6.028  -1.424  -1.497  0.00  0.00    +0.022 C 
ATOM     28  C   UNL     1      -4.767  -2.326   1.017  0.00  0.00    +0.002 C 
ATOM     29  C   UNL     1      -5.194  -2.704  -1.443  0.00  0.00    +0.002 C 
ATOM     30  C   UNL     1      -5.205  -3.325  -0.050  0.00  0.00    +0.000 C 
ENDBRANCH   5  25
ENDBRANCH  17  21
ENDBRANCH  12  17
TORSDOF 6
