REMARK  Name = 75367065
REMARK  6 active torsions:
REMARK  status: ('A' for Active; 'I' for Inactive)
REMARK    1  A    between atoms: O_2  and  C_8
REMARK    2  A    between atoms: N_4  and  C_6
REMARK    3  A    between atoms: N_4  and  C_7
REMARK    4  A    between atoms: N_5  and  C_18
REMARK    5  A    between atoms: C_9  and  C_18
REMARK    6  A    between atoms: C_10  and  C_20
REMARK                            x       y       z     vdW  Elec       q    Type
REMARK                         _______ _______ _______ _____ _____    ______ ____
ROOT
ATOM      1  O   UNL     1       1.210   0.903  -1.411  0.00  0.00    -0.371 OA
ATOM      6  C   UNL     1      -0.756   0.818  -0.081  0.00  0.00    +0.111 C 
ATOM      8  C   UNL     1       0.372   1.414   0.740  0.00  0.00    +0.164 C 
ATOM      9  C   UNL     1       1.323   1.873  -0.357  0.00  0.00    +0.165 C 
ATOM     15  C   UNL     1       0.015   0.132  -1.197  0.00  0.00    +0.181 C 
ENDROOT
BRANCH   8   2
ATOM      2  O   UNL     1      -0.054   2.491   1.553  0.00  0.00    -0.388 OA
ATOM     23  H   UNL     1      -0.468   3.160   0.982  0.00  0.00    +0.210 HD
ENDBRANCH   8   2
BRANCH   6   4
ATOM      4  N   UNL     1      -1.602  -0.097   0.668  0.00  0.00    -0.306 NA
ATOM     21  H   UNL     1      -1.811   0.290   1.587  0.00  0.00    +0.123 HD
BRANCH   4   7
ATOM      7  C   UNL     1      -2.845  -0.361  -0.055  0.00  0.00    +0.054 C 
ATOM     11  C   UNL     1      -3.476  -1.662   0.453  0.00  0.00    +0.019 C 
ATOM     12  C   UNL     1      -3.805   0.821   0.112  0.00  0.00    +0.019 C 
ATOM     16  C   UNL     1      -4.818  -1.932  -0.226  0.00  0.00    +0.002 C 
ATOM     17  C   UNL     1      -5.146   0.549  -0.567  0.00  0.00    +0.002 C 
ATOM     19  C   UNL     1      -5.773  -0.752  -0.073  0.00  0.00    +0.000 C 
ENDBRANCH   4   7
ENDBRANCH   6   4
BRANCH   9  18
ATOM     18  C   UNL     1       2.768   1.968   0.101  0.00  0.00    +0.138 C 
BRANCH  18   5
ATOM      3  O   UNL     1       4.077  -0.102  -1.466  0.00  0.00    -0.276 OA
ATOM      5  N   UNL     1       3.253   0.699   0.561  0.00  0.00    -0.313 N 
ATOM     20  C   UNL     1       3.869  -0.231  -0.265  0.00  0.00    +0.216 C 
ATOM     22  H   UNL     1       3.150   0.483   1.548  0.00  0.00    +0.149 HD
BRANCH  20  10
ATOM     10  C   UNL     1       4.297  -1.482   0.426  0.00  0.00    +0.075 C 
ATOM     13  C   UNL     1       3.814  -2.790  -0.106  0.00  0.00    +0.013 C 
ATOM     14  C   UNL     1       3.277  -2.259   1.190  0.00  0.00    +0.013 C 
ENDBRANCH  20  10
ENDBRANCH  18   5
ENDBRANCH   9  18
TORSDOF 6
