REMARK  Name = 71694017
REMARK  7 active torsions:
REMARK  status: ('A' for Active; 'I' for Inactive)
REMARK    1  A    between atoms: S_1  and  N_6
REMARK    2  A    between atoms: S_1  and  C_16
REMARK    3  A    between atoms: O_2  and  C_10
REMARK    4  A    between atoms: O_3  and  C_12
REMARK    5  A    between atoms: N_6  and  C_8
REMARK    6  A    between atoms: C_9  and  C_13
REMARK    7  A    between atoms: C_24  and  C_25
REMARK                            x       y       z     vdW  Elec       q    Type
REMARK                         _______ _______ _______ _____ _____    ______ ____
ROOT
ATOM      8  C   UNL     1       1.845   0.442   0.141  0.00  0.00    +0.115 C 
ATOM      9  C   UNL     1       2.220  -0.948   0.694  0.00  0.00    +0.043 C 
ATOM     10  C   UNL     1       3.139   0.939  -0.496  0.00  0.00    +0.162 C 
ATOM     11  C   UNL     1       3.447  -1.412  -0.133  0.00  0.00    +0.043 C 
ATOM     12  C   UNL     1       3.695  -0.313  -1.164  0.00  0.00    +0.145 C 
ENDROOT
BRANCH   9  13
ATOM     13  C   UNL     1       1.059  -1.920   0.685  0.00  0.00    -0.043 A 
ATOM     14  C   UNL     1       0.845  -2.740  -0.423  0.00  0.00    +0.004 A 
ATOM     15  C   UNL     1       0.203  -1.996   1.784  0.00  0.00    +0.004 A 
ATOM     17  C   UNL     1      -0.225  -3.635  -0.432  0.00  0.00    +0.000 A 
ATOM     18  C   UNL     1      -0.867  -2.891   1.775  0.00  0.00    +0.000 A 
ATOM     19  C   UNL     1      -1.081  -3.710   0.667  0.00  0.00    +0.000 A 
ENDBRANCH   9  13
BRANCH  10   2
ATOM      2  O   UNL     1       2.912   1.966  -1.442  0.00  0.00    -0.388 OA
ATOM     27  H   UNL     1       3.762   2.163  -1.870  0.00  0.00    +0.210 HD
ENDBRANCH  10   2
BRANCH  12   3
ATOM      3  O   UNL     1       2.968  -0.624  -2.349  0.00  0.00    -0.389 OA
ATOM     28  H   UNL     1       3.337  -1.449  -2.709  0.00  0.00    +0.210 HD
ENDBRANCH  12   3
BRANCH   8   6
ATOM      6  N   UNL     1       1.443   1.343   1.247  0.00  0.00    -0.184 NA
ATOM     26  H   UNL     1       1.614   1.033   2.211  0.00  0.00    +0.148 HD
BRANCH   6   1
ATOM      1  S   UNL     1       0.396   2.644   0.941  0.00  0.00    +0.059 S 
ATOM      4  O   UNL     1       0.935   3.456  -0.134  0.00  0.00    -0.153 OA
ATOM      5  O   UNL     1       0.028   3.256   2.204  0.00  0.00    -0.153 OA
BRANCH   1  16
ATOM     16  C   UNL     1      -1.043   1.818   0.330  0.00  0.00    +0.105 A 
ATOM     20  C   UNL     1      -2.041   1.410   1.215  0.00  0.00    +0.030 A 
ATOM     21  C   UNL     1      -1.179   1.574  -1.036  0.00  0.00    +0.030 A 
ATOM     22  C   UNL     1      -3.176   0.758   0.733  0.00  0.00    +0.021 A 
ATOM     23  C   UNL     1      -2.314   0.922  -1.518  0.00  0.00    +0.021 A 
ATOM     24  C   UNL     1      -3.313   0.514  -0.634  0.00  0.00    +0.052 A 
BRANCH  24  25
ATOM      7  N   UNL     1      -5.420  -0.698  -1.528  0.00  0.00    -0.191 NA
ATOM     25  C   UNL     1      -4.476  -0.155  -1.127  0.00  0.00    +0.099 C 
ENDBRANCH  24  25
ENDBRANCH   1  16
ENDBRANCH   6   1
ENDBRANCH   8   6
TORSDOF 7
