REMARK  Name = 45361432
REMARK  13 active torsions:
REMARK  status: ('A' for Active; 'I' for Inactive)
REMARK    1  A    between atoms: O_1  and  C_10
REMARK    2  A    between atoms: N_4  and  C_14
REMARK    3  A    between atoms: N_5  and  C_23
REMARK    4  A    between atoms: C_7  and  C_17
REMARK    5  A    between atoms: C_9  and  C_19
REMARK    6  A    between atoms: C_12  and  C_18
REMARK    7  A    between atoms: C_18  and  C_20
REMARK    8  A    between atoms: C_18  and  C_21
REMARK    9  A    between atoms: C_22  and  C_24
REMARK   10  A    between atoms: C_23  and  C_25
REMARK   11  A    between atoms: C_23  and  C_26
REMARK   12  A    between atoms: C_23  and  C_27
REMARK   13  A    between atoms: C_32  and  C_33
REMARK                            x       y       z     vdW  Elec       q    Type
REMARK                         _______ _______ _______ _____ _____    ______ ____
ROOT
ATOM      7  C   UNL     1       1.010   1.544   0.805  0.00  0.00    -0.027 C 
ATOM      8  C   UNL     1       0.839   0.205   0.013  0.00  0.00    +0.028 C 
ATOM      9  C   UNL     1      -0.632  -0.332   0.136  0.00  0.00    +0.012 C 
ATOM     10  C   UNL     1       1.956  -0.814   0.380  0.00  0.00    +0.122 C 
ATOM     11  C   UNL     1       2.433   2.104   0.571  0.00  0.00    +0.007 C 
ATOM     12  C   UNL     1       3.375  -0.215   0.244  0.00  0.00    +0.029 C 
ATOM     13  C   UNL     1       0.001   2.583   0.263  0.00  0.00    +0.009 C 
ATOM     14  C   UNL     1      -1.642   0.749  -0.342  0.00  0.00    +0.076 C 
ATOM     15  C   UNL     1       3.530   1.123   0.966  0.00  0.00    +0.007 C 
ATOM     16  C   UNL     1      -1.443   2.106   0.332  0.00  0.00    +0.023 C 
ATOM     17  C   UNL     1       0.790   1.366   2.329  0.00  0.00    +0.011 C 
ATOM     19  C   UNL     1      -0.879  -1.635  -0.644  0.00  0.00    +0.010 C 
ENDROOT
BRANCH  14   4
ATOM      3  O   UNL     1      -3.909   1.437  -1.964  0.00  0.00    -0.270 OA
ATOM      4  N   UNL     1      -3.013   0.331  -0.134  0.00  0.00    -0.308 N 
ATOM     22  C   UNL     1      -4.041   0.718  -0.977  0.00  0.00    +0.244 C 
ATOM     34  H   UNL     1      -3.214  -0.168   0.727  0.00  0.00    +0.149 HD
BRANCH  22  24
ATOM     24  C   UNL     1      -5.394   0.227  -0.612  0.00  0.00    +0.037 A 
ATOM     28  C   UNL     1      -6.525   0.950  -0.992  0.00  0.00    +0.014 A 
ATOM     29  C   UNL     1      -5.535  -0.959   0.110  0.00  0.00    +0.014 A 
ATOM     30  C   UNL     1      -7.796   0.488  -0.650  0.00  0.00    +0.019 A 
ATOM     31  C   UNL     1      -6.805  -1.421   0.452  0.00  0.00    +0.019 A 
ATOM     32  C   UNL     1      -7.936  -0.698   0.071  0.00  0.00    +0.052 A 
BRANCH  32  33
ATOM      6  N   UNL     1     -10.296  -1.555   0.706  0.00  0.00    -0.191 NA
ATOM     33  C   UNL     1      -9.238  -1.171   0.422  0.00  0.00    +0.099 C 
ENDBRANCH  32  33
ENDBRANCH  22  24
ENDBRANCH  14   4
BRANCH  10   1
ATOM      1  O   UNL     1       1.896  -1.929  -0.510  0.00  0.00    -0.391 OA
ATOM     35  H   UNL     1       2.026  -1.599  -1.416  0.00  0.00    +0.210 HD
ENDBRANCH  10   1
BRANCH  12  18
ATOM     18  C   UNL     1       4.453  -1.189   0.734  0.00  0.00    +0.077 C 
ATOM     20  C   UNL     1       4.216  -1.540   2.199  0.00  0.00    +0.017 C 
BRANCH  18  21
ATOM      2  O   UNL     1       6.407   0.086   1.385  0.00  0.00    -0.275 OA
ATOM      5  N   UNL     1       6.359  -0.868  -0.728  0.00  0.00    -0.310 N 
ATOM     21  C   UNL     1       5.837  -0.582   0.525  0.00  0.00    +0.217 C 
ATOM     36  H   UNL     1       5.804  -1.418  -1.378  0.00  0.00    +0.149 HD
BRANCH   5  23
ATOM     23  C   UNL     1       7.656  -0.400  -1.160  0.00  0.00    +0.026 C 
ATOM     25  C   UNL     1       7.923  -0.893  -2.587  0.00  0.00    +0.031 C 
ATOM     26  C   UNL     1       7.671   1.131  -1.128  0.00  0.00    +0.031 C 
ATOM     27  C   UNL     1       8.732  -0.950  -0.217  0.00  0.00    +0.031 C 
ENDBRANCH   5  23
ENDBRANCH  18  21
ENDBRANCH  12  18
TORSDOF 7
