REMARK  Name = 11942333
REMARK  6 active torsions:
REMARK  status: ('A' for Active; 'I' for Inactive)
REMARK    1  A    between atoms: N_4  and  C_15
REMARK    2  A    between atoms: N_5  and  C_18
REMARK    3  A    between atoms: C_9  and  C_15
REMARK    4  A    between atoms: C_10  and  C_16
REMARK    5  A    between atoms: C_18  and  C_20
REMARK    6  A    between atoms: C_19  and  C_21
REMARK                            x       y       z     vdW  Elec       q    Type
REMARK                         _______ _______ _______ _____ _____    ______ ____
ROOT
ATOM      3  N   UNL     1      -3.405   2.664   0.087  0.00  0.00    -0.297 NA
ATOM      8  C   UNL     1      -3.072   0.472  -1.275  0.00  0.00    +0.005 C 
ATOM      9  C   UNL     1      -1.964   2.481  -0.234  0.00  0.00    +0.078 C 
ATOM     10  C   UNL     1      -3.869   0.210   0.017  0.00  0.00    +0.092 C 
ATOM     11  C   UNL     1      -1.718   1.113  -0.908  0.00  0.00    +0.025 C 
ATOM     12  C   UNL     1      -3.867   1.511  -2.085  0.00  0.00    +0.020 C 
ATOM     13  C   UNL     1      -3.913   1.500   0.855  0.00  0.00    +0.097 C 
ATOM     14  C   UNL     1      -4.152   2.735  -1.194  0.00  0.00    +0.085 C 
ENDROOT
BRANCH  10  16
ATOM      2  O   UNL     1      -2.896  -0.804   1.947  0.00  0.00    -0.275 OA
ATOM      5  N   UNL     1      -3.237  -2.100   0.043  0.00  0.00    -0.311 N 
ATOM     16  C   UNL     1      -3.288  -0.936   0.790  0.00  0.00    +0.218 C 
ATOM     32  H   UNL     1      -3.630  -2.116  -0.893  0.00  0.00    +0.149 HD
BRANCH   5  18
ATOM     18  C   UNL     1      -2.699  -3.342   0.550  0.00  0.00    +0.139 C 
BRANCH  18  20
ATOM      1  F   UNL     1       2.808  -3.815  -0.465  0.00  0.00    -0.205 F 
ATOM     20  C   UNL     1      -1.228  -3.469   0.279  0.00  0.00    -0.030 A 
ATOM     22  C   UNL     1      -0.795  -4.062  -0.901  0.00  0.00    +0.008 A 
ATOM     23  C   UNL     1      -0.314  -2.992   1.211  0.00  0.00    +0.008 A 
ATOM     26  C   UNL     1       0.572  -4.179  -1.153  0.00  0.00    +0.038 A 
ATOM     27  C   UNL     1       1.053  -3.109   0.959  0.00  0.00    +0.038 A 
ATOM     28  C   UNL     1       1.496  -3.703  -0.223  0.00  0.00    +0.123 A 
ENDBRANCH  18  20
ENDBRANCH   5  18
ENDBRANCH  10  16
BRANCH   9  15
ATOM     15  C   UNL     1      -1.065   2.683   0.987  0.00  0.00    +0.164 C 
BRANCH  15   4
ATOM      4  N   UNL     1       0.344   2.644   0.632  0.00  0.00    -0.250 N 
ATOM      6  N   UNL     1       0.982   3.768   0.289  0.00  0.00    -0.065 NA
ATOM      7  N   UNL     1       2.238   3.430   0.021  0.00  0.00    -0.130 NA
ATOM     17  C   UNL     1       1.152   1.559   0.599  0.00  0.00    +0.138 A 
ATOM     19  C   UNL     1       2.359   2.081   0.206  0.00  0.00    +0.113 A 
BRANCH  19  21
ATOM     21  C   UNL     1       3.563   1.339   0.015  0.00  0.00    +0.004 A 
ATOM     24  C   UNL     1       3.512  -0.000  -0.389  0.00  0.00    +0.010 A 
ATOM     25  C   UNL     1       4.807   1.943   0.231  0.00  0.00    +0.010 A 
ATOM     29  C   UNL     1       4.689  -0.725  -0.575  0.00  0.00    +0.001 A 
ATOM     30  C   UNL     1       5.984   1.218   0.044  0.00  0.00    +0.001 A 
ATOM     31  C   UNL     1       5.925  -0.116  -0.359  0.00  0.00    +0.000 A 
ENDBRANCH  19  21
ENDBRANCH  15   4
ENDBRANCH   9  15
TORSDOF 6
