REMARK  Name = 86769019
REMARK  3 active torsions:
REMARK  status: ('A' for Active; 'I' for Inactive)
REMARK    1  A    between atoms: N_2  and  C_8
REMARK    2  A    between atoms: N_4  and  C_15
REMARK    3  A    between atoms: C_5  and  C_8
REMARK                            x       y       z     vdW  Elec       q    Type
REMARK                         _______ _______ _______ _____ _____    ______ ____
ROOT
ATOM      1  O   UNL     1       3.569  -1.449  -0.032  0.00  0.00    -0.252 OA
ATOM      2  N   UNL     1      -1.397  -0.398  -0.075  0.00  0.00    -0.299 NA
ATOM      3  N   UNL     1       1.387  -0.628   0.257  0.00  0.00    -0.278 N 
ATOM      4  N   UNL     1       3.057   0.853   0.014  0.00  0.00    -0.287 N 
ATOM      9  C   UNL     1       0.760   0.662   0.456  0.00  0.00    +0.109 C 
ATOM     10  C   UNL     1      -0.526   0.760  -0.362  0.00  0.00    +0.108 C 
ATOM     11  C   UNL     1      -0.718  -1.665  -0.416  0.00  0.00    +0.103 C 
ATOM     12  C   UNL     1       0.586  -1.830   0.369  0.00  0.00    +0.125 C 
ATOM     13  C   UNL     1       1.849   1.658   0.063  0.00  0.00    +0.132 C 
ATOM     14  C   UNL     1       2.772  -0.526   0.071  0.00  0.00    +0.305 C 
ATOM     15  C   UNL     1       4.359   1.438  -0.221  0.00  0.00    +0.133 C 
ENDROOT
BRANCH   2   8
ATOM      8  C   UNL     1      -2.657  -0.283  -0.807  0.00  0.00    +0.088 C 
BRANCH   8   5
ATOM      5  C   UNL     1      -3.588   0.676  -0.139  0.00  0.00    +0.003 C 
ATOM      6  C   UNL     1      -5.076   0.484  -0.244  0.00  0.00    +0.005 C 
ATOM      7  C   UNL     1      -4.378   0.248   1.067  0.00  0.00    +0.005 C 
ENDBRANCH   8   5
ENDBRANCH   2   8
TORSDOF 2
