REMARK  Name = 25313352
REMARK  8 active torsions:
REMARK  status: ('A' for Active; 'I' for Inactive)
REMARK    1  A    between atoms: O_3  and  C_21
REMARK    2  A    between atoms: N_6  and  C_14
REMARK    3  A    between atoms: N_7  and  C_22
REMARK    4  A    between atoms: C_8  and  C_11
REMARK    5  A    between atoms: C_9  and  C_15
REMARK    6  A    between atoms: C_11  and  C_14
REMARK    7  A    between atoms: C_15  and  C_21
REMARK    8  A    between atoms: C_20  and  C_23
REMARK                            x       y       z     vdW  Elec       q    Type
REMARK                         _______ _______ _______ _____ _____    ______ ____
ROOT
ATOM     11  C   UNL     1      -1.865   0.377  -0.339  0.00  0.00    +0.020 C 
ENDROOT
BRANCH  11   8
ATOM      2  O   UNL     1      -3.024  -3.971   1.220  0.00  0.00    -0.276 OA
ATOM      5  N   UNL     1      -3.588  -2.187  -0.158  0.00  0.00    -0.301 N 
ATOM      8  C   UNL     1      -3.226   0.123  -0.998  0.00  0.00    +0.011 C 
ATOM      9  C   UNL     1      -4.435   0.583  -0.144  0.00  0.00    +0.006 C 
ATOM     10  C   UNL     1      -3.377  -1.366  -1.357  0.00  0.00    +0.111 C 
ATOM     12  C   UNL     1      -4.649  -0.333   1.073  0.00  0.00    +0.023 C 
ATOM     13  C   UNL     1      -4.741  -1.798   0.654  0.00  0.00    +0.108 C 
ATOM     20  C   UNL     1      -2.810  -3.280   0.220  0.00  0.00    +0.212 C 
ATOM     23  C   UNL     1      -1.638  -3.615  -0.668  0.00  0.00    +0.109 C 
BRANCH   9  15
ATOM     15  C   UNL     1      -4.340   2.045   0.293  0.00  0.00    +0.124 C 
BRANCH  15  21
ATOM      4  O   UNL     1      -6.762   2.027   0.569  0.00  0.00    -0.251 OA
ATOM     21  C   UNL     1      -5.692   2.615   0.623  0.00  0.00    +0.305 C 
BRANCH  21   3
ATOM      3  O   UNL     1      -5.562   3.913   1.000  0.00  0.00    -0.481 OA
ATOM     29  H   UNL     1      -6.427   4.317   1.223  0.00  0.00    +0.295 HD
ENDBRANCH  21   3
ENDBRANCH  15  21
ENDBRANCH   9  15
ENDBRANCH  11   8
BRANCH  11  14
ATOM     14  C   UNL     1      -0.771   0.513  -1.389  0.00  0.00    +0.085 C 
BRANCH  14   6
ATOM      6  N   UNL     1       0.519   0.737  -0.736  0.00  0.00    -0.299 NA
ATOM      7  N   UNL     1       3.324   0.396  -0.318  0.00  0.00    -0.327 N 
ATOM     16  C   UNL     1       1.486   1.301  -1.686  0.00  0.00    +0.103 C 
ATOM     17  C   UNL     1       1.039  -0.518  -0.180  0.00  0.00    +0.103 C 
ATOM     18  C   UNL     1       2.823   1.593  -1.001  0.00  0.00    +0.120 C 
ATOM     19  C   UNL     1       2.361  -0.286   0.555  0.00  0.00    +0.120 C 
BRANCH   7  22
ATOM      1  F   UNL     1       8.696  -0.010   0.920  0.00  0.00    -0.205 F 
ATOM     22  C   UNL     1       4.683   0.293  -0.005  0.00  0.00    +0.030 A 
ATOM     24  C   UNL     1       5.427   1.443   0.258  0.00  0.00    +0.026 A 
ATOM     25  C   UNL     1       5.295  -0.960   0.045  0.00  0.00    +0.026 A 
ATOM     26  C   UNL     1       6.782   1.341   0.571  0.00  0.00    +0.040 A 
ATOM     27  C   UNL     1       6.651  -1.062   0.358  0.00  0.00    +0.040 A 
ATOM     28  C   UNL     1       7.394   0.088   0.621  0.00  0.00    +0.124 A 
ENDBRANCH   7  22
ENDBRANCH  14   6
ENDBRANCH  11  14
TORSDOF 7
