REMARK  Name = 38027267
REMARK  12 active torsions:
REMARK  status: ('A' for Active; 'I' for Inactive)
REMARK    1  A    between atoms: N_3  and  C_15
REMARK    2  A    between atoms: N_4  and  C_14
REMARK    3  A    between atoms: N_5  and  C_25
REMARK    4  A    between atoms: C_6  and  C_10
REMARK    5  A    between atoms: C_7  and  C_14
REMARK    6  A    between atoms: C_9  and  C_13
REMARK    7  A    between atoms: C_10  and  C_16
REMARK    8  A    between atoms: C_10  and  C_17
REMARK    9  A    between atoms: C_11  and  C_20
REMARK   10  A    between atoms: C_13  and  C_21
REMARK   11  A    between atoms: C_25  and  C_26
REMARK   12  A    between atoms: C_25  and  C_27
REMARK                            x       y       z     vdW  Elec       q    Type
REMARK                         _______ _______ _______ _____ _____    ______ ____
ROOT
ATOM      6  C   UNL     1       1.589   1.005  -0.939  0.00  0.00    +0.000 C 
ATOM      7  C   UNL     1       2.990   0.713  -0.345  0.00  0.00    +0.032 C 
ATOM      8  C   UNL     1       1.049   2.341  -0.408  0.00  0.00    +0.012 C 
ATOM      9  C   UNL     1       0.940   2.357   1.128  0.00  0.00    +0.023 C 
ATOM     11  C   UNL     1       2.197   1.825   1.787  0.00  0.00    -0.073 C 
ATOM     12  C   UNL     1       3.108   1.104   1.109  0.00  0.00    -0.022 C 
ATOM     20  C   UNL     1       2.405   2.180   3.233  0.00  0.00    +0.039 C 
ENDROOT
BRANCH   6  10
ATOM     10  C   UNL     1       1.614   1.027  -2.471  0.00  0.00    -0.013 C 
ATOM     16  C   UNL     1       0.230   0.714  -3.031  0.00  0.00    +0.007 C 
ATOM     17  C   UNL     1       2.109   2.379  -2.975  0.00  0.00    +0.007 C 
ENDBRANCH   6  10
BRANCH   9  13
ATOM     13  C   UNL     1      -0.296   1.586   1.602  0.00  0.00    +0.103 C 
BRANCH  13  21
ATOM      1  O   UNL     1      -1.734   3.246   0.587  0.00  0.00    -0.276 OA
ATOM      3  N   UNL     1      -2.488   1.059   0.806  0.00  0.00    -0.312 N 
ATOM     21  C   UNL     1      -1.564   2.083   0.944  0.00  0.00    +0.214 C 
ATOM     28  H   UNL     1      -2.233   0.120   1.098  0.00  0.00    +0.149 HD
BRANCH   3  15
ATOM     15  C   UNL     1      -3.789   1.246   0.212  0.00  0.00    +0.073 C 
ATOM     18  C   UNL     1      -4.803   0.247   0.753  0.00  0.00    +0.022 C 
ATOM     19  C   UNL     1      -3.781   0.945  -1.281  0.00  0.00    +0.022 C 
ATOM     22  C   UNL     1      -4.559  -1.024  -0.056  0.00  0.00    +0.002 C 
ATOM     23  C   UNL     1      -3.941  -0.572  -1.379  0.00  0.00    +0.002 C 
ENDBRANCH   3  15
ENDBRANCH  13  21
ENDBRANCH   9  13
BRANCH   7  14
ATOM     14  C   UNL     1       3.363  -0.765  -0.509  0.00  0.00    +0.113 C 
BRANCH  14   4
ATOM      2  O   UNL     1       1.626  -2.854  -1.482  0.00  0.00    -0.253 OA
ATOM      4  N   UNL     1       2.497  -1.596   0.267  0.00  0.00    -0.299 N 
ATOM      5  N   UNL     1       0.940  -3.251   0.699  0.00  0.00    -0.297 N 
ATOM     24  C   UNL     1       1.680  -2.593  -0.281  0.00  0.00    +0.300 C 
ATOM     29  H   UNL     1       2.519  -1.509   1.279  0.00  0.00    +0.150 HD
ATOM     30  H   UNL     1       0.994  -2.911   1.654  0.00  0.00    +0.150 HD
BRANCH   5  25
ATOM     25  C   UNL     1       0.019  -4.322   0.397  0.00  0.00    +0.068 C 
ATOM     26  C   UNL     1      -1.363  -3.760   0.087  0.00  0.00    +0.027 C 
ATOM     27  C   UNL     1      -0.036  -5.320   1.546  0.00  0.00    +0.027 C 
ENDBRANCH   5  25
ENDBRANCH  14   4
ENDBRANCH   7  14
TORSDOF 7
