REMARK  Name = 75536546
REMARK  7 active torsions:
REMARK  status: ('A' for Active; 'I' for Inactive)
REMARK    1  A    between atoms: O_2  and  C_11
REMARK    2  A    between atoms: N_4  and  C_13
REMARK    3  A    between atoms: N_5  and  C_12
REMARK    4  A    between atoms: N_5  and  C_16
REMARK    5  A    between atoms: C_7  and  C_15
REMARK    6  A    between atoms: C_10  and  C_13
REMARK    7  A    between atoms: C_16  and  C_17
REMARK                            x       y       z     vdW  Elec       q    Type
REMARK                         _______ _______ _______ _____ _____    ______ ____
ROOT
ATOM      1  O   UNL     1       1.412  -1.093   0.183  0.00  0.00    -0.371 OA
ATOM     10  C   UNL     1       1.693   0.317   0.204  0.00  0.00    +0.165 C 
ATOM     11  C   UNL     1       0.359   1.007   0.456  0.00  0.00    +0.164 C 
ATOM     12  C   UNL     1      -0.590   0.092  -0.295  0.00  0.00    +0.111 C 
ATOM     14  C   UNL     1      -0.006  -1.275   0.024  0.00  0.00    +0.181 C 
ENDROOT
BRANCH  11   2
ATOM      2  O   UNL     1       0.348   2.331  -0.041  0.00  0.00    -0.388 OA
ATOM     24  H   UNL     1       0.559   2.303  -0.990  0.00  0.00    +0.210 HD
ENDBRANCH  11   2
BRANCH  12   5
ATOM      5  N   UNL     1      -1.978   0.224   0.119  0.00  0.00    -0.305 NA
ATOM     23  H   UNL     1      -2.212   1.215   0.185  0.00  0.00    +0.123 HD
BRANCH   5  16
ATOM     16  C   UNL     1      -2.875  -0.409  -0.841  0.00  0.00    +0.118 C 
BRANCH  16  17
ATOM      6  N   UNL     1      -6.470   0.767  -0.693  0.00  0.00    -0.263 NA
ATOM     17  C   UNL     1      -4.316  -0.296  -0.420  0.00  0.00    -0.015 A 
ATOM     18  C   UNL     1      -4.833  -1.103   0.587  0.00  0.00    +0.008 A 
ATOM     19  C   UNL     1      -5.168   0.615  -1.024  0.00  0.00    +0.115 A 
ATOM     20  C   UNL     1      -6.168  -0.975   0.955  0.00  0.00    +0.020 A 
ATOM     21  C   UNL     1      -6.937  -0.034   0.290  0.00  0.00    +0.111 A 
ENDBRANCH  16  17
ENDBRANCH   5  16
ENDBRANCH  12   5
BRANCH  10  13
ATOM     13  C   UNL     1       2.734   0.617   1.268  0.00  0.00    +0.138 C 
BRANCH  13   4
ATOM      3  O   UNL     1       4.981   1.605  -0.292  0.00  0.00    -0.276 OA
ATOM      4  N   UNL     1       3.970  -0.057   0.992  0.00  0.00    -0.313 N 
ATOM     15  C   UNL     1       4.992   0.497   0.233  0.00  0.00    +0.216 C 
ATOM     22  H   UNL     1       4.096  -0.988   1.378  0.00  0.00    +0.149 HD
BRANCH  15   7
ATOM      7  C   UNL     1       6.189  -0.380   0.076  0.00  0.00    +0.075 C 
ATOM      8  C   UNL     1       6.665  -0.695  -1.303  0.00  0.00    +0.013 C 
ATOM      9  C   UNL     1       5.998  -1.754  -0.476  0.00  0.00    +0.013 C 
ENDBRANCH  15   7
ENDBRANCH  13   4
ENDBRANCH  10  13
TORSDOF 7
