REMARK  Name = 45783324
REMARK  6 active torsions:
REMARK  status: ('A' for Active; 'I' for Inactive)
REMARK    1  A    between atoms: N_3  and  C_13
REMARK    2  A    between atoms: C_9  and  C_19
REMARK    3  A    between atoms: C_13  and  C_20
REMARK    4  A    between atoms: C_14  and  C_22
REMARK    5  A    between atoms: C_20  and  C_24
REMARK    6  A    between atoms: C_23  and  C_26
REMARK                            x       y       z     vdW  Elec       q    Type
REMARK                         _______ _______ _______ _____ _____    ______ ____
ROOT
ATOM      4  N   UNL     1       3.065  -0.285  -0.158  0.00  0.00    -0.315 N 
ATOM      7  N   UNL     1       2.627  -2.487   0.596  0.00  0.00    -0.240 NA
ATOM     14  C   UNL     1       5.000   1.792  -0.768  0.00  0.00    +0.078 C 
ATOM     15  C   UNL     1       3.594   2.119  -0.270  0.00  0.00    +0.031 C 
ATOM     16  C   UNL     1       5.045   0.421  -1.440  0.00  0.00    +0.031 C 
ATOM     17  C   UNL     1       2.960   0.994   0.549  0.00  0.00    +0.107 C 
ATOM     18  C   UNL     1       4.412  -0.679  -0.588  0.00  0.00    +0.107 C 
ATOM     21  C   UNL     1       2.155  -1.309   0.129  0.00  0.00    +0.122 A 
ATOM     25  C   UNL     1       0.812  -1.044  -0.089  0.00  0.00    +0.055 A 
ATOM     26  C   UNL     1      -0.104  -2.052   0.190  0.00  0.00    +0.027 A 
ATOM     27  C   UNL     1       0.344  -3.277   0.672  0.00  0.00    +0.031 A 
ATOM     28  C   UNL     1       1.707  -3.443   0.856  0.00  0.00    +0.113 A 
ENDROOT
BRANCH  26  23
ATOM      1  O   UNL     1      -3.623  -2.114  -0.106  0.00  0.00    -0.336 OA
ATOM      5  N   UNL     1      -1.981  -0.638  -0.488  0.00  0.00    -0.190 NA
ATOM      6  N   UNL     1      -2.429  -2.762   0.235  0.00  0.00    -0.056 NA
ATOM     19  C   UNL     1      -3.269  -0.870  -0.522  0.00  0.00    +0.245 A 
ATOM     23  C   UNL     1      -1.507  -1.828  -0.017  0.00  0.00    +0.202 A 
BRANCH  19   9
ATOM      3  N   UNL     1      -4.431   1.305  -0.184  0.00  0.00    -0.291 NA
ATOM      9  C   UNL     1      -4.397   0.044  -0.952  0.00  0.00    +0.146 C 
ATOM     10  C   UNL     1      -4.278   0.485  -2.423  0.00  0.00    +0.030 C 
ATOM     11  C   UNL     1      -5.005   2.315  -1.074  0.00  0.00    +0.085 C 
ATOM     12  C   UNL     1      -4.314   2.006  -2.386  0.00  0.00    +0.017 C 
BRANCH   3  13
ATOM     13  C   UNL     1      -5.168   1.195   1.068  0.00  0.00    +0.085 C 
BRANCH  13  20
ATOM     20  C   UNL     1      -4.734   2.292   2.036  0.00  0.00    +0.012 C 
ATOM     24  C   UNL     1      -5.473   2.187   3.361  0.00  0.00    +0.005 C 
ENDBRANCH  13  20
ENDBRANCH   3  13
ENDBRANCH  19   9
ENDBRANCH  26  23
BRANCH  14  22
ATOM      2  O   UNL     1       5.686   2.132   1.498  0.00  0.00    -0.276 OA
ATOM      8  N   UNL     1       7.300   1.635  -0.066  0.00  0.00    -0.329 N 
ATOM     22  C   UNL     1       6.007   1.868   0.342  0.00  0.00    +0.214 C 
ATOM     29  H   UNL     1       8.064   1.659   0.601  0.00  0.00    +0.145 HD
ATOM     30  H   UNL     1       7.554   1.480  -1.035  0.00  0.00    +0.145 HD
ENDBRANCH  14  22
TORSDOF 5
