REMARK  Name = 71694355
REMARK  6 active torsions:
REMARK  status: ('A' for Active; 'I' for Inactive)
REMARK    1  A    between atoms: O_2  and  C_22
REMARK    2  A    between atoms: O_2  and  C_29
REMARK    3  A    between atoms: N_8  and  C_31
REMARK    4  A    between atoms: C_10  and  C_13
REMARK    5  A    between atoms: C_13  and  C_19
REMARK    6  A    between atoms: C_16  and  C_22
REMARK                            x       y       z     vdW  Elec       q    Type
REMARK                         _______ _______ _______ _____ _____    ______ ____
ROOT
ATOM      3  O   UNL     1      -0.226   3.917  -0.550  0.00  0.00    -0.274 OA
ATOM      4  O   UNL     1      -1.574  -0.933   1.126  0.00  0.00    -0.488 OA
ATOM      6  N   UNL     1       1.089   2.489   0.709  0.00  0.00    -0.300 N 
ATOM      7  N   UNL     1      -1.951   1.933   1.453  0.00  0.00    -0.304 NA
ATOM     10  C   UNL     1       2.424  -0.018   0.055  0.00  0.00    +0.008 C 
ATOM     11  C   UNL     1       1.265   0.090   1.089  0.00  0.00    +0.032 C 
ATOM     12  C   UNL     1       2.318   1.153  -0.951  0.00  0.00    +0.023 C 
ATOM     14  C   UNL     1       1.258   1.478   1.759  0.00  0.00    +0.115 C 
ATOM     15  C   UNL     1       2.187   2.513  -0.261  0.00  0.00    +0.108 C 
ATOM     21  C   UNL     1       1.249  -1.012   2.115  0.00  0.00    -0.023 C 
ATOM     23  C   UNL     1      -0.074   3.216   0.457  0.00  0.00    +0.229 C 
ATOM     24  C   UNL     1       0.283  -1.910   2.371  0.00  0.00    +0.010 C 
ATOM     25  C   UNL     1      -1.193   3.180   1.482  0.00  0.00    +0.178 C 
ATOM     26  C   UNL     1      -1.095  -2.098   1.789  0.00  0.00    +0.256 C 
ATOM     27  C   UNL     1      -2.480   1.559   0.142  0.00  0.00    +0.120 C 
ATOM     28  C   UNL     1      -3.361   0.324   0.220  0.00  0.00    +0.010 A 
ATOM     30  C   UNL     1      -2.880  -0.915   0.704  0.00  0.00    +0.125 A 
ATOM     31  C   UNL     1      -5.527  -0.702  -0.196  0.00  0.00    +0.030 A 
ATOM     34  C   UNL     1      -4.689   0.412  -0.228  0.00  0.00    +0.031 A 
ATOM     37  C   UNL     1      -3.729  -2.027   0.725  0.00  0.00    +0.048 A 
ATOM     38  C   UNL     1      -5.047  -1.918   0.278  0.00  0.00    +0.027 A 
ATOM     39  H   UNL     1      -2.720   2.007   2.120  0.00  0.00    +0.123 HD
ENDROOT
BRANCH  31   8
ATOM      8  N   UNL     1      -6.848  -0.597  -0.645  0.00  0.00    -0.327 N 
ATOM      9  N   UNL     1      -9.495  -0.574  -1.715  0.00  0.00    -0.313 NA
ATOM     32  C   UNL     1      -7.075  -0.192  -2.039  0.00  0.00    +0.120 C 
ATOM     33  C   UNL     1      -7.888  -1.445  -0.052  0.00  0.00    +0.120 C 
ATOM     35  C   UNL     1      -8.489   0.363  -2.211  0.00  0.00    +0.100 C 
ATOM     36  C   UNL     1      -9.273  -0.846  -0.296  0.00  0.00    +0.100 C 
ATOM     40  H   UNL     1     -10.422  -0.169  -1.838  0.00  0.00    +0.122 HD
ENDBRANCH  31   8
BRANCH  10  13
ATOM     13  C   UNL     1       3.828  -0.073   0.671  0.00  0.00    +0.100 C 
BRANCH  13  19
ATOM      1  O   UNL     1       4.412  -1.019  -1.434  0.00  0.00    -0.276 OA
ATOM      5  N   UNL     1       6.112  -0.758   0.115  0.00  0.00    -0.296 N 
ATOM     16  C   UNL     1       7.163  -1.394  -0.683  0.00  0.00    +0.102 C 
ATOM     17  C   UNL     1       8.277  -1.662   0.331  0.00  0.00    +0.026 C 
ATOM     18  C   UNL     1       6.615  -0.349   1.423  0.00  0.00    +0.108 C 
ATOM     19  C   UNL     1       4.800  -0.662  -0.320  0.00  0.00    +0.216 C 
ATOM     20  C   UNL     1       8.123  -0.524   1.333  0.00  0.00    +0.021 C 
BRANCH  16  22
ATOM     22  C   UNL     1       7.625  -0.487  -1.822  0.00  0.00    +0.181 C 
BRANCH  22   2
ATOM      2  O   UNL     1       6.750  -0.664  -2.920  0.00  0.00    -0.381 OA
ATOM     29  C   UNL     1       7.119   0.153  -4.026  0.00  0.00    +0.194 C 
ENDBRANCH  22   2
ENDBRANCH  16  22
ENDBRANCH  13  19
ENDBRANCH  10  13
TORSDOF 5
