REMARK  Name = 26743330
REMARK  10 active torsions:
REMARK  status: ('A' for Active; 'I' for Inactive)
REMARK    1  A    between atoms: O_2  and  C_14
REMARK    2  A    between atoms: C_6  and  C_10
REMARK    3  A    between atoms: C_7  and  C_12
REMARK    4  A    between atoms: C_10  and  C_13
REMARK    5  A    between atoms: C_12  and  C_14
REMARK    6  A    between atoms: C_16  and  C_19
REMARK    7  A    between atoms: C_17  and  C_18
REMARK    8  A    between atoms: C_17  and  C_20
REMARK    9  A    between atoms: C_17  and  C_21
REMARK   10  A    between atoms: C_17  and  C_22
REMARK                            x       y       z     vdW  Elec       q    Type
REMARK                         _______ _______ _______ _____ _____    ______ ____
ROOT
ATOM      1  O   UNL     1      -0.792   1.513   1.110  0.00  0.00    -0.354 OA
ATOM      5  N   UNL     1       0.588   1.675   1.061  0.00  0.00    -0.083 NA
ATOM     13  C   UNL     1       0.985   0.936   0.021  0.00  0.00    +0.085 A 
ATOM     15  C   UNL     1      -0.088   0.292  -0.618  0.00  0.00    +0.076 A 
ATOM     16  C   UNL     1      -1.182   0.688   0.106  0.00  0.00    +0.167 A 
ENDROOT
BRANCH  16  19
ATOM     18  C   UNL     1      -5.328  -0.085  -0.120  0.00  0.00    -0.042 A 
ATOM     19  C   UNL     1      -2.590   0.426   0.029  0.00  0.00    +0.020 A 
ATOM     23  C   UNL     1      -4.459  -0.666  -1.044  0.00  0.00    +0.005 A 
ATOM     24  C   UNL     1      -4.828   0.751   0.878  0.00  0.00    +0.005 A 
ATOM     25  C   UNL     1      -3.090  -0.410  -0.969  0.00  0.00    +0.012 A 
ATOM     26  C   UNL     1      -3.459   1.006   0.953  0.00  0.00    +0.012 A 
BRANCH  18  17
ATOM     17  C   UNL     1      -6.793  -0.358  -0.200  0.00  0.00    -0.013 C 
ATOM     20  C   UNL     1      -7.093  -1.882  -0.049  0.00  0.00    +0.015 C 
ATOM     21  C   UNL     1      -7.380   0.103  -1.569  0.00  0.00    +0.015 C 
ATOM     22  C   UNL     1      -7.668   0.348   0.888  0.00  0.00    +0.015 C 
ENDBRANCH  18  17
ENDBRANCH  16  19
BRANCH  13  10
ATOM     10  C   UNL     1       2.442   0.872  -0.338  0.00  0.00    +0.064 C 
BRANCH  10   6
ATOM      4  N   UNL     1       3.415  -2.744   0.446  0.00  0.00    -0.316 NA
ATOM      6  C   UNL     1       3.145  -0.276   0.389  0.00  0.00    +0.012 C 
ATOM      7  C   UNL     1       4.675  -0.076   0.501  0.00  0.00    +0.005 C 
ATOM      8  C   UNL     1       5.295  -1.314   1.169  0.00  0.00    +0.019 C 
ATOM      9  C   UNL     1       2.794  -1.624  -0.263  0.00  0.00    +0.085 C 
ATOM     11  C   UNL     1       4.870  -2.617   0.493  0.00  0.00    +0.081 C 
ATOM     27  H   UNL     1       3.167  -3.616  -0.020  0.00  0.00    +0.122 HD
BRANCH   7  12
ATOM     12  C   UNL     1       5.364   0.226  -0.835  0.00  0.00    +0.124 C 
BRANCH  12  14
ATOM      3  O   UNL     1       7.214   1.176   0.435  0.00  0.00    -0.251 OA
ATOM     14  C   UNL     1       6.697   0.893  -0.635  0.00  0.00    +0.305 C 
BRANCH  14   2
ATOM      2  O   UNL     1       7.268   1.146  -1.840  0.00  0.00    -0.481 OA
ATOM     28  H   UNL     1       8.141   1.582  -1.746  0.00  0.00    +0.295 HD
ENDBRANCH  14   2
ENDBRANCH  12  14
ENDBRANCH   7  12
ENDBRANCH  10   6
ENDBRANCH  13  10
TORSDOF 7
