REMARK  Name = 7143738
REMARK  4 active torsions:
REMARK  status: ('A' for Active; 'I' for Inactive)
REMARK    1  A    between atoms: O_4  and  C_19
REMARK    2  A    between atoms: O_4  and  C_23
REMARK    3  A    between atoms: C_16  and  C_19
REMARK    4  A    between atoms: C_17  and  C_20
REMARK                            x       y       z     vdW  Elec       q    Type
REMARK                         _______ _______ _______ _____ _____    ______ ____
ROOT
ATOM      2  O   UNL     1      -2.831  -1.104   1.588  0.00  0.00    -0.267 OA
ATOM      3  O   UNL     1       2.487  -1.025   2.146  0.00  0.00    -0.272 OA
ATOM      5  N   UNL     1       1.871  -2.338   0.330  0.00  0.00    -0.298 N 
ATOM      6  N   UNL     1      -1.305  -2.082   0.120  0.00  0.00    -0.311 N 
ATOM      7  C   UNL     1       0.145  -4.088   0.777  0.00  0.00    +0.027 C 
ATOM      8  C   UNL     1       0.346  -3.119  -1.474  0.00  0.00    +0.054 C 
ATOM      9  C   UNL     1       0.113  -4.420  -0.710  0.00  0.00    +0.018 C 
ATOM     10  C   UNL     1       1.506  -3.484   1.166  0.00  0.00    +0.113 C 
ATOM     11  C   UNL     1      -1.018  -3.141   1.097  0.00  0.00    +0.130 C 
ATOM     12  C   UNL     1       1.735  -2.553  -1.118  0.00  0.00    +0.117 C 
ATOM     13  C   UNL     1      -0.725  -2.095  -1.150  0.00  0.00    +0.027 A 
ATOM     14  C   UNL     1      -1.093  -1.187  -2.068  0.00  0.00    +0.022 A 
ATOM     15  C   UNL     1      -2.272  -1.126   0.490  0.00  0.00    +0.259 A 
ATOM     16  C   UNL     1       2.381  -1.185   0.927  0.00  0.00    +0.253 C 
ATOM     17  C   UNL     1      -2.637  -0.099  -0.547  0.00  0.00    +0.047 A 
ATOM     18  C   UNL     1      -2.060  -0.172  -1.756  0.00  0.00    +0.015 A 
ENDROOT
BRANCH  17  20
ATOM      1 CL   UNL     1      -6.554   4.265   0.651  0.00  0.00    -0.084 Cl
ATOM     20  C   UNL     1      -3.601   0.975  -0.252  0.00  0.00    -0.013 A 
ATOM     21  C   UNL     1      -4.961   0.781  -0.500  0.00  0.00    +0.010 A 
ATOM     22  C   UNL     1      -3.156   2.188   0.275  0.00  0.00    +0.010 A 
ATOM     24  C   UNL     1      -5.873   1.798  -0.221  0.00  0.00    +0.020 A 
ATOM     25  C   UNL     1      -4.069   3.205   0.555  0.00  0.00    +0.020 A 
ATOM     26  C   UNL     1      -5.428   3.010   0.306  0.00  0.00    +0.041 A 
ENDBRANCH  17  20
BRANCH  16  19
ATOM     19  C   UNL     1       2.817  -0.080  -0.002  0.00  0.00    +0.324 C 
BRANCH  19   4
ATOM      4  O   UNL     1       3.256   0.980   0.812  0.00  0.00    -0.483 OA
BRANCH   4  23
ATOM     23  C   UNL     1       4.204   1.830   0.287  0.00  0.00    +0.121 A 
ATOM     27  C   UNL     1       4.238   2.050  -1.082  0.00  0.00    +0.045 A 
ATOM     28  C   UNL     1       5.107   2.452   1.136  0.00  0.00    +0.045 A 
ATOM     29  C   UNL     1       5.197   2.910  -1.615  0.00  0.00    +0.004 A 
ATOM     30  C   UNL     1       6.067   3.312   0.603  0.00  0.00    +0.004 A 
ATOM     31  C   UNL     1       6.112   3.542  -0.772  0.00  0.00    +0.000 A 
ENDBRANCH   4  23
ENDBRANCH  19   4
ENDBRANCH  16  19
TORSDOF 4
