REMARK  Name = 11941631
REMARK  5 active torsions:
REMARK  status: ('A' for Active; 'I' for Inactive)
REMARK    1  A    between atoms: O_2  and  C_10
REMARK    2  A    between atoms: O_2  and  C_18
REMARK    3  A    between atoms: O_5  and  C_22
REMARK    4  A    between atoms: O_5  and  C_27
REMARK    5  A    between atoms: C_19  and  C_21
REMARK                            x       y       z     vdW  Elec       q    Type
REMARK                         _______ _______ _______ _____ _____    ______ ____
ROOT
ATOM      3  O   UNL     1      -4.172   2.342  -0.049  0.00  0.00    -0.273 OA
ATOM      4  O   UNL     1      -1.041  -1.484   1.797  0.00  0.00    -0.270 OA
ATOM      6  N   UNL     1      -2.693  -0.562   0.490  0.00  0.00    -0.283 N 
ATOM      7  N   UNL     1      -1.899   2.247   0.099  0.00  0.00    -0.283 N 
ATOM      8  C   UNL     1      -3.132   0.247  -0.628  0.00  0.00    +0.165 C 
ATOM      9  C   UNL     1      -4.515  -0.301  -0.973  0.00  0.00    +0.065 C 
ATOM     10  C   UNL     1      -5.029  -0.844   0.359  0.00  0.00    +0.137 C 
ATOM     11  C   UNL     1      -3.770  -1.394   1.008  0.00  0.00    +0.140 C 
ATOM     12  C   UNL     1      -3.135   1.681  -0.136  0.00  0.00    +0.238 C 
ATOM     13  C   UNL     1      -1.397  -0.669   0.946  0.00  0.00    +0.249 C 
ATOM     14  C   UNL     1      -0.384   0.270   0.398  0.00  0.00    +0.059 A 
ATOM     15  C   UNL     1      -0.632   1.623   0.106  0.00  0.00    +0.046 A 
ATOM     16  C   UNL     1       0.934  -0.218   0.342  0.00  0.00    +0.023 A 
ATOM     17  C   UNL     1       0.457   2.467  -0.171  0.00  0.00    +0.024 A 
ATOM     19  C   UNL     1       1.996   0.625   0.018  0.00  0.00    -0.014 A 
ATOM     20  C   UNL     1       1.759   1.971  -0.226  0.00  0.00    +0.010 A 
ATOM     28  H   UNL     1      -1.896   3.259   0.197  0.00  0.00    +0.155 HD
ENDROOT
BRANCH  19  21
ATOM      1 CL   UNL     1       6.388  -0.408   2.507  0.00  0.00    -0.084 Cl
ATOM     21  C   UNL     1       3.345   0.103  -0.041  0.00  0.00    +0.025 A 
ATOM     22  C   UNL     1       3.871  -0.391  -1.236  0.00  0.00    +0.128 A 
ATOM     23  C   UNL     1       4.125   0.098   1.117  0.00  0.00    +0.032 A 
ATOM     24  C   UNL     1       5.173  -0.889  -1.273  0.00  0.00    +0.047 A 
ATOM     25  C   UNL     1       5.428  -0.400   1.079  0.00  0.00    +0.042 A 
ATOM     26  C   UNL     1       5.952  -0.894  -0.116  0.00  0.00    +0.023 A 
BRANCH  22   5
ATOM      5  O   UNL     1       3.132  -0.399  -2.382  0.00  0.00    -0.495 OA
ATOM     27  C   UNL     1       2.347  -1.561  -2.638  0.00  0.00    +0.277 C 
ENDBRANCH  22   5
ENDBRANCH  19  21
BRANCH  10   2
ATOM      2  O   UNL     1      -5.989  -1.863   0.166  0.00  0.00    -0.378 OA
ATOM     18  C   UNL     1      -7.119  -1.395  -0.564  0.00  0.00    +0.194 C 
ENDBRANCH  10   2
TORSDOF 3
