REMARK  Name = 11867215
REMARK  6 active torsions:
REMARK  status: ('A' for Active; 'I' for Inactive)
REMARK    1  A    between atoms: S_1  and  N_9
REMARK    2  A    between atoms: S_1  and  C_25
REMARK    3  A    between atoms: N_9  and  C_20
REMARK    4  A    between atoms: C_19  and  C_22
REMARK    5  A    between atoms: C_25  and  C_26
REMARK    6  A    between atoms: C_26  and  C_30
REMARK                            x       y       z     vdW  Elec       q    Type
REMARK                         _______ _______ _______ _____ _____    ______ ____
ROOT
ATOM      3  O   UNL     1      -2.369   1.757  -0.446  0.00  0.00    -0.266 OA
ATOM      4  O   UNL     1       1.901  -0.006  -2.792  0.00  0.00    -0.270 OA
ATOM      7  N   UNL     1       2.577   1.215  -0.914  0.00  0.00    -0.297 N 
ATOM      8  N   UNL     1      -0.199   2.012   0.399  0.00  0.00    -0.310 N 
ATOM     10  C   UNL     1       1.571   3.484  -0.722  0.00  0.00    +0.027 C 
ATOM     11  C   UNL     1       2.140   2.222   1.314  0.00  0.00    +0.054 C 
ATOM     12  C   UNL     1       2.150   3.613   0.683  0.00  0.00    +0.018 C 
ATOM     13  C   UNL     1       2.420   2.515  -1.566  0.00  0.00    +0.113 C 
ATOM     14  C   UNL     1       0.110   3.030  -0.615  0.00  0.00    +0.130 C 
ATOM     15  C   UNL     1       3.030   1.273   0.485  0.00  0.00    +0.117 C 
ATOM     16  C   UNL     1       0.731   1.665   1.389  0.00  0.00    +0.027 A 
ATOM     17  C   UNL     1       0.391   0.816   2.376  0.00  0.00    +0.024 A 
ATOM     18  C   UNL     1      -1.505   1.480   0.386  0.00  0.00    +0.274 A 
ATOM     19  C   UNL     1       2.280   0.049  -1.624  0.00  0.00    +0.247 C 
ATOM     20  C   UNL     1      -1.812   0.532   1.485  0.00  0.00    +0.112 A 
ATOM     21  C   UNL     1      -0.920   0.228   2.429  0.00  0.00    +0.031 A 
ENDROOT
BRANCH  19  22
ATOM      2  F   UNL     1       2.767  -4.838   1.047  0.00  0.00    -0.205 F 
ATOM     22  C   UNL     1       2.408  -1.233  -0.923  0.00  0.00    +0.037 A 
ATOM     23  C   UNL     1       1.316  -1.760  -0.239  0.00  0.00    +0.016 A 
ATOM     24  C   UNL     1       3.621  -1.917  -0.946  0.00  0.00    +0.016 A 
ATOM     27  C   UNL     1       1.437  -2.980   0.427  0.00  0.00    +0.039 A 
ATOM     28  C   UNL     1       3.743  -3.136  -0.279  0.00  0.00    +0.039 A 
ATOM     29  C   UNL     1       2.651  -3.668   0.407  0.00  0.00    +0.123 A 
ENDBRANCH  19  22
BRANCH  20   9
ATOM      9  N   UNL     1      -3.079  -0.073   1.565  0.00  0.00    -0.215 N 
ATOM     31  H   UNL     1      -3.315  -0.453   2.492  0.00  0.00    +0.173 HD
BRANCH   9   1
ATOM      1  S   UNL     1      -3.484  -1.099   0.264  0.00  0.00    +0.043 S 
ATOM      5  O   UNL     1      -2.535  -0.915  -0.817  0.00  0.00    -0.155 OA
ATOM      6  O   UNL     1      -3.795  -2.420   0.773  0.00  0.00    -0.155 OA
BRANCH   1  25
ATOM     25  C   UNL     1      -5.010  -0.346  -0.243  0.00  0.00    +0.188 C 
BRANCH  25  26
ATOM     26  C   UNL     1      -5.620  -1.077  -1.427  0.00  0.00    +0.021 C 
ATOM     30  C   UNL     1      -6.917  -0.423  -1.876  0.00  0.00    +0.005 C 
ENDBRANCH  25  26
ENDBRANCH   1  25
ENDBRANCH   9   1
ENDBRANCH  20   9
TORSDOF 5
