REMARK  Name = 45783895
REMARK  11 active torsions:
REMARK  status: ('A' for Active; 'I' for Inactive)
REMARK    1  A    between atoms: O_3  and  C_35
REMARK    2  A    between atoms: O_3  and  C_38
REMARK    3  A    between atoms: N_4  and  C_17
REMARK    4  A    between atoms: N_7  and  C_29
REMARK    5  A    between atoms: C_9  and  C_13
REMARK    6  A    between atoms: C_10  and  C_17
REMARK    7  A    between atoms: C_12  and  C_16
REMARK    8  A    between atoms: C_13  and  C_18
REMARK    9  A    between atoms: C_13  and  C_19
REMARK   10  A    between atoms: C_14  and  C_20
REMARK   11  A    between atoms: C_16  and  C_21
REMARK                            x       y       z     vdW  Elec       q    Type
REMARK                         _______ _______ _______ _____ _____    ______ ____
ROOT
ATOM      9  C   UNL     1      -4.667  -0.161   0.661  0.00  0.00    +0.000 C 
ATOM     10  C   UNL     1      -4.815  -0.543  -0.833  0.00  0.00    +0.032 C 
ATOM     11  C   UNL     1      -4.613   1.366   0.822  0.00  0.00    +0.012 C 
ATOM     12  C   UNL     1      -3.444   1.993   0.040  0.00  0.00    +0.023 C 
ATOM     14  C   UNL     1      -3.362   1.458  -1.376  0.00  0.00    -0.073 C 
ATOM     15  C   UNL     1      -3.993   0.331  -1.750  0.00  0.00    -0.022 C 
ATOM     20  C   UNL     1      -2.575   2.274  -2.363  0.00  0.00    +0.039 C 
ENDROOT
BRANCH   9  13
ATOM     13  C   UNL     1      -5.808  -0.732   1.510  0.00  0.00    -0.013 C 
ATOM     18  C   UNL     1      -5.367  -0.880   2.963  0.00  0.00    +0.007 C 
ATOM     19  C   UNL     1      -7.043   0.156   1.407  0.00  0.00    +0.007 C 
ENDBRANCH   9  13
BRANCH  12  16
ATOM     16  C   UNL     1      -2.116   1.795   0.779  0.00  0.00    +0.103 C 
BRANCH  16  21
ATOM      1  O   UNL     1      -1.564   3.988   0.054  0.00  0.00    -0.276 OA
ATOM      5  N   UNL     1       0.210   2.533   0.420  0.00  0.00    -0.298 N 
ATOM      6  N   UNL     1       3.020   1.859   0.246  0.00  0.00    -0.312 N 
ATOM      8  N   UNL     1       4.949   1.583  -1.089  0.00  0.00    -0.240 NA
ATOM     21  C   UNL     1      -1.141   2.877   0.382  0.00  0.00    +0.216 C 
ATOM     22  C   UNL     1       0.710   1.212   0.810  0.00  0.00    +0.126 C 
ATOM     23  C   UNL     1       1.216   3.522   0.043  0.00  0.00    +0.126 C 
ATOM     24  C   UNL     1       2.169   1.242   1.266  0.00  0.00    +0.125 C 
ATOM     25  C   UNL     1       2.428   2.877  -0.626  0.00  0.00    +0.125 C 
ATOM     27  C   UNL     1       4.365   1.517   0.129  0.00  0.00    +0.121 A 
ATOM     28  C   UNL     1       5.024   1.127   1.284  0.00  0.00    +0.043 A 
ATOM     30  C   UNL     1       6.367   0.782   1.183  0.00  0.00    +0.005 A 
ATOM     31  C   UNL     1       6.255   1.240  -1.149  0.00  0.00    +0.113 A 
ATOM     32  C   UNL     1       7.002   0.837  -0.053  0.00  0.00    +0.020 A 
ENDBRANCH  16  21
ENDBRANCH  12  16
BRANCH  10  17
ATOM     17  C   UNL     1      -4.452  -2.014  -1.067  0.00  0.00    +0.113 C 
BRANCH  17   4
ATOM      2  O   UNL     1      -1.794  -1.824  -2.116  0.00  0.00    -0.253 OA
ATOM      4  N   UNL     1      -3.240  -2.351  -0.389  0.00  0.00    -0.299 N 
ATOM      7  N   UNL     1      -0.971  -2.634  -0.072  0.00  0.00    -0.269 N 
ATOM     26  C   UNL     1      -1.964  -2.232  -0.970  0.00  0.00    +0.304 C 
ATOM     39  H   UNL     1      -3.304  -2.722   0.554  0.00  0.00    +0.150 HD
ATOM     40  H   UNL     1      -1.283  -2.945   0.844  0.00  0.00    +0.156 HD
BRANCH   7  29
ATOM     29  C   UNL     1       0.428  -2.660  -0.281  0.00  0.00    +0.038 A 
ATOM     33  C   UNL     1       1.277  -3.095   0.737  0.00  0.00    +0.069 A 
ATOM     34  C   UNL     1       0.959  -2.249  -1.504  0.00  0.00    +0.023 A 
ATOM     35  C   UNL     1       2.656  -3.121   0.532  0.00  0.00    +0.122 A 
ATOM     36  C   UNL     1       2.339  -2.274  -1.709  0.00  0.00    +0.005 A 
ATOM     37  C   UNL     1       3.187  -2.710  -0.691  0.00  0.00    +0.046 A 
BRANCH  35   3
ATOM      3  O   UNL     1       3.484  -3.545   1.525  0.00  0.00    -0.495 OA
ATOM     38  C   UNL     1       4.884  -3.544   1.249  0.00  0.00    +0.277 C 
ENDBRANCH  35   3
ENDBRANCH   7  29
ENDBRANCH  17   4
ENDBRANCH  10  17
TORSDOF 7
