REMARK  Name = 11886077
REMARK  7 active torsions:
REMARK  status: ('A' for Active; 'I' for Inactive)
REMARK    1  A    between atoms: O_3  and  C_14
REMARK    2  A    between atoms: O_3  and  C_18
REMARK    3  A    between atoms: N_5  and  C_13
REMARK    4  A    between atoms: N_9  and  C_25
REMARK    5  A    between atoms: C_17  and  C_19
REMARK    6  A    between atoms: C_24  and  C_26
REMARK    7  A    between atoms: C_31  and  C_37
REMARK                            x       y       z     vdW  Elec       q    Type
REMARK                         _______ _______ _______ _____ _____    ______ ____
ROOT
ATOM      1  O   UNL     1       1.496   0.459  -1.131  0.00  0.00    -0.368 OA
ATOM      2  O   UNL     1      -0.595  -1.542  -0.045  0.00  0.00    -0.368 OA
ATOM     11  C   UNL     1      -0.347  -0.148   0.241  0.00  0.00    +0.177 C 
ATOM     12  C   UNL     1       1.156   0.046   0.202  0.00  0.00    +0.192 C 
ATOM     13  C   UNL     1      -0.870   0.705  -0.898  0.00  0.00    +0.168 C 
ATOM     14  C   UNL     1       1.678  -1.338   0.508  0.00  0.00    +0.235 C 
ATOM     15  C   UNL     1       0.297   0.707  -1.880  0.00  0.00    +0.190 C 
ATOM     16  C   UNL     1       0.662  -2.219  -0.180  0.00  0.00    +0.207 C 
ENDROOT
BRANCH  13   5
ATOM      5  N   UNL     1      -1.316   2.026  -0.451  0.00  0.00    -0.217 N 
ATOM      6  N   UNL     1      -0.454   3.045  -0.378  0.00  0.00    -0.043 NA
ATOM      7  N   UNL     1      -2.489   3.700   0.254  0.00  0.00    -0.108 NA
ATOM      8  N   UNL     1      -1.178   4.070   0.054  0.00  0.00    -0.023 NA
ATOM     17  C   UNL     1      -2.551   2.429  -0.066  0.00  0.00    +0.182 A 
BRANCH  17  19
ATOM     19  C   UNL     1      -3.715   1.581  -0.025  0.00  0.00    +0.021 A 
ATOM     20  C   UNL     1      -4.539   1.468  -1.147  0.00  0.00    +0.012 A 
ATOM     21  C   UNL     1      -4.021   0.869   1.136  0.00  0.00    +0.012 A 
ATOM     22  C   UNL     1      -5.665   0.647  -1.107  0.00  0.00    +0.009 A 
ATOM     23  C   UNL     1      -5.148   0.047   1.175  0.00  0.00    +0.009 A 
ATOM     24  C   UNL     1      -5.970  -0.064   0.054  0.00  0.00    -0.018 A 
BRANCH  24  26
ATOM     26  C   UNL     1      -7.138  -0.916   0.095  0.00  0.00    -0.018 A 
ATOM     29  C   UNL     1      -8.366  -0.398   0.507  0.00  0.00    +0.008 A 
ATOM     30  C   UNL     1      -7.037  -2.256  -0.280  0.00  0.00    +0.008 A 
ATOM     34  C   UNL     1      -9.493  -1.219   0.545  0.00  0.00    +0.001 A 
ATOM     35  C   UNL     1      -8.164  -3.077  -0.242  0.00  0.00    +0.001 A 
ATOM     36  C   UNL     1      -9.392  -2.559   0.170  0.00  0.00    +0.000 A 
ENDBRANCH  24  26
ENDBRANCH  17  19
ENDBRANCH  13   5
BRANCH  14   3
ATOM      3  O   UNL     1       2.986  -1.564   0.033  0.00  0.00    -0.442 OA
BRANCH   3  18
ATOM      4  O   UNL     1       3.776   0.078   1.415  0.00  0.00    -0.226 OA
ATOM      9  N   UNL     1       5.199  -1.128   0.000  0.00  0.00    -0.251 N 
ATOM     18  C   UNL     1       3.988  -0.781   0.567  0.00  0.00    +0.405 C 
ATOM     38  H   UNL     1       5.172  -1.873  -0.692  0.00  0.00    +0.158 HD
BRANCH   9  25
ATOM     25  C   UNL     1       6.473  -0.576   0.262  0.00  0.00    +0.038 A 
ATOM     27  C   UNL     1       7.579  -1.067  -0.415  0.00  0.00    +0.042 A 
ATOM     28  C   UNL     1       6.593   0.443   1.193  0.00  0.00    +0.023 A 
ATOM     31  C   UNL     1       8.836  -0.523  -0.154  0.00  0.00    +0.054 A 
ATOM     32  C   UNL     1       7.850   0.987   1.454  0.00  0.00    +0.003 A 
ATOM     33  C   UNL     1       8.972   0.504   0.781  0.00  0.00    +0.019 A 
BRANCH  31  37
ATOM     10  N   UNL     1      10.921  -1.419  -1.405  0.00  0.00    -0.191 NA
ATOM     37  C   UNL     1       9.986  -1.017  -0.843  0.00  0.00    +0.099 C 
ENDBRANCH  31  37
ENDBRANCH   9  25
ENDBRANCH   3  18
ENDBRANCH  14   3
TORSDOF 7
