REMARK  Name = 25314925
REMARK  4 active torsions:
REMARK  status: ('A' for Active; 'I' for Inactive)
REMARK    1  A    between atoms: O_3  and  C_10
REMARK    2  A    between atoms: N_6  and  C_9
REMARK    3  A    between atoms: N_7  and  C_11
REMARK    4  A    between atoms: N_8  and  C_20
REMARK                            x       y       z     vdW  Elec       q    Type
REMARK                         _______ _______ _______ _____ _____    ______ ____
ROOT
ATOM      1  O   UNL     1       2.487   0.961  -1.601  0.00  0.00    -0.342 OA
ATOM      2  O   UNL     1       3.942   2.061  -0.169  0.00  0.00    -0.347 OA
ATOM      9  C   UNL     1       2.778   0.098   0.632  0.00  0.00    +0.144 C 
ATOM     10  C   UNL     1       1.611   0.972   1.143  0.00  0.00    +0.159 C 
ATOM     11  C   UNL     1       0.886   1.747   0.021  0.00  0.00    +0.136 C 
ATOM     12  C   UNL     1       1.816   2.139  -1.145  0.00  0.00    +0.170 C 
ATOM     13  C   UNL     1       3.467   0.766  -0.573  0.00  0.00    +0.270 C 
ATOM     14  C   UNL     1       3.003   2.990  -0.733  0.00  0.00    +0.196 C 
ENDROOT
BRANCH   9   6
ATOM      4  O   UNL     1       2.515  -4.058   0.108  0.00  0.00    -0.377 OA
ATOM      6  N   UNL     1       2.287  -1.224   0.249  0.00  0.00    -0.288 NA
ATOM     15  C   UNL     1       2.091  -2.071   1.434  0.00  0.00    +0.113 C 
ATOM     16  C   UNL     1       3.215  -1.875  -0.686  0.00  0.00    +0.113 C 
ATOM     17  C   UNL     1       1.590  -3.449   1.009  0.00  0.00    +0.175 C 
ATOM     18  C   UNL     1       2.687  -3.257  -1.062  0.00  0.00    +0.175 C 
ENDBRANCH   9   6
BRANCH  11   7
ATOM      5  O   UNL     1      -1.793   1.746   1.035  0.00  0.00    -0.252 OA
ATOM      7  N   UNL     1      -0.228   0.972  -0.480  0.00  0.00    -0.291 N 
ATOM      8  N   UNL     1      -2.375   0.179  -0.613  0.00  0.00    -0.269 N 
ATOM     19  C   UNL     1      -1.508   1.032   0.076  0.00  0.00    +0.304 C 
ATOM     26  H   UNL     1      -0.052   0.298  -1.220  0.00  0.00    +0.151 HD
ATOM     28  H   UNL     1      -1.977  -0.346  -1.389  0.00  0.00    +0.156 HD
BRANCH   8  20
ATOM     20  C   UNL     1      -3.748  -0.050  -0.365  0.00  0.00    +0.035 A 
ATOM     21  C   UNL     1      -4.461  -0.946  -1.161  0.00  0.00    +0.023 A 
ATOM     22  C   UNL     1      -4.390   0.623   0.675  0.00  0.00    +0.023 A 
ATOM     23  C   UNL     1      -5.816  -1.170  -0.917  0.00  0.00    +0.002 A 
ATOM     24  C   UNL     1      -5.745   0.399   0.919  0.00  0.00    +0.002 A 
ATOM     25  C   UNL     1      -6.458  -0.498   0.123  0.00  0.00    +0.000 A 
ENDBRANCH   8  20
ENDBRANCH  11   7
BRANCH  10   3
ATOM      3  O   UNL     1       2.148   1.914   2.081  0.00  0.00    -0.388 OA
ATOM     27  H   UNL     1       1.404   2.421   2.447  0.00  0.00    +0.210 HD
ENDBRANCH  10   3
TORSDOF 4
