REMARK  Name = 75536945
REMARK  4 active torsions:
REMARK  status: ('A' for Active; 'I' for Inactive)
REMARK    1  A    between atoms: O_5  and  C_11
REMARK    2  A    between atoms: O_5  and  C_17
REMARK    3  A    between atoms: C_16  and  C_18
REMARK    4  A    between atoms: C_23  and  C_25
REMARK                            x       y       z     vdW  Elec       q    Type
REMARK                         _______ _______ _______ _____ _____    ______ ____
ROOT
ATOM      4  O   UNL     1       3.203   2.374  -1.322  0.00  0.00    -0.375 OA
ATOM      6  O   UNL     1       4.354  -1.473  -0.331  0.00  0.00    -0.270 OA
ATOM      7  N   UNL     1       3.095   0.274   0.580  0.00  0.00    -0.292 N 
ATOM     11  C   UNL     1       1.227   1.821  -0.039  0.00  0.00    +0.218 C 
ATOM     12  C   UNL     1       1.808   0.845   0.989  0.00  0.00    +0.155 C 
ATOM     13  C   UNL     1       4.229   1.192   0.624  0.00  0.00    +0.136 C 
ATOM     14  C   UNL     1       2.202   2.917  -0.472  0.00  0.00    +0.206 C 
ATOM     15  C   UNL     1       4.405   1.956  -0.685  0.00  0.00    +0.179 C 
ATOM     16  C   UNL     1       3.289  -1.018   0.085  0.00  0.00    +0.250 C 
ENDROOT
BRANCH  16  18
ATOM      9  N   UNL     1       0.229  -2.812  -1.130  0.00  0.00    -0.243 NA
ATOM     10  N   UNL     1       0.750  -3.586   1.092  0.00  0.00    -0.243 NA
ATOM     18  C   UNL     1       2.133  -1.919   0.042  0.00  0.00    +0.073 A 
ATOM     20  C   UNL     1       1.301  -1.995  -1.057  0.00  0.00    +0.127 A 
ATOM     21  C   UNL     1       1.806  -2.745   1.097  0.00  0.00    +0.127 A 
ATOM     26  C   UNL     1       0.016  -3.568  -0.036  0.00  0.00    +0.221 A 
ENDBRANCH  16  18
BRANCH  11   5
ATOM      5  O   UNL     1       0.081   2.449   0.530  0.00  0.00    -0.469 OA
BRANCH   5  17
ATOM      8  N   UNL     1      -1.094   0.644  -0.330  0.00  0.00    -0.221 NA
ATOM     17  C   UNL     1      -1.115   1.807   0.359  0.00  0.00    +0.215 A 
ATOM     19  C   UNL     1      -2.262   2.373   0.891  0.00  0.00    +0.068 A 
ATOM     22  C   UNL     1      -3.466   1.702   0.704  0.00  0.00    +0.019 A 
ATOM     23  C   UNL     1      -3.485   0.503   0.000  0.00  0.00    +0.073 A 
ATOM     24  C   UNL     1      -2.283   0.021  -0.492  0.00  0.00    +0.127 A 
BRANCH  23  25
ATOM      1  F   UNL     1      -5.076  -0.411  -1.535  0.00  0.00    -0.166 F 
ATOM      2  F   UNL     1      -4.755  -1.500   0.313  0.00  0.00    -0.166 F 
ATOM      3  F   UNL     1      -5.835   0.388   0.340  0.00  0.00    -0.166 F 
ATOM     25  C   UNL     1      -4.755  -0.239  -0.217  0.00  0.00    +0.419 C 
ENDBRANCH  23  25
ENDBRANCH   5  17
ENDBRANCH  11   5
TORSDOF 4
