REMARK  Name = 28961385
REMARK  8 active torsions:
REMARK  status: ('A' for Active; 'I' for Inactive)
REMARK    1  A    between atoms: O_3  and  C_12
REMARK    2  A    between atoms: O_4  and  C_19
REMARK    3  A    between atoms: N_6  and  C_10
REMARK    4  A    between atoms: N_7  and  C_20
REMARK    5  A    between atoms: N_8  and  C_16
REMARK    6  A    between atoms: N_9  and  C_27
REMARK    7  A    between atoms: C_11  and  C_16
REMARK    8  A    between atoms: C_13  and  C_19
REMARK                            x       y       z     vdW  Elec       q    Type
REMARK                         _______ _______ _______ _____ _____    ______ ____
ROOT
ATOM      2  O   UNL     1      -1.170  -2.214   0.730  0.00  0.00    -0.365 OA
ATOM     10  C   UNL     1       1.161  -1.734   0.756  0.00  0.00    +0.118 C 
ATOM     11  C   UNL     1      -0.240  -1.108   0.728  0.00  0.00    +0.155 C 
ATOM     12  C   UNL     1       0.939  -3.099   0.123  0.00  0.00    +0.165 C 
ATOM     13  C   UNL     1      -0.432  -3.450   0.686  0.00  0.00    +0.174 C 
ENDROOT
BRANCH  10   6
ATOM      6  N   UNL     1       2.228  -0.944   0.167  0.00  0.00    -0.292 NA
ATOM      7  N   UNL     1       4.710   0.470   0.130  0.00  0.00    -0.327 N 
ATOM     14  C   UNL     1       2.360   0.343   0.862  0.00  0.00    +0.104 C 
ATOM     15  C   UNL     1       3.500  -1.674   0.223  0.00  0.00    +0.104 C 
ATOM     17  C   UNL     1       3.444   1.208   0.214  0.00  0.00    +0.120 C 
ATOM     18  C   UNL     1       4.623  -0.876  -0.446  0.00  0.00    +0.120 C 
BRANCH   7  20
ATOM     20  C   UNL     1       5.893   1.206  -0.003  0.00  0.00    +0.030 A 
ATOM     22  C   UNL     1       6.256   2.125   0.981  0.00  0.00    +0.023 A 
ATOM     23  C   UNL     1       6.708   1.020  -1.120  0.00  0.00    +0.023 A 
ATOM     24  C   UNL     1       7.435   2.859   0.848  0.00  0.00    +0.002 A 
ATOM     25  C   UNL     1       7.887   1.754  -1.252  0.00  0.00    +0.002 A 
ATOM     26  C   UNL     1       8.250   2.674  -0.268  0.00  0.00    +0.000 A 
ENDBRANCH   7  20
ENDBRANCH  10   6
BRANCH  12   3
ATOM      3  O   UNL     1       0.886  -3.013  -1.295  0.00  0.00    -0.388 OA
ATOM     33  H   UNL     1       0.851  -3.920  -1.643  0.00  0.00    +0.210 HD
ENDBRANCH  12   3
BRANCH  11  16
ATOM     16  C   UNL     1      -0.576  -0.237  -0.477  0.00  0.00    +0.139 C 
BRANCH  16   8
ATOM      5  O   UNL     1      -3.355  -0.798  -0.887  0.00  0.00    -0.253 OA
ATOM      8  N   UNL     1      -1.677   0.634  -0.192  0.00  0.00    -0.297 N 
ATOM      9  N   UNL     1      -3.869   1.333  -0.049  0.00  0.00    -0.269 N 
ATOM     21  C   UNL     1      -3.019   0.288  -0.421  0.00  0.00    +0.304 C 
ATOM     34  H   UNL     1      -1.475   1.545   0.208  0.00  0.00    +0.150 HD
ATOM     36  H   UNL     1      -3.427   2.171   0.322  0.00  0.00    +0.156 HD
BRANCH   9  27
ATOM      1 CL   UNL     1      -8.217   3.952   0.732  0.00  0.00    -0.083 Cl
ATOM     27  C   UNL     1      -5.281   1.373  -0.125  0.00  0.00    +0.036 A 
ATOM     28  C   UNL     1      -5.972   2.510   0.293  0.00  0.00    +0.043 A 
ATOM     29  C   UNL     1      -5.983   0.273  -0.619  0.00  0.00    +0.023 A 
ATOM     30  C   UNL     1      -7.364   2.548   0.217  0.00  0.00    +0.043 A 
ATOM     31  C   UNL     1      -7.375   0.311  -0.695  0.00  0.00    +0.003 A 
ATOM     32  C   UNL     1      -8.066   1.449  -0.278  0.00  0.00    +0.020 A 
ENDBRANCH   9  27
ENDBRANCH  16   8
ENDBRANCH  11  16
BRANCH  13  19
ATOM     19  C   UNL     1      -1.221  -4.476  -0.107  0.00  0.00    +0.190 C 
BRANCH  19   4
ATOM      4  O   UNL     1      -2.461  -4.705   0.543  0.00  0.00    -0.392 OA
ATOM     35  H   UNL     1      -2.943  -5.366   0.018  0.00  0.00    +0.210 HD
ENDBRANCH  19   4
ENDBRANCH  13  19
TORSDOF 8
