REMARK  Name = 51136867
REMARK  8 active torsions:
REMARK  status: ('A' for Active; 'I' for Inactive)
REMARK    1  A    between atoms: O_4  and  C_35
REMARK    2  A    between atoms: O_4  and  C_36
REMARK    3  A    between atoms: N_5  and  C_11
REMARK    4  A    between atoms: N_10  and  C_28
REMARK    5  A    between atoms: C_12  and  C_20
REMARK    6  A    between atoms: C_21  and  C_22
REMARK    7  A    between atoms: C_23  and  C_24
REMARK    8  A    between atoms: C_29  and  C_30
REMARK                            x       y       z     vdW  Elec       q    Type
REMARK                         _______ _______ _______ _____ _____    ______ ____
ROOT
ATOM      1  O   UNL     1       3.294   2.727   1.595  0.00  0.00    -0.336 OA
ATOM      7  N   UNL     1       2.410   1.586  -0.119  0.00  0.00    -0.190 NA
ATOM      8  N   UNL     1       1.926   2.609   1.870  0.00  0.00    -0.056 NA
ATOM     20  C   UNL     1       3.494   2.098   0.407  0.00  0.00    +0.245 A 
ATOM     23  C   UNL     1       1.474   1.925   0.815  0.00  0.00    +0.204 A 
ENDROOT
BRANCH  23  24
ATOM      9  N   UNL     1      -2.160   1.609   1.534  0.00  0.00    -0.239 NA
ATOM     24  C   UNL     1       0.094   1.566   0.662  0.00  0.00    +0.041 A 
ATOM     25  C   UNL     1      -0.343   0.855  -0.451  0.00  0.00    +0.016 A 
ATOM     26  C   UNL     1      -0.847   1.916   1.617  0.00  0.00    +0.124 A 
ATOM     27  C   UNL     1      -1.687   0.520  -0.571  0.00  0.00    +0.044 A 
ATOM     28  C   UNL     1      -2.548   0.917   0.440  0.00  0.00    +0.125 A 
BRANCH  28  10
ATOM      3  O   UNL     1      -3.963  -0.585  -1.735  0.00  0.00    -0.270 OA
ATOM     10  N   UNL     1      -3.898   0.575   0.308  0.00  0.00    -0.266 N 
ATOM     29  C   UNL     1      -4.508  -0.131  -0.734  0.00  0.00    +0.249 C 
ATOM     37  H   UNL     1      -4.456   0.861   1.107  0.00  0.00    +0.157 HD
BRANCH  29  30
ATOM     30  C   UNL     1      -5.967  -0.365  -0.573  0.00  0.00    +0.037 A 
ATOM     31  C   UNL     1      -6.567  -1.468  -1.181  0.00  0.00    +0.016 A 
ATOM     32  C   UNL     1      -6.735   0.518   0.185  0.00  0.00    +0.016 A 
ATOM     33  C   UNL     1      -7.937  -1.687  -1.031  0.00  0.00    +0.046 A 
ATOM     34  C   UNL     1      -8.105   0.299   0.335  0.00  0.00    +0.046 A 
ATOM     35  C   UNL     1      -8.706  -0.803  -0.274  0.00  0.00    +0.120 A 
BRANCH  35   4
ATOM      4  O   UNL     1     -10.042  -1.017  -0.128  0.00  0.00    -0.495 OA
ATOM     36  C   UNL     1     -10.768  -0.074   0.661  0.00  0.00    +0.277 C 
ENDBRANCH  35   4
ENDBRANCH  29  30
ENDBRANCH  28  10
ENDBRANCH  23  24
BRANCH  20  12
ATOM      5  N   UNL     1       5.188   0.921  -0.987  0.00  0.00    -0.288 NA
ATOM     12  C   UNL     1       4.915   2.084  -0.119  0.00  0.00    +0.146 C 
ATOM     13  C   UNL     1       6.215   1.347  -1.937  0.00  0.00    +0.085 C 
ATOM     14  C   UNL     1       5.237   3.310  -0.994  0.00  0.00    +0.030 C 
ATOM     17  C   UNL     1       5.740   2.736  -2.311  0.00  0.00    +0.017 C 
BRANCH   5  11
ATOM      2  O   UNL     1       4.778  -5.172  -0.274  0.00  0.00    -0.276 OA
ATOM      6  N   UNL     1       5.124  -3.022   0.534  0.00  0.00    -0.302 N 
ATOM     11  C   UNL     1       5.587  -0.271  -0.243  0.00  0.00    +0.060 C 
ATOM     15  C   UNL     1       4.500  -0.647   0.772  0.00  0.00    +0.038 C 
ATOM     16  C   UNL     1       5.842  -1.434  -1.210  0.00  0.00    +0.038 C 
ATOM     18  C   UNL     1       4.851  -1.947   1.496  0.00  0.00    +0.109 C 
ATOM     19  C   UNL     1       6.167  -2.717  -0.447  0.00  0.00    +0.109 C 
ATOM     21  C   UNL     1       4.506  -4.271   0.524  0.00  0.00    +0.212 C 
ATOM     22  C   UNL     1       3.439  -4.506   1.564  0.00  0.00    +0.109 C 
ENDBRANCH   5  11
ENDBRANCH  20  12
TORSDOF 6
