REMARK  Name = 7673849
REMARK  4 active torsions:
REMARK  status: ('A' for Active; 'I' for Inactive)
REMARK    1  A    between atoms: N_3  and  C_13
REMARK    2  A    between atoms: C_13  and  C_18
REMARK    3  A    between atoms: C_16  and  C_19
REMARK    4  A    between atoms: C_27  and  C_32
REMARK                            x       y       z     vdW  Elec       q    Type
REMARK                         _______ _______ _______ _____ _____    ______ ____
ROOT
ATOM      1  O   UNL     1      -2.301  -2.140   1.348  0.00  0.00    -0.267 OA
ATOM      3  N   UNL     1       2.661  -1.692   0.798  0.00  0.00    -0.294 NA
ATOM      4  N   UNL     1      -0.362  -2.409   0.079  0.00  0.00    -0.311 N 
ATOM      6  C   UNL     1       1.561  -3.944   0.795  0.00  0.00    +0.024 C 
ATOM      7  C   UNL     1       1.728  -2.684  -1.297  0.00  0.00    +0.050 C 
ATOM      8  C   UNL     1       1.809  -4.086  -0.700  0.00  0.00    +0.017 C 
ATOM      9  C   UNL     1       2.625  -3.019   1.423  0.00  0.00    +0.090 C 
ATOM     10  C   UNL     1       2.817  -1.789  -0.661  0.00  0.00    +0.094 C 
ATOM     11  C   UNL     1       0.131  -3.430   1.013  0.00  0.00    +0.130 C 
ATOM     12  C   UNL     1       0.352  -2.083  -1.077  0.00  0.00    +0.026 A 
ATOM     14  C   UNL     1      -0.168  -1.230  -1.974  0.00  0.00    +0.022 A 
ATOM     15  C   UNL     1      -1.629  -1.856   0.355  0.00  0.00    +0.259 A 
ATOM     16  C   UNL     1      -2.167  -0.879  -0.653  0.00  0.00    +0.047 A 
ATOM     17  C   UNL     1      -1.448  -0.617  -1.755  0.00  0.00    +0.015 A 
ENDROOT
BRANCH  16  19
ATOM     19  C   UNL     1      -3.429  -0.241  -0.448  0.00  0.00    -0.011 A 
ATOM     23  C   UNL     1      -3.495   0.976   0.230  0.00  0.00    +0.027 A 
ATOM     24  C   UNL     1      -4.596  -0.837  -0.925  0.00  0.00    +0.009 A 
ATOM     27  C   UNL     1      -4.728   1.597   0.431  0.00  0.00    +0.052 A 
ATOM     28  C   UNL     1      -5.829  -0.216  -0.725  0.00  0.00    +0.002 A 
ATOM     31  C   UNL     1      -5.895   1.000  -0.046  0.00  0.00    +0.019 A 
BRANCH  27  32
ATOM      5  N   UNL     1      -4.851   3.858   1.690  0.00  0.00    -0.191 NA
ATOM     32  C   UNL     1      -4.796   2.844   1.125  0.00  0.00    +0.099 C 
ENDBRANCH  27  32
ENDBRANCH  16  19
BRANCH   3  13
ATOM     13  C   UNL     1       3.715  -0.866   1.383  0.00  0.00    +0.158 C 
BRANCH  13  18
ATOM      2  O   UNL     1       2.419   1.045   0.724  0.00  0.00    -0.458 OA
ATOM     18  C   UNL     1       3.653   0.513   0.801  0.00  0.00    +0.120 A 
ATOM     20  C   UNL     1       4.613   1.346   0.329  0.00  0.00    +0.054 A 
ATOM     21  C   UNL     1       3.928   2.517  -0.089  0.00  0.00    +0.020 A 
ATOM     22  C   UNL     1       2.582   2.282   0.175  0.00  0.00    +0.135 A 
ATOM     25  C   UNL     1       4.295   3.748  -0.660  0.00  0.00    +0.011 A 
ATOM     26  C   UNL     1       1.563   3.194  -0.091  0.00  0.00    +0.047 A 
ATOM     29  C   UNL     1       3.291   4.686  -0.939  0.00  0.00    +0.001 A 
ATOM     30  C   UNL     1       1.950   4.412  -0.659  0.00  0.00    +0.004 A 
ENDBRANCH  13  18
ENDBRANCH   3  13
TORSDOF 4
