REMARK  Name = 38028485
REMARK  11 active torsions:
REMARK  status: ('A' for Active; 'I' for Inactive)
REMARK    1  A    between atoms: N_4  and  C_15
REMARK    2  A    between atoms: N_5  and  C_22
REMARK    3  A    between atoms: N_6  and  C_24
REMARK    4  A    between atoms: C_8  and  C_12
REMARK    5  A    between atoms: C_9  and  C_15
REMARK    6  A    between atoms: C_11  and  C_16
REMARK    7  A    between atoms: C_12  and  C_17
REMARK    8  A    between atoms: C_12  and  C_18
REMARK    9  A    between atoms: C_13  and  C_19
REMARK   10  A    between atoms: C_16  and  C_20
REMARK   11  A    between atoms: C_22  and  C_23
REMARK                            x       y       z     vdW  Elec       q    Type
REMARK                         _______ _______ _______ _____ _____    ______ ____
ROOT
ATOM      8  C   UNL     1      -1.771   1.613  -0.994  0.00  0.00    +0.000 C 
ATOM      9  C   UNL     1      -1.432   3.123  -1.044  0.00  0.00    +0.032 C 
ATOM     10  C   UNL     1      -2.965   1.362  -0.059  0.00  0.00    +0.012 C 
ATOM     11  C   UNL     1      -2.692   1.849   1.377  0.00  0.00    +0.023 C 
ATOM     13  C   UNL     1      -2.099   3.243   1.395  0.00  0.00    -0.073 C 
ATOM     14  C   UNL     1      -1.552   3.801   0.301  0.00  0.00    -0.022 C 
ATOM     19  C   UNL     1      -2.189   4.000   2.691  0.00  0.00    +0.039 C 
ENDROOT
BRANCH   8  12
ATOM     12  C   UNL     1      -2.077   1.052  -2.386  0.00  0.00    -0.013 C 
ATOM     17  C   UNL     1      -3.517   1.361  -2.780  0.00  0.00    +0.007 C 
ATOM     18  C   UNL     1      -1.817  -0.451  -2.423  0.00  0.00    +0.007 C 
ENDBRANCH   8  12
BRANCH   9  15
ATOM     15  C   UNL     1      -0.025   3.355  -1.609  0.00  0.00    +0.113 C 
BRANCH  15   4
ATOM      3  O   UNL     1       1.895   1.322  -2.227  0.00  0.00    -0.253 OA
ATOM      4  N   UNL     1       0.969   2.824  -0.730  0.00  0.00    -0.299 N 
ATOM      6  N   UNL     1       2.732   1.503  -0.041  0.00  0.00    -0.269 N 
ATOM     21  C   UNL     1       1.883   1.821  -1.104  0.00  0.00    +0.304 C 
ATOM     34  H   UNL     1       1.068   3.234   0.193  0.00  0.00    +0.150 HD
ATOM     36  H   UNL     1       2.586   2.011   0.828  0.00  0.00    +0.156 HD
BRANCH   6  24
ATOM      1  F   UNL     1       6.278  -0.759   2.276  0.00  0.00    -0.205 F 
ATOM     24  C   UNL     1       3.778   0.550  -0.021  0.00  0.00    +0.037 A 
ATOM     27  C   UNL     1       4.527   0.362   1.140  0.00  0.00    +0.061 A 
ATOM     28  C   UNL     1       4.059  -0.202  -1.162  0.00  0.00    +0.023 A 
ATOM     30  C   UNL     1       5.557  -0.578   1.161  0.00  0.00    +0.125 A 
ATOM     31  C   UNL     1       5.089  -1.142  -1.141  0.00  0.00    +0.005 A 
ATOM     33  C   UNL     1       5.838  -1.330   0.020  0.00  0.00    +0.038 A 
ENDBRANCH   6  24
ENDBRANCH  15   4
ENDBRANCH   9  15
BRANCH  11  16
ATOM     16  C   UNL     1      -1.798   0.862   2.134  0.00  0.00    +0.103 C 
BRANCH  16  20
ATOM      2  O   UNL     1      -3.557  -0.797   2.072  0.00  0.00    -0.276 OA
ATOM      5  N   UNL     1      -1.339  -1.484   2.152  0.00  0.00    -0.311 N 
ATOM     20  C   UNL     1      -2.357  -0.543   2.114  0.00  0.00    +0.214 C 
ATOM     35  H   UNL     1      -0.371  -1.175   2.183  0.00  0.00    +0.149 HD
BRANCH   5  22
ATOM     22  C   UNL     1      -1.580  -2.909   2.145  0.00  0.00    +0.141 C 
BRANCH  22  23
ATOM      7  N   UNL     1      -0.511  -3.826  -1.364  0.00  0.00    -0.263 NA
ATOM     23  C   UNL     1      -1.625  -3.465   0.751  0.00  0.00    -0.012 A 
ATOM     25  C   UNL     1      -2.760  -4.110   0.273  0.00  0.00    +0.008 A 
ATOM     26  C   UNL     1      -0.537  -3.350  -0.099  0.00  0.00    +0.115 A 
ATOM     29  C   UNL     1      -2.772  -4.613  -1.023  0.00  0.00    +0.020 A 
ATOM     32  C   UNL     1      -1.633  -4.447  -1.794  0.00  0.00    +0.111 A 
ENDBRANCH  22  23
ENDBRANCH   5  22
ENDBRANCH  16  20
ENDBRANCH  11  16
TORSDOF 8
