REMARK  Name = 75537022
REMARK  4 active torsions:
REMARK  status: ('A' for Active; 'I' for Inactive)
REMARK    1  A    between atoms: N_3  and  C_8
REMARK    2  A    between atoms: N_6  and  C_20
REMARK    3  A    between atoms: C_20  and  C_21
REMARK    4  A    between atoms: C_20  and  C_22
REMARK                            x       y       z     vdW  Elec       q    Type
REMARK                         _______ _______ _______ _____ _____    ______ ____
ROOT
ATOM      1  O   UNL     1       2.182  -2.673   0.364  0.00  0.00    -0.252 OA
ATOM      2  O   UNL     1      -4.576  -1.289  -0.115  0.00  0.00    -0.253 OA
ATOM      3  N   UNL     1       2.157  -0.324   0.157  0.00  0.00    -0.281 N 
ATOM      4  N   UNL     1       0.197  -1.419   0.257  0.00  0.00    -0.278 N 
ATOM      5  N   UNL     1      -2.371  -0.722  -0.549  0.00  0.00    -0.282 N 
ATOM      6  N   UNL     1      -4.019   0.934  -0.186  0.00  0.00    -0.297 N 
ATOM      7  C   UNL     1      -0.168  -0.012   0.256  0.00  0.00    +0.112 C 
ATOM      9  C   UNL     1       1.149   0.703  -0.035  0.00  0.00    +0.133 C 
ATOM     12  C   UNL     1      -1.274   0.243  -0.763  0.00  0.00    +0.133 C 
ATOM     13  C   UNL     1       1.587  -1.607   0.275  0.00  0.00    +0.305 C 
ATOM     14  C   UNL     1      -0.837  -2.436   0.341  0.00  0.00    +0.128 C 
ATOM     17  C   UNL     1      -1.955  -2.130  -0.655  0.00  0.00    +0.128 C 
ATOM     19  C   UNL     1      -3.714  -0.419  -0.275  0.00  0.00    +0.303 C 
ATOM     23  H   UNL     1      -3.289   1.632  -0.178  0.00  0.00    +0.150 HD
ENDROOT
BRANCH   3   8
ATOM      8  C   UNL     1       3.569  -0.033   0.081  0.00  0.00    +0.078 C 
ATOM     10  C   UNL     1       4.003   0.827   1.271  0.00  0.00    +0.022 C 
ATOM     11  C   UNL     1       3.912   0.642  -1.249  0.00  0.00    +0.022 C 
ATOM     15  C   UNL     1       5.483   1.194   1.188  0.00  0.00    +0.002 C 
ATOM     16  C   UNL     1       5.392   1.008  -1.328  0.00  0.00    +0.002 C 
ATOM     18  C   UNL     1       5.824   1.863  -0.140  0.00  0.00    +0.000 C 
ENDBRANCH   3   8
BRANCH   6  20
ATOM     20  C   UNL     1      -5.357   1.404   0.097  0.00  0.00    +0.068 C 
ATOM     21  C   UNL     1      -5.580   1.509   1.601  0.00  0.00    +0.027 C 
ATOM     22  C   UNL     1      -5.606   2.739  -0.593  0.00  0.00    +0.027 C 
ENDBRANCH   6  20
TORSDOF 2
