REMARK  Name = 51137997
REMARK  8 active torsions:
REMARK  status: ('A' for Active; 'I' for Inactive)
REMARK    1  A    between atoms: N_4  and  C_22
REMARK    2  A    between atoms: N_5  and  C_23
REMARK    3  A    between atoms: C_6  and  C_10
REMARK    4  A    between atoms: C_8  and  C_17
REMARK    5  A    between atoms: C_10  and  C_13
REMARK    6  A    between atoms: C_13  and  C_19
REMARK    7  A    between atoms: C_13  and  C_20
REMARK    8  A    between atoms: C_23  and  C_24
REMARK                            x       y       z     vdW  Elec       q    Type
REMARK                         _______ _______ _______ _____ _____    ______ ____
ROOT
ATOM      3  N   UNL     1       0.342  -0.136  -0.369  0.00  0.00    -0.299 NA
ATOM      4  N   UNL     1       5.182   1.304  -0.327  0.00  0.00    -0.349 N 
ATOM      6  C   UNL     1       1.077  -1.230   0.280  0.00  0.00    +0.085 C 
ATOM      7  C   UNL     1       2.605  -1.118   0.254  0.00  0.00    -0.021 A 
ATOM      8  C   UNL     1       0.514   1.167   0.255  0.00  0.00    +0.145 C 
ATOM      9  C   UNL     1       3.335   0.072  -0.029  0.00  0.00    +0.008 A 
ATOM     11  C   UNL     1       1.586   1.993  -0.454  0.00  0.00    +0.065 C 
ATOM     12  C   UNL     1       2.961   1.426  -0.337  0.00  0.00    -0.020 A 
ATOM     14  C   UNL     1       4.735   0.044  -0.008  0.00  0.00    +0.049 A 
ATOM     15  C   UNL     1       4.126   2.144  -0.521  0.00  0.00    +0.090 A 
ATOM     16  C   UNL     1       3.375  -2.255   0.609  0.00  0.00    +0.006 A 
ATOM     18  C   UNL     1       5.476  -1.098   0.300  0.00  0.00    +0.026 A 
ATOM     21  C   UNL     1       4.768  -2.249   0.622  0.00  0.00    +0.002 A 
ATOM     22  C   UNL     1       6.569   1.705  -0.427  0.00  0.00    +0.149 C 
ATOM     30  H   UNL     1       0.552  -0.098  -1.366  0.00  0.00    +0.123 HD
ENDROOT
BRANCH   8  17
ATOM      2  O   UNL     1      -1.071   2.555  -0.866  0.00  0.00    -0.274 OA
ATOM      5  N   UNL     1      -1.649   1.609   1.182  0.00  0.00    -0.310 N 
ATOM     17  C   UNL     1      -0.811   1.852   0.107  0.00  0.00    +0.231 C 
ATOM     31  H   UNL     1      -1.341   0.989   1.925  0.00  0.00    +0.149 HD
BRANCH   5  23
ATOM     23  C   UNL     1      -2.975   2.172   1.292  0.00  0.00    +0.139 C 
BRANCH  23  24
ATOM      1  F   UNL     1      -6.878  -1.162  -1.021  0.00  0.00    -0.205 F 
ATOM     24  C   UNL     1      -4.016   1.283   0.676  0.00  0.00    -0.030 A 
ATOM     25  C   UNL     1      -4.350   1.430  -0.671  0.00  0.00    +0.008 A 
ATOM     26  C   UNL     1      -4.649   0.309   1.448  0.00  0.00    +0.008 A 
ATOM     27  C   UNL     1      -5.317   0.605  -1.244  0.00  0.00    +0.038 A 
ATOM     28  C   UNL     1      -5.616  -0.516   0.875  0.00  0.00    +0.038 A 
ATOM     29  C   UNL     1      -5.950  -0.369  -0.471  0.00  0.00    +0.123 A 
ENDBRANCH  23  24
ENDBRANCH   5  23
ENDBRANCH   8  17
BRANCH   6  10
ATOM     10  C   UNL     1       0.567  -2.507  -0.411  0.00  0.00    +0.026 C 
BRANCH  10  13
ATOM     13  C   UNL     1      -0.824  -2.932   0.069  0.00  0.00    -0.015 C 
ATOM     19  C   UNL     1      -1.222  -4.235  -0.628  0.00  0.00    +0.007 C 
ATOM     20  C   UNL     1      -1.888  -1.864  -0.185  0.00  0.00    +0.007 C 
ENDBRANCH  10  13
ENDBRANCH   6  10
TORSDOF 5
