REMARK  Name = 7051976
REMARK  6 active torsions:
REMARK  status: ('A' for Active; 'I' for Inactive)
REMARK    1  A    between atoms: N_3  and  C_16
REMARK    2  A    between atoms: N_5  and  C_27
REMARK    3  A    between atoms: N_6  and  C_20
REMARK    4  A    between atoms: N_7  and  C_31
REMARK    5  A    between atoms: C_16  and  C_19
REMARK    6  A    between atoms: C_34  and  C_37
REMARK                            x       y       z     vdW  Elec       q    Type
REMARK                         _______ _______ _______ _____ _____    ______ ____
ROOT
ATOM      1  O   UNL     1      -0.132  -3.033   1.496  0.00  0.00    -0.266 OA
ATOM      3  N   UNL     1       4.287  -0.832   0.627  0.00  0.00    -0.297 NA
ATOM      4  N   UNL     1       1.672  -2.579   0.083  0.00  0.00    -0.310 N 
ATOM      9  C   UNL     1       4.068  -3.330   0.598  0.00  0.00    +0.024 C 
ATOM     10  C   UNL     1       3.607  -2.057  -1.442  0.00  0.00    +0.050 C 
ATOM     11  C   UNL     1       4.230  -3.346  -0.916  0.00  0.00    +0.017 C 
ATOM     12  C   UNL     1       4.778  -2.095   1.192  0.00  0.00    +0.090 C 
ATOM     13  C   UNL     1       4.350  -0.841  -0.842  0.00  0.00    +0.094 C 
ATOM     14  C   UNL     1       2.571  -3.368   0.936  0.00  0.00    +0.130 C 
ATOM     15  C   UNL     1       2.128  -1.996  -1.104  0.00  0.00    +0.026 A 
ATOM     17  C   UNL     1       1.268  -1.371  -1.924  0.00  0.00    +0.024 A 
ATOM     18  C   UNL     1       0.318  -2.522   0.469  0.00  0.00    +0.273 A 
ATOM     20  C   UNL     1      -0.605  -1.798  -0.461  0.00  0.00    +0.100 A 
ATOM     21  C   UNL     1      -0.126  -1.270  -1.593  0.00  0.00    +0.030 A 
ENDROOT
BRANCH  20   6
ATOM      2  O   UNL     1      -2.385   0.306  -1.165  0.00  0.00    -0.252 OA
ATOM      6  N   UNL     1      -1.921  -1.710  -0.117  0.00  0.00    -0.265 N 
ATOM      7  N   UNL     1      -4.047  -0.855   0.018  0.00  0.00    -0.269 N 
ATOM     29  C   UNL     1      -2.759  -0.650  -0.489  0.00  0.00    +0.308 C 
ATOM     38  H   UNL     1      -2.240  -2.309   0.640  0.00  0.00    +0.157 HD
ATOM     39  H   UNL     1      -4.193  -1.705   0.557  0.00  0.00    +0.156 HD
BRANCH   7  31
ATOM     31  C   UNL     1      -5.181  -0.024  -0.131  0.00  0.00    +0.036 A 
ATOM     32  C   UNL     1      -6.381  -0.401   0.451  0.00  0.00    +0.042 A 
ATOM     33  C   UNL     1      -5.070   1.151  -0.856  0.00  0.00    +0.023 A 
ATOM     34  C   UNL     1      -7.500   0.419   0.303  0.00  0.00    +0.054 A 
ATOM     35  C   UNL     1      -6.189   1.972  -1.003  0.00  0.00    +0.003 A 
ATOM     36  C   UNL     1      -7.403   1.605  -0.424  0.00  0.00    +0.019 A 
BRANCH  34  37
ATOM      8  N   UNL     1      -9.756  -0.261   1.379  0.00  0.00    -0.191 NA
ATOM     37  C   UNL     1      -8.744   0.044   0.897  0.00  0.00    +0.099 C 
ENDBRANCH  34  37
ENDBRANCH   7  31
ENDBRANCH  20   6
BRANCH   3  16
ATOM     16  C   UNL     1       5.019   0.307   1.175  0.00  0.00    +0.121 C 
BRANCH  16  19
ATOM      5  N   UNL     1       4.332   3.660  -0.099  0.00  0.00    -0.349 N 
ATOM     19  C   UNL     1       4.460   1.618   0.691  0.00  0.00    -0.008 A 
ATOM     22  C   UNL     1       3.095   1.953   0.631  0.00  0.00    +0.004 A 
ATOM     23  C   UNL     1       5.206   2.663   0.245  0.00  0.00    +0.091 A 
ATOM     24  C   UNL     1       3.036   3.253   0.126  0.00  0.00    +0.049 A 
ATOM     25  C   UNL     1       1.891   1.294   0.950  0.00  0.00    +0.010 A 
ATOM     26  C   UNL     1       1.829   3.931  -0.076  0.00  0.00    +0.026 A 
ATOM     27  C   UNL     1       4.730   4.948  -0.624  0.00  0.00    +0.149 C 
ATOM     28  C   UNL     1       0.676   1.959   0.753  0.00  0.00    +0.001 A 
ATOM     30  C   UNL     1       0.647   3.258   0.247  0.00  0.00    +0.002 A 
ENDBRANCH  16  19
ENDBRANCH   3  16
TORSDOF 5
