REMARK  Name = 56775665
REMARK  9 active torsions:
REMARK  status: ('A' for Active; 'I' for Inactive)
REMARK    1  A    between atoms: O_3  and  C_16
REMARK    2  A    between atoms: O_4  and  C_18
REMARK    3  A    between atoms: O_4  and  C_22
REMARK    4  A    between atoms: N_5  and  C_7
REMARK    5  A    between atoms: N_5  and  C_11
REMARK    6  A    between atoms: C_7  and  C_10
REMARK    7  A    between atoms: C_10  and  C_12
REMARK    8  A    between atoms: C_11  and  C_13
REMARK    9  A    between atoms: C_15  and  C_18
REMARK                            x       y       z     vdW  Elec       q    Type
REMARK                         _______ _______ _______ _____ _____    ______ ____
ROOT
ATOM      1  O   UNL     1      -3.396  -3.225   1.756  0.00  0.00    -0.376 OA
ATOM      7  C   UNL     1      -2.426  -2.082   0.237  0.00  0.00    +0.072 C 
ATOM      8  C   UNL     1      -3.818  -2.647   0.500  0.00  0.00    +0.184 C 
ATOM      9  C   UNL     1      -2.034  -2.799   1.524  0.00  0.00    +0.184 C 
ENDROOT
BRANCH   7   5
ATOM      5  N   UNL     1      -2.449  -0.639   0.489  0.00  0.00    -0.302 NA
ATOM     28  H   UNL     1      -1.542  -0.222   0.695  0.00  0.00    +0.123 HD
BRANCH   5  11
ATOM     11  C   UNL     1      -3.056   0.040  -0.656  0.00  0.00    +0.120 C 
BRANCH  11  13
ATOM     13  C   UNL     1      -3.640   1.363  -0.287  0.00  0.00    +0.008 A 
ATOM     16  C   UNL     1      -2.982   2.549  -0.613  0.00  0.00    +0.121 A 
ATOM     17  C   UNL     1      -4.858   1.405   0.392  0.00  0.00    +0.008 A 
ATOM     19  C   UNL     1      -3.542   3.777  -0.261  0.00  0.00    +0.046 A 
ATOM     20  C   UNL     1      -5.418   2.633   0.745  0.00  0.00    +0.001 A 
ATOM     21  C   UNL     1      -4.760   3.819   0.418  0.00  0.00    +0.004 A 
BRANCH  16   3
ATOM      3  O   UNL     1      -1.792   2.526  -1.276  0.00  0.00    -0.506 OA
ATOM     29  H   UNL     1      -1.487   3.439  -1.414  0.00  0.00    +0.292 HD
ENDBRANCH  16   3
ENDBRANCH  11  13
ENDBRANCH   5  11
ENDBRANCH   7   5
BRANCH   7  10
ATOM     10  C   UNL     1      -1.726  -2.441  -1.038  0.00  0.00    +0.085 C 
BRANCH  10  12
ATOM      2  O   UNL     1       1.838  -2.668  -0.490  0.00  0.00    -0.356 OA
ATOM      6  N   UNL     1       0.555  -3.202  -0.480  0.00  0.00    -0.083 NA
ATOM     12  C   UNL     1      -0.234  -2.215  -0.914  0.00  0.00    +0.086 A 
ATOM     14  C   UNL     1       0.488  -1.046  -1.210  0.00  0.00    +0.074 A 
ATOM     15  C   UNL     1       1.785  -1.383  -0.926  0.00  0.00    +0.175 A 
BRANCH  15  18
ATOM     18  C   UNL     1       3.062  -0.662  -0.998  0.00  0.00    +0.306 C 
BRANCH  18   4
ATOM      4  O   UNL     1       3.497  -0.291   0.312  0.00  0.00    -0.484 OA
BRANCH   4  22
ATOM     22  C   UNL     1       4.646   0.446   0.387  0.00  0.00    +0.121 A 
ATOM     23  C   UNL     1       5.326   0.796  -0.779  0.00  0.00    +0.045 A 
ATOM     24  C   UNL     1       5.137   0.848   1.629  0.00  0.00    +0.045 A 
ATOM     25  C   UNL     1       6.498   1.548  -0.704  0.00  0.00    +0.004 A 
ATOM     26  C   UNL     1       6.309   1.600   1.704  0.00  0.00    +0.004 A 
ATOM     27  C   UNL     1       6.990   1.950   0.538  0.00  0.00    +0.000 A 
ENDBRANCH   4  22
ENDBRANCH  18   4
ENDBRANCH  15  18
ENDBRANCH  10  12
ENDBRANCH   7  10
TORSDOF 9
