REMARK  Name = 51137619
REMARK  5 active torsions:
REMARK  status: ('A' for Active; 'I' for Inactive)
REMARK    1  A    between atoms: N_2  and  C_8
REMARK    2  A    between atoms: N_5  and  C_23
REMARK    3  A    between atoms: C_7  and  C_8
REMARK    4  A    between atoms: C_9  and  C_18
REMARK    5  A    between atoms: C_19  and  C_20
REMARK                            x       y       z     vdW  Elec       q    Type
REMARK                         _______ _______ _______ _____ _____    ______ ____
ROOT
ATOM      2  N   UNL     1      -1.914  -1.518   0.521  0.00  0.00    -0.301 NA
ATOM      9  C   UNL     1       0.035  -2.701  -0.148  0.00  0.00    +0.092 C 
ATOM     12  C   UNL     1      -1.198  -1.951  -0.683  0.00  0.00    +0.097 C 
ATOM     13  C   UNL     1      -1.716  -2.582   1.504  0.00  0.00    +0.085 C 
ATOM     14  C   UNL     1      -0.233  -2.874   1.355  0.00  0.00    +0.029 C 
ENDROOT
BRANCH   9  18
ATOM      1  O   UNL     1       1.518  -0.761   0.045  0.00  0.00    -0.419 OA
ATOM      3  N   UNL     1       2.405  -2.477  -1.084  0.00  0.00    -0.112 NA
ATOM      4  N   UNL     1       3.339  -1.459  -1.051  0.00  0.00    -0.106 NA
ATOM     18  C   UNL     1       1.358  -2.026  -0.432  0.00  0.00    +0.222 A 
ATOM     19  C   UNL     1       2.779  -0.478  -0.382  0.00  0.00    +0.266 A 
BRANCH  19  20
ATOM      5  N   UNL     1       2.871   1.799   0.562  0.00  0.00    -0.329 N 
ATOM      6  N   UNL     1       4.901   2.473  -0.034  0.00  0.00    -0.243 NA
ATOM     20  C   UNL     1       3.423   0.758  -0.129  0.00  0.00    +0.125 A 
ATOM     21  C   UNL     1       4.676   1.197  -0.487  0.00  0.00    +0.143 A 
ATOM     22  C   UNL     1       3.795   2.806   0.594  0.00  0.00    +0.199 A 
ATOM     23  C   UNL     1       1.557   1.852   1.160  0.00  0.00    +0.150 C 
ENDBRANCH  19  20
ENDBRANCH   9  18
BRANCH   2   8
ATOM      8  C   UNL     1      -3.321  -1.246   0.268  0.00  0.00    +0.088 C 
BRANCH   8   7
ATOM      7  C   UNL     1      -3.507   0.149  -0.325  0.00  0.00    +0.003 C 
ATOM     10  C   UNL     1      -2.882   1.214   0.587  0.00  0.00    +0.005 C 
ATOM     11  C   UNL     1      -4.994   0.442  -0.567  0.00  0.00    +0.005 C 
ATOM     15  C   UNL     1      -3.102   2.623   0.041  0.00  0.00    +0.000 C 
ATOM     16  C   UNL     1      -5.210   1.852  -1.110  0.00  0.00    +0.000 C 
ATOM     17  C   UNL     1      -4.580   2.907  -0.206  0.00  0.00    +0.000 C 
ENDBRANCH   8   7
ENDBRANCH   2   8
TORSDOF 4
