REMARK  Name = 40781585
REMARK  8 active torsions:
REMARK  status: ('A' for Active; 'I' for Inactive)
REMARK    1  A    between atoms: S_1  and  N_10
REMARK    2  A    between atoms: S_1  and  C_24
REMARK    3  A    between atoms: O_3  and  C_13
REMARK    4  A    between atoms: O_4  and  C_14
REMARK    5  A    between atoms: N_10  and  C_17
REMARK    6  A    between atoms: C_12  and  C_16
REMARK    7  A    between atoms: C_15  and  C_17
REMARK    8  A    between atoms: C_16  and  C_18
REMARK                            x       y       z     vdW  Elec       q    Type
REMARK                         _______ _______ _______ _____ _____    ______ ____
ROOT
ATOM      2  O   UNL     1      -3.139  -0.591  -0.782  0.00  0.00    -0.366 OA
ATOM     12  C   UNL     1      -2.570  -1.701  -0.066  0.00  0.00    +0.158 C 
ATOM     13  C   UNL     1      -3.529  -1.988   1.077  0.00  0.00    +0.175 C 
ATOM     14  C   UNL     1      -4.866  -1.684   0.434  0.00  0.00    +0.175 C 
ATOM     15  C   UNL     1      -4.536  -0.471  -0.428  0.00  0.00    +0.165 C 
ENDROOT
BRANCH  13   3
ATOM      3  O   UNL     1      -3.419  -3.317   1.539  0.00  0.00    -0.387 OA
ATOM     29  H   UNL     1      -4.134  -3.462   2.182  0.00  0.00    +0.210 HD
ENDBRANCH  13   3
BRANCH  14   4
ATOM      4  O   UNL     1      -5.253  -2.751  -0.432  0.00  0.00    -0.387 OA
ATOM     30  H   UNL     1      -6.095  -2.497  -0.848  0.00  0.00    +0.210 HD
ENDBRANCH  14   4
BRANCH  12  16
ATOM     16  C   UNL     1      -1.169  -1.346   0.398  0.00  0.00    +0.130 C 
BRANCH  16  18
ATOM      5  O   UNL     1      -0.608  -1.829  -1.858  0.00  0.00    -0.276 OA
ATOM      8  N   UNL     1       1.126  -1.128  -0.480  0.00  0.00    -0.298 N 
ATOM      9  N   UNL     1       3.859  -0.263  -0.078  0.00  0.00    -0.312 N 
ATOM     11  N   UNL     1       5.932  -0.420   1.042  0.00  0.00    -0.240 NA
ATOM     18  C   UNL     1      -0.201  -1.458  -0.755  0.00  0.00    +0.218 C 
ATOM     19  C   UNL     1       2.125  -1.216  -1.542  0.00  0.00    +0.126 C 
ATOM     20  C   UNL     1       1.606  -0.678   0.829  0.00  0.00    +0.126 C 
ATOM     21  C   UNL     1       3.215  -0.158  -1.390  0.00  0.00    +0.125 C 
ATOM     22  C   UNL     1       3.109  -0.889   1.013  0.00  0.00    +0.125 C 
ATOM     23  C   UNL     1       5.163   0.189   0.112  0.00  0.00    +0.121 A 
ATOM     25  C   UNL     1       5.589   1.246  -0.676  0.00  0.00    +0.043 A 
ATOM     26  C   UNL     1       6.888   1.708  -0.497  0.00  0.00    +0.005 A 
ATOM     27  C   UNL     1       7.189   0.057   1.188  0.00  0.00    +0.113 A 
ATOM     28  C   UNL     1       7.710   1.107   0.450  0.00  0.00    +0.020 A 
ENDBRANCH  16  18
ENDBRANCH  12  16
BRANCH  15  17
ATOM     17  C   UNL     1      -4.719   0.850   0.307  0.00  0.00    +0.139 C 
BRANCH  17  10
ATOM     10  N   UNL     1      -4.380   1.966  -0.596  0.00  0.00    -0.192 NA
ATOM     31  H   UNL     1      -5.033   2.067  -1.384  0.00  0.00    +0.148 HD
BRANCH  10   1
ATOM      1  S   UNL     1      -3.765   3.414   0.066  0.00  0.00    +0.027 S 
ATOM      6  O   UNL     1      -3.788   4.461  -0.936  0.00  0.00    -0.158 OA
ATOM      7  O   UNL     1      -2.547   3.108   0.791  0.00  0.00    -0.158 OA
ATOM     24  C   UNL     1      -5.021   3.781   1.270  0.00  0.00    +0.214 C 
ENDBRANCH  10   1
ENDBRANCH  17  10
ENDBRANCH  15  17
TORSDOF 7
