REMARK  Name = 40780146
REMARK  12 active torsions:
REMARK  status: ('A' for Active; 'I' for Inactive)
REMARK    1  A    between atoms: O_2  and  C_27
REMARK    2  A    between atoms: O_2  and  C_35
REMARK    3  A    between atoms: O_3  and  C_29
REMARK    4  A    between atoms: O_3  and  C_36
REMARK    5  A    between atoms: O_4  and  C_34
REMARK    6  A    between atoms: O_4  and  C_37
REMARK    7  A    between atoms: N_6  and  C_21
REMARK    8  A    between atoms: N_7  and  C_18
REMARK    9  A    between atoms: N_9  and  C_26
REMARK   10  A    between atoms: C_11  and  C_17
REMARK   11  A    between atoms: C_12  and  C_18
REMARK   12  A    between atoms: C_20  and  C_23
REMARK                            x       y       z     vdW  Elec       q    Type
REMARK                         _______ _______ _______ _____ _____    ______ ____
ROOT
ATOM      5  N   UNL     1       0.626   3.908   0.515  0.00  0.00    -0.297 NA
ATOM     10  C   UNL     1      -0.593   2.972  -1.588  0.00  0.00    +0.002 C 
ATOM     11  C   UNL     1      -1.620   3.332  -0.480  0.00  0.00    +0.055 C 
ATOM     12  C   UNL     1       1.260   2.634   0.085  0.00  0.00    +0.074 C 
ATOM     13  C   UNL     1       0.428   1.960  -1.028  0.00  0.00    +0.024 C 
ATOM     14  C   UNL     1       0.183   4.266  -1.913  0.00  0.00    +0.019 C 
ATOM     15  C   UNL     1      -0.814   3.688   0.802  0.00  0.00    +0.094 C 
ATOM     16  C   UNL     1       0.732   4.870  -0.609  0.00  0.00    +0.085 C 
ENDROOT
BRANCH  11  17
ATOM      6  N   UNL     1      -3.979   2.737   0.243  0.00  0.00    -0.270 N 
ATOM      8  N   UNL     1      -4.833   1.717   0.432  0.00  0.00    -0.171 NA
ATOM     17  C   UNL     1      -2.748   2.349  -0.198  0.00  0.00    +0.044 A 
ATOM     19  C   UNL     1      -2.801   0.981  -0.305  0.00  0.00    +0.053 A 
ATOM     20  C   UNL     1      -4.108   0.647   0.095  0.00  0.00    +0.093 A 
ATOM     21  C   UNL     1      -4.419   4.086   0.514  0.00  0.00    +0.172 C 
BRANCH  20  23
ATOM     23  C   UNL     1      -4.677  -0.674   0.164  0.00  0.00    +0.006 A 
ATOM     24  C   UNL     1      -4.237  -1.669  -0.709  0.00  0.00    +0.059 A 
ATOM     25  C   UNL     1      -5.668  -0.958   1.103  0.00  0.00    +0.014 A 
ATOM     27  C   UNL     1      -4.789  -2.948  -0.643  0.00  0.00    +0.162 A 
ATOM     28  C   UNL     1      -6.220  -2.238   1.169  0.00  0.00    +0.050 A 
ATOM     29  C   UNL     1      -5.780  -3.233   0.296  0.00  0.00    +0.162 A 
BRANCH  27   2
ATOM      2  O   UNL     1      -4.351  -3.912  -1.501  0.00  0.00    -0.491 OA
ATOM     35  C   UNL     1      -3.336  -3.539  -2.430  0.00  0.00    +0.277 C 
ENDBRANCH  27   2
BRANCH  29   3
ATOM      3  O   UNL     1      -6.326  -4.479   0.371  0.00  0.00    -0.491 OA
ATOM     36  C   UNL     1      -7.333  -4.686   1.359  0.00  0.00    +0.277 C 
ENDBRANCH  29   3
ENDBRANCH  20  23
ENDBRANCH  11  17
BRANCH  12  18
ATOM     18  C   UNL     1       1.518   1.686   1.258  0.00  0.00    +0.124 C 
BRANCH  18   7
ATOM      1  O   UNL     1       4.362   1.359   1.167  0.00  0.00    -0.253 OA
ATOM      7  N   UNL     1       2.231   0.523   0.828  0.00  0.00    -0.298 N 
ATOM      9  N   UNL     1       4.047  -0.816   0.343  0.00  0.00    -0.269 N 
ATOM     22  C   UNL     1       3.635   0.435   0.810  0.00  0.00    +0.304 C 
ATOM     38  H   UNL     1       1.696  -0.280   0.514  0.00  0.00    +0.150 HD
ATOM     39  H   UNL     1       3.313  -1.472   0.087  0.00  0.00    +0.156 HD
BRANCH   9  26
ATOM     26  C   UNL     1       5.370  -1.289   0.179  0.00  0.00    +0.035 A 
ATOM     30  C   UNL     1       5.595  -2.578  -0.305  0.00  0.00    +0.027 A 
ATOM     31  C   UNL     1       6.450  -0.467   0.502  0.00  0.00    +0.027 A 
ATOM     32  C   UNL     1       6.899  -3.044  -0.467  0.00  0.00    +0.047 A 
ATOM     33  C   UNL     1       7.754  -0.934   0.341  0.00  0.00    +0.047 A 
ATOM     34  C   UNL     1       7.979  -2.222  -0.144  0.00  0.00    +0.120 A 
BRANCH  34   4
ATOM      4  O   UNL     1       9.252  -2.678  -0.302  0.00  0.00    -0.495 OA
ATOM     37  C   UNL     1      10.309  -1.785   0.048  0.00  0.00    +0.277 C 
ENDBRANCH  34   4
ENDBRANCH   9  26
ENDBRANCH  18   7
ENDBRANCH  12  18
TORSDOF 8
