REMARK  Name = 7051746
REMARK  8 active torsions:
REMARK  status: ('A' for Active; 'I' for Inactive)
REMARK    1  A    between atoms: N_2  and  C_13
REMARK    2  A    between atoms: N_4  and  C_27
REMARK    3  A    between atoms: N_5  and  C_28
REMARK    4  A    between atoms: N_5  and  C_34
REMARK    5  A    between atoms: N_5  and  C_35
REMARK    6  A    between atoms: C_13  and  C_16
REMARK    7  A    between atoms: C_17  and  C_21
REMARK    8  A    between atoms: C_23  and  C_28
REMARK                            x       y       z     vdW  Elec       q    Type
REMARK                         _______ _______ _______ _____ _____    ______ ____
ROOT
ATOM      1  O   UNL     1      -2.533   1.142  -2.087  0.00  0.00    -0.267 OA
ATOM      2  N   UNL     1       2.256   1.818  -0.761  0.00  0.00    -0.297 NA
ATOM      3  N   UNL     1      -0.924   1.773  -0.521  0.00  0.00    -0.311 N 
ATOM      6  C   UNL     1       0.664   3.751  -0.889  0.00  0.00    +0.024 C 
ATOM      7  C   UNL     1       0.809   2.445   1.177  0.00  0.00    +0.050 C 
ATOM      8  C   UNL     1       0.643   3.860   0.630  0.00  0.00    +0.017 C 
ATOM      9  C   UNL     1       2.000   3.135  -1.357  0.00  0.00    +0.090 C 
ATOM     10  C   UNL     1       2.162   1.864   0.706  0.00  0.00    +0.094 C 
ATOM     11  C   UNL     1      -0.553   2.934  -1.343  0.00  0.00    +0.130 C 
ATOM     12  C   UNL     1      -0.335   1.555   0.727  0.00  0.00    +0.026 A 
ATOM     14  C   UNL     1      -0.768   0.555   1.510  0.00  0.00    +0.022 A 
ATOM     15  C   UNL     1      -1.967   0.960  -1.007  0.00  0.00    +0.259 A 
ATOM     17  C   UNL     1      -2.407  -0.174  -0.122  0.00  0.00    +0.047 A 
ATOM     18  C   UNL     1      -1.816  -0.324   1.073  0.00  0.00    +0.015 A 
ENDROOT
BRANCH  17  21
ATOM     21  C   UNL     1      -3.459  -1.113  -0.550  0.00  0.00    -0.008 A 
ATOM     23  C   UNL     1      -4.806  -0.878  -0.264  0.00  0.00    -0.026 A 
ATOM     25  C   UNL     1      -3.091  -2.260  -1.256  0.00  0.00    +0.009 A 
ATOM     30  C   UNL     1      -5.779  -1.785  -0.683  0.00  0.00    +0.005 A 
ATOM     32  C   UNL     1      -4.064  -3.168  -1.674  0.00  0.00    +0.001 A 
ATOM     33  C   UNL     1      -5.408  -2.930  -1.387  0.00  0.00    +0.000 A 
BRANCH  23  28
ATOM     28  C   UNL     1      -5.240   0.338   0.489  0.00  0.00    +0.119 C 
BRANCH  28   5
ATOM      5  N   UNL     1      -5.260   0.082   1.912  0.00  0.00    -0.304 NA
ATOM     34  C   UNL     1      -6.188  -1.008   2.238  0.00  0.00    +0.104 C 
ATOM     35  C   UNL     1      -5.629   1.290   2.661  0.00  0.00    +0.104 C 
ENDBRANCH  28   5
ENDBRANCH  23  28
ENDBRANCH  17  21
BRANCH   2  13
ATOM     13  C   UNL     1       3.552   1.294  -1.185  0.00  0.00    +0.121 C 
BRANCH  13  16
ATOM      4  N   UNL     1       3.387  -2.195  -0.119  0.00  0.00    -0.349 N 
ATOM     16  C   UNL     1       3.755  -0.100  -0.659  0.00  0.00    -0.008 A 
ATOM     19  C   UNL     1       4.932  -0.587  -0.060  0.00  0.00    +0.004 A 
ATOM     20  C   UNL     1       2.820  -1.087  -0.690  0.00  0.00    +0.091 A 
ATOM     22  C   UNL     1       4.677  -1.918   0.275  0.00  0.00    +0.049 A 
ATOM     24  C   UNL     1       6.197  -0.043   0.238  0.00  0.00    +0.010 A 
ATOM     26  C   UNL     1       5.627  -2.736   0.896  0.00  0.00    +0.026 A 
ATOM     27  C   UNL     1       2.714  -3.466   0.039  0.00  0.00    +0.149 C 
ATOM     29  C   UNL     1       7.158  -0.849   0.859  0.00  0.00    +0.001 A 
ATOM     31  C   UNL     1       6.875  -2.175   1.182  0.00  0.00    +0.002 A 
ENDBRANCH  13  16
ENDBRANCH   2  13
TORSDOF 5
