REMARK  Name = 7134581
REMARK  13 active torsions:
REMARK  status: ('A' for Active; 'I' for Inactive)
REMARK    1  A    between atoms: S_1  and  C_31
REMARK    2  A    between atoms: S_1  and  C_33
REMARK    3  A    between atoms: O_6  and  C_32
REMARK    4  A    between atoms: N_9  and  C_22
REMARK    5  A    between atoms: N_10  and  C_19
REMARK    6  A    between atoms: C_12  and  C_15
REMARK    7  A    between atoms: C_15  and  C_22
REMARK    8  A    between atoms: C_16  and  C_25
REMARK    9  A    between atoms: C_22  and  C_27
REMARK   10  A    between atoms: C_26  and  C_28
REMARK   11  A    between atoms: C_28  and  C_30
REMARK   12  A    between atoms: C_29  and  C_31
REMARK   13  A    between atoms: C_30  and  C_32
REMARK                            x       y       z     vdW  Elec       q    Type
REMARK                         _______ _______ _______ _____ _____    ______ ____
ROOT
ATOM      3  O   UNL     1      -0.182   3.547   1.627  0.00  0.00    -0.276 OA
ATOM      8  N   UNL     1       0.769   1.690   0.592  0.00  0.00    -0.290 N 
ATOM     16  C   UNL     1       0.657   0.545  -0.326  0.00  0.00    +0.164 C 
ATOM     19  C   UNL     1       3.175   0.173  -0.068  0.00  0.00    +0.077 C 
ATOM     20  C   UNL     1       1.976   0.198  -1.020  0.00  0.00    +0.054 C 
ATOM     23  C   UNL     1       3.235   1.468   0.740  0.00  0.00    +0.041 C 
ATOM     24  C   UNL     1       1.930   1.701   1.490  0.00  0.00    +0.110 C 
ATOM     26  C   UNL     1      -0.220   2.667   0.763  0.00  0.00    +0.217 C 
ENDROOT
BRANCH  16  25
ATOM      2  O   UNL     1       0.382  -0.741   1.668  0.00  0.00    -0.274 OA
ATOM      9  N   UNL     1      -0.652  -1.462  -0.289  0.00  0.00    -0.302 N 
ATOM     25  C   UNL     1       0.121  -0.605   0.476  0.00  0.00    +0.234 C 
ATOM     34  H   UNL     1      -0.730  -1.296  -1.289  0.00  0.00    +0.150 HD
BRANCH   9  22
ATOM     22  C   UNL     1      -1.265  -2.658   0.240  0.00  0.00    +0.159 C 
BRANCH  22  27
ATOM      4  O   UNL     1       0.561  -3.929  -0.737  0.00  0.00    -0.274 OA
ATOM     11  N   UNL     1      -0.373  -4.683   1.221  0.00  0.00    -0.328 N 
ATOM     27  C   UNL     1      -0.255  -3.796   0.172  0.00  0.00    +0.231 C 
ATOM     36  H   UNL     1       0.236  -5.492   1.289  0.00  0.00    +0.145 HD
ATOM     37  H   UNL     1      -1.065  -4.573   1.955  0.00  0.00    +0.145 HD
ENDBRANCH  22  27
BRANCH  22  15
ATOM     15  C   UNL     1      -2.584  -2.993  -0.463  0.00  0.00    +0.035 C 
BRANCH  15  12
ATOM     12  C   UNL     1      -3.610  -1.861  -0.443  0.00  0.00    -0.009 C 
ATOM     13  C   UNL     1      -3.945  -1.459   0.999  0.00  0.00    +0.003 C 
ATOM     14  C   UNL     1      -4.878  -2.265  -1.207  0.00  0.00    +0.003 C 
ATOM     17  C   UNL     1      -5.008  -0.364   1.047  0.00  0.00    +0.000 C 
ATOM     18  C   UNL     1      -5.940  -1.169  -1.155  0.00  0.00    +0.000 C 
ATOM     21  C   UNL     1      -6.264  -0.766   0.280  0.00  0.00    +0.000 C 
ENDBRANCH  15  12
ENDBRANCH  22  15
ENDBRANCH   9  22
ENDBRANCH  16  25
BRANCH  19  10
ATOM      5  O   UNL     1       5.562  -1.172   0.864  0.00  0.00    -0.275 OA
ATOM     10  N   UNL     1       4.404  -0.029  -0.796  0.00  0.00    -0.312 N 
ATOM     29  C   UNL     1       5.502  -0.689  -0.266  0.00  0.00    +0.223 C 
ATOM     35  H   UNL     1       4.481   0.392  -1.717  0.00  0.00    +0.149 HD
BRANCH  29  31
ATOM     31  C   UNL     1       6.671  -0.754  -1.220  0.00  0.00    +0.164 C 
BRANCH  31   1
ATOM      1  S   UNL     1       8.098   0.051  -0.455  0.00  0.00    -0.155 S 
ATOM     33  C   UNL     1       7.651   1.770  -0.793  0.00  0.00    +0.085 C 
ENDBRANCH  31   1
ENDBRANCH  29  31
ENDBRANCH  19  10
BRANCH  26  28
ATOM     28  C   UNL     1      -1.389   2.623  -0.190  0.00  0.00    +0.107 C 
BRANCH  28  30
ATOM     30  C   UNL     1      -2.357   3.743   0.134  0.00  0.00    +0.129 C 
BRANCH  30  32
ATOM      7  O   UNL     1      -3.737   2.856  -1.640  0.00  0.00    -0.251 OA
ATOM     32  C   UNL     1      -3.574   3.687  -0.756  0.00  0.00    +0.305 C 
BRANCH  32   6
ATOM      6  O   UNL     1      -4.463   4.675  -0.488  0.00  0.00    -0.481 OA
ATOM     38  H   UNL     1      -5.244   4.635  -1.079  0.00  0.00    +0.295 HD
ENDBRANCH  32   6
ENDBRANCH  30  32
ENDBRANCH  28  30
ENDBRANCH  26  28
TORSDOF 12
