REMARK  Name = 11883985
REMARK  6 active torsions:
REMARK  status: ('A' for Active; 'I' for Inactive)
REMARK    1  A    between atoms: O_6  and  C_14
REMARK    2  A    between atoms: O_6  and  C_18
REMARK    3  A    between atoms: N_9  and  C_13
REMARK    4  A    between atoms: N_10  and  C_22
REMARK    5  A    between atoms: C_17  and  C_19
REMARK    6  A    between atoms: C_26  and  C_32
REMARK                            x       y       z     vdW  Elec       q    Type
REMARK                         _______ _______ _______ _____ _____    ______ ____
ROOT
ATOM      4  O   UNL     1       0.326  -1.643  -0.737  0.00  0.00    -0.368 OA
ATOM      5  O   UNL     1      -0.238  -4.139   0.952  0.00  0.00    -0.368 OA
ATOM     11  C   UNL     1      -0.871  -2.843   0.921  0.00  0.00    +0.173 C 
ATOM     12  C   UNL     1       0.226  -1.824   0.685  0.00  0.00    +0.192 C 
ATOM     13  C   UNL     1      -1.747  -2.722  -0.304  0.00  0.00    +0.130 C 
ATOM     14  C   UNL     1       1.443  -2.518   1.248  0.00  0.00    +0.235 C 
ATOM     15  C   UNL     1      -0.744  -2.351  -1.382  0.00  0.00    +0.185 C 
ATOM     16  C   UNL     1       1.185  -3.962   0.881  0.00  0.00    +0.207 C 
ENDROOT
BRANCH  13   9
ATOM      7  O   UNL     1      -4.286  -2.557  -1.635  0.00  0.00    -0.270 OA
ATOM      9  N   UNL     1      -2.743  -1.692  -0.136  0.00  0.00    -0.304 N 
ATOM     17  C   UNL     1      -3.946  -1.698  -0.827  0.00  0.00    +0.244 C 
ATOM     36  H   UNL     1      -2.482  -0.890   0.429  0.00  0.00    +0.149 HD
BRANCH  17  19
ATOM     19  C   UNL     1      -4.854  -0.551  -0.562  0.00  0.00    +0.037 A 
ATOM     20  C   UNL     1      -4.776   0.092   0.656  0.00  0.00    +0.013 A 
ATOM     21  C   UNL     1      -5.746  -0.168  -1.541  0.00  0.00    +0.013 A 
ATOM     24  C   UNL     1      -5.629   1.167   0.906  0.00  0.00    +0.013 A 
ATOM     25  C   UNL     1      -6.599   0.907  -1.291  0.00  0.00    +0.013 A 
ATOM     26  C   UNL     1      -6.541   1.575  -0.068  0.00  0.00    +0.055 A 
BRANCH  26  32
ATOM      1  F   UNL     1      -8.274   2.534   1.273  0.00  0.00    -0.166 F 
ATOM      2  F   UNL     1      -8.289   3.012  -0.842  0.00  0.00    -0.166 F 
ATOM      3  F   UNL     1      -6.776   3.882   0.456  0.00  0.00    -0.166 F 
ATOM     32  C   UNL     1      -7.452   2.725   0.199  0.00  0.00    +0.417 C 
ENDBRANCH  26  32
ENDBRANCH  17  19
ENDBRANCH  13   9
BRANCH  14   6
ATOM      6  O   UNL     1       2.658  -2.044   0.714  0.00  0.00    -0.442 OA
BRANCH   6  18
ATOM      8  O   UNL     1       2.247   0.023   1.601  0.00  0.00    -0.226 OA
ATOM     10  N   UNL     1       4.187  -0.422   0.369  0.00  0.00    -0.251 N 
ATOM     18  C   UNL     1       2.973  -0.723   0.956  0.00  0.00    +0.405 C 
ATOM     37  H   UNL     1       4.617  -1.199  -0.119  0.00  0.00    +0.158 HD
BRANCH  10  22
ATOM     22  C   UNL     1       4.874   0.813   0.374  0.00  0.00    +0.044 A 
ATOM     23  C   UNL     1       6.105   0.963  -0.269  0.00  0.00    +0.003 A 
ATOM     27  C   UNL     1       4.271   1.868   1.047  0.00  0.00    +0.024 A 
ATOM     28  C   UNL     1       6.747   2.223  -0.229  0.00  0.00    -0.016 A 
ATOM     29  C   UNL     1       6.721  -0.100  -0.951  0.00  0.00    +0.010 A 
ATOM     30  C   UNL     1       4.901   3.108   1.086  0.00  0.00    +0.002 A 
ATOM     31  C   UNL     1       6.131   3.286   0.452  0.00  0.00    +0.008 A 
ATOM     33  C   UNL     1       7.985   2.385  -0.873  0.00  0.00    +0.008 A 
ATOM     34  C   UNL     1       7.951   0.078  -1.584  0.00  0.00    +0.001 A 
ATOM     35  C   UNL     1       8.582   1.318  -1.545  0.00  0.00    +0.001 A 
ENDBRANCH  10  22
ENDBRANCH   6  18
ENDBRANCH  14   6
TORSDOF 6
