REMARK  Name = 40778244
REMARK  9 active torsions:
REMARK  status: ('A' for Active; 'I' for Inactive)
REMARK    1  A    between atoms: O_2  and  C_9
REMARK    2  A    between atoms: O_3  and  C_10
REMARK    3  A    between atoms: N_6  and  C_14
REMARK    4  A    between atoms: N_7  and  C_17
REMARK    5  A    between atoms: C_11  and  C_13
REMARK    6  A    between atoms: C_12  and  C_14
REMARK    7  A    between atoms: C_13  and  C_15
REMARK    8  A    between atoms: C_16  and  C_18
REMARK    9  A    between atoms: C_17  and  C_19
REMARK                            x       y       z     vdW  Elec       q    Type
REMARK                         _______ _______ _______ _____ _____    ______ ____
ROOT
ATOM      1  O   UNL     1      -2.176  -0.344   0.486  0.00  0.00    -0.366 OA
ATOM      9  C   UNL     1      -4.324  -0.383  -0.486  0.00  0.00    +0.175 C 
ATOM     10  C   UNL     1      -4.216  -1.568   0.452  0.00  0.00    +0.176 C 
ATOM     11  C   UNL     1      -3.233   0.529   0.048  0.00  0.00    +0.158 C 
ATOM     12  C   UNL     1      -2.708  -1.678   0.650  0.00  0.00    +0.167 C 
ENDROOT
BRANCH   9   2
ATOM      2  O   UNL     1      -5.592   0.236  -0.461  0.00  0.00    -0.387 OA
ATOM     29  H   UNL     1      -6.250  -0.437  -0.703  0.00  0.00    +0.210 HD
ENDBRANCH   9   2
BRANCH  10   3
ATOM      3  O   UNL     1      -4.807  -1.257   1.713  0.00  0.00    -0.387 OA
ATOM     30  H   UNL     1      -4.681  -2.028   2.291  0.00  0.00    +0.210 HD
ENDBRANCH  10   3
BRANCH  11  13
ATOM     13  C   UNL     1      -2.697   1.500  -0.990  0.00  0.00    +0.130 C 
BRANCH  13  15
ATOM      4  O   UNL     1      -2.415   3.708  -0.045  0.00  0.00    -0.276 OA
ATOM      7  N   UNL     1      -0.568   2.310  -0.229  0.00  0.00    -0.311 N 
ATOM     15  C   UNL     1      -1.908   2.638  -0.370  0.00  0.00    +0.216 C 
ATOM     32  H   UNL     1      -0.257   1.388  -0.523  0.00  0.00    +0.149 HD
BRANCH   7  17
ATOM     17  C   UNL     1       0.410   3.213   0.333  0.00  0.00    +0.141 C 
BRANCH  17  19
ATOM      8  N   UNL     1       3.330   1.059   1.400  0.00  0.00    -0.263 NA
ATOM     19  C   UNL     1       1.782   2.604   0.368  0.00  0.00    -0.012 A 
ATOM     22  C   UNL     1       2.760   2.985  -0.544  0.00  0.00    +0.008 A 
ATOM     23  C   UNL     1       2.115   1.646   1.312  0.00  0.00    +0.115 A 
ATOM     27  C   UNL     1       4.022   2.405  -0.485  0.00  0.00    +0.020 A 
ATOM     28  C   UNL     1       4.254   1.455   0.497  0.00  0.00    +0.111 A 
ENDBRANCH  17  19
ENDBRANCH   7  17
ENDBRANCH  13  15
ENDBRANCH  11  13
BRANCH  12  14
ATOM     14  C   UNL     1      -2.036  -2.578  -0.378  0.00  0.00    +0.138 C 
BRANCH  14   6
ATOM      5  O   UNL     1      -0.035  -0.850  -1.498  0.00  0.00    -0.270 OA
ATOM      6  N   UNL     1      -0.622  -2.650  -0.157  0.00  0.00    -0.309 N 
ATOM     16  C   UNL     1       0.280  -1.766  -0.744  0.00  0.00    +0.244 C 
ATOM     31  H   UNL     1      -0.290  -3.421   0.412  0.00  0.00    +0.149 HD
BRANCH  16  18
ATOM     18  C   UNL     1       1.716  -1.991  -0.436  0.00  0.00    +0.037 A 
ATOM     20  C   UNL     1       2.697  -1.586  -1.341  0.00  0.00    +0.013 A 
ATOM     21  C   UNL     1       2.083  -2.607   0.760  0.00  0.00    +0.013 A 
ATOM     24  C   UNL     1       4.045  -1.798  -1.051  0.00  0.00    +0.001 A 
ATOM     25  C   UNL     1       3.431  -2.819   1.051  0.00  0.00    +0.001 A 
ATOM     26  C   UNL     1       4.412  -2.414   0.145  0.00  0.00    +0.000 A 
ENDBRANCH  16  18
ENDBRANCH  14   6
ENDBRANCH  12  14
TORSDOF 9
