REMARK  Name = 75536457
REMARK  15 active torsions:
REMARK  status: ('A' for Active; 'I' for Inactive)
REMARK    1  A    between atoms: S_1  and  N_11
REMARK    2  A    between atoms: S_1  and  C_25
REMARK    3  A    between atoms: O_3  and  C_13
REMARK    4  A    between atoms: O_6  and  C_32
REMARK    5  A    between atoms: O_6  and  C_34
REMARK    6  A    between atoms: O_7  and  C_33
REMARK    7  A    between atoms: N_10  and  C_12
REMARK    8  A    between atoms: N_10  and  C_17
REMARK    9  A    between atoms: N_10  and  C_18
REMARK   10  A    between atoms: N_11  and  C_16
REMARK   11  A    between atoms: C_14  and  C_16
REMARK   12  A    between atoms: C_17  and  C_19
REMARK   13  A    between atoms: C_18  and  C_20
REMARK   14  A    between atoms: C_30  and  C_32
REMARK   15  A    between atoms: C_31  and  C_33
REMARK                            x       y       z     vdW  Elec       q    Type
REMARK                         _______ _______ _______ _____ _____    ______ ____
ROOT
ATOM     10  N   UNL     1      -0.254  -0.785   0.847  0.00  0.00    -0.286 NA
ENDROOT
BRANCH  10  12
ATOM      2  O   UNL     1       3.354  -0.326   0.886  0.00  0.00    -0.371 OA
ATOM     12  C   UNL     1       1.116  -1.020   1.273  0.00  0.00    +0.114 C 
ATOM     13  C   UNL     1       1.831  -2.085   0.462  0.00  0.00    +0.164 C 
ATOM     14  C   UNL     1       3.286  -1.757   0.766  0.00  0.00    +0.164 C 
ATOM     15  C   UNL     1       2.019   0.182   1.054  0.00  0.00    +0.181 C 
BRANCH  13   3
ATOM      3  O   UNL     1       1.491  -3.398   0.864  0.00  0.00    -0.388 OA
ATOM     35  H   UNL     1       1.674  -3.483   1.815  0.00  0.00    +0.210 HD
ENDBRANCH  13   3
BRANCH  14  16
ATOM     16  C   UNL     1       4.246  -2.227  -0.313  0.00  0.00    +0.139 C 
BRANCH  16  11
ATOM     11  N   UNL     1       5.628  -1.868   0.063  0.00  0.00    -0.192 NA
ATOM     36  H   UNL     1       5.970  -2.376   0.889  0.00  0.00    +0.148 HD
BRANCH  11   1
ATOM      1  S   UNL     1       6.772  -1.571  -1.167  0.00  0.00    +0.027 S 
ATOM      4  O   UNL     1       8.107  -1.540  -0.601  0.00  0.00    -0.158 OA
ATOM      5  O   UNL     1       6.290  -0.478  -1.989  0.00  0.00    -0.158 OA
ATOM     25  C   UNL     1       6.619  -3.063  -2.124  0.00  0.00    +0.214 C 
ENDBRANCH  11   1
ENDBRANCH  16  11
ENDBRANCH  14  16
ENDBRANCH  10  12
BRANCH  10  17
ATOM     17  C   UNL     1      -1.069  -1.990   1.023  0.00  0.00    +0.120 C 
BRANCH  17  19
ATOM     19  C   UNL     1      -2.494  -1.772   0.589  0.00  0.00    -0.033 A 
ATOM     21  C   UNL     1      -3.536  -1.959   1.497  0.00  0.00    +0.006 A 
ATOM     22  C   UNL     1      -2.772  -1.383  -0.721  0.00  0.00    +0.006 A 
ATOM     26  C   UNL     1      -4.857  -1.757   1.095  0.00  0.00    +0.015 A 
ATOM     27  C   UNL     1      -4.093  -1.181  -1.123  0.00  0.00    +0.015 A 
ATOM     30  C   UNL     1      -5.135  -1.368  -0.215  0.00  0.00    +0.059 A 
BRANCH  30  32
ATOM      8  O   UNL     1      -7.497  -1.297   0.101  0.00  0.00    -0.245 OA
ATOM     32  C   UNL     1      -6.511  -1.156  -0.635  0.00  0.00    +0.339 C 
BRANCH  32   6
ATOM      6  O   UNL     1      -6.585  -0.779  -1.948  0.00  0.00    -0.464 OA
ATOM     34  C   UNL     1      -7.892  -0.540  -2.480  0.00  0.00    +0.280 C 
ENDBRANCH  32   6
ENDBRANCH  30  32
ENDBRANCH  17  19
ENDBRANCH  10  17
BRANCH  10  18
ATOM     18  C   UNL     1      -0.844   0.335   1.587  0.00  0.00    +0.120 C 
BRANCH  18  20
ATOM     20  C   UNL     1      -0.413   1.665   1.029  0.00  0.00    -0.033 A 
ATOM     23  C   UNL     1      -0.678   1.982  -0.303  0.00  0.00    +0.006 A 
ATOM     24  C   UNL     1       0.253   2.581   1.845  0.00  0.00    +0.006 A 
ATOM     28  C   UNL     1      -0.278   3.214  -0.820  0.00  0.00    +0.015 A 
ATOM     29  C   UNL     1       0.652   3.813   1.328  0.00  0.00    +0.015 A 
ATOM     31  C   UNL     1       0.387   4.130  -0.005  0.00  0.00    +0.059 A 
BRANCH  31  33
ATOM      9  O   UNL     1       0.620   5.799  -1.703  0.00  0.00    -0.245 OA
ATOM     33  C   UNL     1       0.803   5.415  -0.543  0.00  0.00    +0.337 C 
BRANCH  33   7
ATOM      7  O   UNL     1       1.436   6.186   0.383  0.00  0.00    -0.477 OA
ATOM     37  H   UNL     1       1.713   7.051   0.010  0.00  0.00    +0.295 HD
ENDBRANCH  33   7
ENDBRANCH  31  33
ENDBRANCH  18  20
ENDBRANCH  10  18
TORSDOF 13
