REMARK  Name = 25338987
REMARK  8 active torsions:
REMARK  status: ('A' for Active; 'I' for Inactive)
REMARK    1  A    between atoms: O_2  and  C_16
REMARK    2  A    between atoms: O_2  and  C_25
REMARK    3  A    between atoms: O_5  and  C_26
REMARK    4  A    between atoms: O_5  and  C_29
REMARK    5  A    between atoms: N_7  and  C_14
REMARK    6  A    between atoms: C_9  and  C_16
REMARK    7  A    between atoms: C_14  and  C_18
REMARK    8  A    between atoms: C_17  and  C_19
REMARK                            x       y       z     vdW  Elec       q    Type
REMARK                         _______ _______ _______ _____ _____    ______ ____
ROOT
ATOM      4  O   UNL     1       4.301  -0.164   0.930  0.00  0.00    -0.269 OA
ATOM      6  N   UNL     1       2.192   0.356   0.044  0.00  0.00    -0.277 N 
ATOM      7  N   UNL     1      -0.786   0.828  -2.177  0.00  0.00    -0.328 N 
ATOM      8  N   UNL     1      -0.066   2.935  -2.346  0.00  0.00    -0.240 NA
ATOM      9  C   UNL     1       2.327   1.801   0.363  0.00  0.00    +0.191 C 
ATOM     10  C   UNL     1       1.914   2.750  -0.781  0.00  0.00    +0.091 C 
ATOM     11  C   UNL     1       0.311   0.924  -1.375  0.00  0.00    +0.059 A 
ATOM     12  C   UNL     1       0.910  -0.134  -0.541  0.00  0.00    +0.164 C 
ATOM     13  C   UNL     1       0.732   2.225  -1.493  0.00  0.00    +0.066 A 
ATOM     15  C   UNL     1      -0.973   2.065  -2.741  0.00  0.00    +0.200 A 
ATOM     17  C   UNL     1       3.226  -0.509   0.443  0.00  0.00    +0.254 C 
ENDROOT
BRANCH  17  19
ATOM      1  S   UNL     1       4.099  -2.839  -0.718  0.00  0.00    -0.092 S 
ATOM     19  C   UNL     1       3.023  -1.955   0.278  0.00  0.00    +0.074 A 
ATOM     22  C   UNL     1       2.049  -2.759   0.828  0.00  0.00    +0.021 A 
ATOM     27  C   UNL     1       2.188  -4.119   0.427  0.00  0.00    +0.008 A 
ATOM     28  C   UNL     1       3.263  -4.303  -0.414  0.00  0.00    +0.046 A 
ENDBRANCH  17  19
BRANCH   9  16
ATOM      3  O   UNL     1       0.842   1.164   2.152  0.00  0.00    -0.249 OA
ATOM     16  C   UNL     1       1.515   2.027   1.607  0.00  0.00    +0.328 C 
BRANCH  16   2
ATOM      2  O   UNL     1       1.653   3.322   2.012  0.00  0.00    -0.467 OA
ATOM     25  C   UNL     1       0.928   3.677   3.194  0.00  0.00    +0.280 C 
ENDBRANCH  16   2
ENDBRANCH   9  16
BRANCH   7  14
ATOM     14  C   UNL     1      -1.608  -0.337  -2.398  0.00  0.00    +0.158 C 
BRANCH  14  18
ATOM     18  C   UNL     1      -2.567  -0.616  -1.267  0.00  0.00    -0.028 A 
ATOM     20  C   UNL     1      -2.538  -1.849  -0.615  0.00  0.00    +0.009 A 
ATOM     21  C   UNL     1      -3.482   0.360  -0.874  0.00  0.00    +0.009 A 
ATOM     23  C   UNL     1      -3.425  -2.105   0.430  0.00  0.00    +0.046 A 
ATOM     24  C   UNL     1      -4.370   0.103   0.172  0.00  0.00    +0.046 A 
ATOM     26  C   UNL     1      -4.340  -1.130   0.824  0.00  0.00    +0.120 A 
BRANCH  26   5
ATOM      5  O   UNL     1      -5.205  -1.380   1.844  0.00  0.00    -0.495 OA
ATOM     29  C   UNL     1      -6.115  -0.338   2.195  0.00  0.00    +0.277 C 
ENDBRANCH  26   5
ENDBRANCH  14  18
ENDBRANCH   7  14
TORSDOF 6
