REMARK  Name = 75536051
REMARK  6 active torsions:
REMARK  status: ('A' for Active; 'I' for Inactive)
REMARK    1  A    between atoms: S_1  and  N_6
REMARK    2  A    between atoms: S_1  and  C_14
REMARK    3  A    between atoms: N_7  and  N_8
REMARK    4  A    between atoms: C_9  and  C_13
REMARK    5  A    between atoms: C_15  and  C_16
REMARK    6  A    between atoms: C_16  and  C_17
REMARK                            x       y       z     vdW  Elec       q    Type
REMARK                         _______ _______ _______ _____ _____    ______ ____
ROOT
ATOM      4  O   UNL     1       0.529  -0.414   1.449  0.00  0.00    -0.274 OA
ATOM      7  N   UNL     1       0.076  -2.358   0.262  0.00  0.00    -0.234 N 
ATOM     13  C   UNL     1       0.899  -1.396   0.810  0.00  0.00    +0.233 C 
ATOM     23  H   UNL     1       0.407  -3.176  -0.239  0.00  0.00    +0.173 HD
ENDROOT
BRANCH  13   9
ATOM      6  N   UNL     1       3.230   0.504  -0.017  0.00  0.00    -0.181 NA
ATOM      9  C   UNL     1       2.349  -1.645   0.517  0.00  0.00    +0.093 C 
ATOM     10  C   UNL     1       2.638  -1.616  -0.973  0.00  0.00    +0.031 C 
ATOM     11  C   UNL     1       3.220  -0.521   1.064  0.00  0.00    +0.122 C 
ATOM     12  C   UNL     1       2.818  -0.137  -1.297  0.00  0.00    +0.110 C 
BRANCH   6   1
ATOM      1  S   UNL     1       4.519   1.609  -0.051  0.00  0.00    +0.029 S 
ATOM      2  O   UNL     1       4.868   1.979   1.308  0.00  0.00    -0.158 OA
ATOM      3  O   UNL     1       4.258   2.619  -1.059  0.00  0.00    -0.158 OA
ATOM     14  C   UNL     1       5.804   0.549  -0.668  0.00  0.00    +0.215 C 
ENDBRANCH   6   1
ENDBRANCH  13   9
BRANCH   7   8
ATOM      5  O   UNL     1      -1.546  -1.004  -1.520  0.00  0.00    -0.274 OA
ATOM      8  N   UNL     1      -1.282  -2.242   0.424  0.00  0.00    -0.234 N 
ATOM     15  C   UNL     1      -2.011  -1.546  -0.519  0.00  0.00    +0.233 C 
ATOM     24  H   UNL     1      -1.683  -2.689   1.242  0.00  0.00    +0.173 HD
BRANCH  15  16
ATOM     16  C   UNL     1      -3.494  -1.522  -0.214  0.00  0.00    +0.132 C 
BRANCH  16  17
ATOM     17  C   UNL     1      -4.005  -0.114  -0.061  0.00  0.00    -0.039 A 
ATOM     18  C   UNL     1      -3.999   0.498   1.193  0.00  0.00    +0.004 A 
ATOM     19  C   UNL     1      -4.485   0.578  -1.173  0.00  0.00    +0.004 A 
ATOM     20  C   UNL     1      -4.473   1.802   1.334  0.00  0.00    +0.000 A 
ATOM     21  C   UNL     1      -4.958   1.882  -1.031  0.00  0.00    +0.000 A 
ATOM     22  C   UNL     1      -4.952   2.494   0.222  0.00  0.00    +0.000 A 
ENDBRANCH  16  17
ENDBRANCH  15  16
ENDBRANCH   7   8
TORSDOF 5
