REMARK  Name = 51137134
REMARK  6 active torsions:
REMARK  status: ('A' for Active; 'I' for Inactive)
REMARK    1  A    between atoms: S_1  and  C_19
REMARK    2  A    between atoms: S_1  and  C_24
REMARK    3  A    between atoms: N_7  and  C_14
REMARK    4  A    between atoms: C_9  and  C_13
REMARK    5  A    between atoms: C_14  and  C_15
REMARK    6  A    between atoms: C_24  and  C_28
REMARK                            x       y       z     vdW  Elec       q    Type
REMARK                         _______ _______ _______ _____ _____    ______ ____
ROOT
ATOM      7  N   UNL     1      -2.653  -0.513  -0.171  0.00  0.00    -0.297 NA
ATOM      9  C   UNL     1      -0.529  -1.215   0.530  0.00  0.00    +0.090 C 
ATOM     10  C   UNL     1      -1.192  -0.389   1.646  0.00  0.00    +0.029 C 
ATOM     11  C   UNL     1      -1.357  -0.908  -0.725  0.00  0.00    +0.097 C 
ATOM     12  C   UNL     1      -2.331   0.355   0.962  0.00  0.00    +0.085 C 
ENDROOT
BRANCH   9  13
ATOM      4  O   UNL     1       1.768  -2.030   0.508  0.00  0.00    -0.439 OA
ATOM      8  N   UNL     1       1.546   0.175   0.035  0.00  0.00    -0.213 NA
ATOM     13  C   UNL     1       0.948  -0.955   0.341  0.00  0.00    +0.201 A 
ATOM     16  C   UNL     1       2.875  -0.172  -0.005  0.00  0.00    +0.111 A 
ATOM     17  C   UNL     1       3.014  -1.521   0.284  0.00  0.00    +0.155 A 
ATOM     18  C   UNL     1       4.024   0.586  -0.276  0.00  0.00    +0.058 A 
ATOM     19  C   UNL     1       5.266  -0.065  -0.241  0.00  0.00    +0.090 A 
ATOM     22  C   UNL     1       4.226  -2.200   0.328  0.00  0.00    +0.050 A 
ATOM     23  C   UNL     1       5.362  -1.431   0.055  0.00  0.00    +0.030 A 
BRANCH  19   1
ATOM      1  S   UNL     1       6.720   0.847  -0.576  0.00  0.00    -0.003 S 
ATOM      5  O   UNL     1       7.752  -0.070  -1.039  0.00  0.00    -0.169 OA
ATOM      6  O   UNL     1       6.349   1.993  -1.392  0.00  0.00    -0.169 OA
BRANCH   1  24
ATOM     24  C   UNL     1       7.236   1.450   1.015  0.00  0.00    +0.168 C 
ATOM     28  C   UNL     1       8.501   2.273   0.912  0.00  0.00    +0.028 C 
ENDBRANCH   1  24
ENDBRANCH  19   1
ENDBRANCH   9  13
BRANCH   7  14
ATOM     14  C   UNL     1      -3.498   0.150  -1.154  0.00  0.00    +0.119 C 
BRANCH  14  15
ATOM      2  F   UNL     1      -7.408   2.457   0.638  0.00  0.00    -0.202 F 
ATOM      3  F   UNL     1      -8.911   0.183   0.413  0.00  0.00    -0.202 F 
ATOM     15  C   UNL     1      -4.944   0.158  -0.735  0.00  0.00    -0.030 A 
ATOM     20  C   UNL     1      -5.518   1.326  -0.233  0.00  0.00    +0.046 A 
ATOM     21  C   UNL     1      -5.711  -1.001  -0.851  0.00  0.00    +0.008 A 
ATOM     25  C   UNL     1      -6.858   1.335   0.155  0.00  0.00    +0.159 A 
ATOM     26  C   UNL     1      -7.051  -0.993  -0.463  0.00  0.00    +0.041 A 
ATOM     27  C   UNL     1      -7.624   0.175   0.040  0.00  0.00    +0.158 A 
ENDBRANCH  14  15
ENDBRANCH   7  14
TORSDOF 5
