REMARK  Name = 75537083
REMARK  5 active torsions:
REMARK  status: ('A' for Active; 'I' for Inactive)
REMARK    1  A    between atoms: N_4  and  C_13
REMARK    2  A    between atoms: N_5  and  C_14
REMARK    3  A    between atoms: N_6  and  C_24
REMARK    4  A    between atoms: C_13  and  C_15
REMARK    5  A    between atoms: C_14  and  C_17
REMARK                            x       y       z     vdW  Elec       q    Type
REMARK                         _______ _______ _______ _____ _____    ______ ____
ROOT
ATOM      2  O   UNL     1       3.069   3.047   0.022  0.00  0.00    -0.252 OA
ATOM      3  N   UNL     1       0.988   1.959  -0.044  0.00  0.00    -0.278 N 
ATOM      4  N   UNL     1      -1.430   0.860   0.882  0.00  0.00    -0.295 NA
ATOM      5  N   UNL     1       2.687   1.079  -1.221  0.00  0.00    -0.279 N 
ATOM      7  C   UNL     1       0.393   0.858  -0.772  0.00  0.00    +0.109 C 
ATOM      8  C   UNL     1      -0.464   0.005   0.162  0.00  0.00    +0.109 C 
ATOM      9  C   UNL     1       1.594   0.136  -1.380  0.00  0.00    +0.133 C 
ATOM     10  C   UNL     1       0.154   2.775   0.814  0.00  0.00    +0.125 C 
ATOM     11  C   UNL     1      -0.730   1.881   1.688  0.00  0.00    +0.104 C 
ATOM     12  C   UNL     1       2.339   2.146  -0.368  0.00  0.00    +0.305 C 
ENDROOT
BRANCH   4  13
ATOM     13  C   UNL     1      -2.296   0.045   1.733  0.00  0.00    +0.121 C 
BRANCH  13  15
ATOM      6  N   UNL     1      -4.506  -2.244  -0.106  0.00  0.00    -0.349 N 
ATOM     15  C   UNL     1      -3.361  -0.658   0.942  0.00  0.00    -0.008 A 
ATOM     16  C   UNL     1      -4.536  -0.071   0.396  0.00  0.00    +0.004 A 
ATOM     18  C   UNL     1      -3.370  -1.994   0.617  0.00  0.00    +0.091 A 
ATOM     19  C   UNL     1      -5.237  -1.087  -0.257  0.00  0.00    +0.049 A 
ATOM     20  C   UNL     1      -5.073   1.232   0.394  0.00  0.00    +0.010 A 
ATOM     23  C   UNL     1      -6.453  -0.866  -0.914  0.00  0.00    +0.026 A 
ATOM     24  C   UNL     1      -4.870  -3.543  -0.629  0.00  0.00    +0.149 C 
ATOM     25  C   UNL     1      -6.288   1.469  -0.259  0.00  0.00    +0.001 A 
ATOM     26  C   UNL     1      -6.966   0.434  -0.902  0.00  0.00    +0.002 A 
ENDBRANCH  13  15
ENDBRANCH   4  13
BRANCH   5  14
ATOM     14  C   UNL     1       4.001   0.829  -1.768  0.00  0.00    +0.144 C 
BRANCH  14  17
ATOM      1  F   UNL     1       7.022  -2.621   1.499  0.00  0.00    -0.205 F 
ATOM     17  C   UNL     1       4.807  -0.091  -0.897  0.00  0.00    -0.030 A 
ATOM     21  C   UNL     1       4.749  -1.470  -1.097  0.00  0.00    +0.008 A 
ATOM     22  C   UNL     1       5.614   0.434   0.112  0.00  0.00    +0.008 A 
ATOM     27  C   UNL     1       5.497  -2.325  -0.288  0.00  0.00    +0.038 A 
ATOM     28  C   UNL     1       6.363  -0.420   0.921  0.00  0.00    +0.038 A 
ATOM     29  C   UNL     1       6.304  -1.800   0.721  0.00  0.00    +0.123 A 
ENDBRANCH  14  17
ENDBRANCH   5  14
TORSDOF 4
