REMARK  Name = 56774927
REMARK  10 active torsions:
REMARK  status: ('A' for Active; 'I' for Inactive)
REMARK    1  A    between atoms: O_2  and  C_14
REMARK    2  A    between atoms: O_4  and  C_23
REMARK    3  A    between atoms: O_4  and  C_26
REMARK    4  A    between atoms: N_6  and  C_17
REMARK    5  A    between atoms: N_7  and  C_20
REMARK    6  A    between atoms: C_8  and  C_13
REMARK    7  A    between atoms: C_12  and  C_14
REMARK    8  A    between atoms: C_14  and  C_16
REMARK    9  A    between atoms: C_17  and  C_23
REMARK   10  A    between atoms: C_26  and  C_27
REMARK                            x       y       z     vdW  Elec       q    Type
REMARK                         _______ _______ _______ _____ _____    ______ ____
ROOT
ATOM     14  C   UNL     1      -1.463  -1.005   0.931  0.00  0.00    +0.167 C 
ENDROOT
BRANCH  14  12
ATOM      1  O   UNL     1      -2.107  -1.889  -1.792  0.00  0.00    -0.369 OA
ATOM      5  O   UNL     1      -5.423  -2.199  -0.395  0.00  0.00    -0.273 OA
ATOM      6  N   UNL     1      -3.760  -0.649   0.104  0.00  0.00    -0.289 N 
ATOM     12  C   UNL     1      -2.355  -0.256  -0.064  0.00  0.00    +0.135 C 
ATOM     15  C   UNL     1      -1.910  -0.511  -1.499  0.00  0.00    +0.185 C 
ATOM     18  C   UNL     1      -4.312  -1.711  -0.610  0.00  0.00    +0.242 C 
ATOM     19  C   UNL     1      -3.479  -2.217  -1.782  0.00  0.00    +0.255 C 
BRANCH   6  17
ATOM     17  C   UNL     1      -4.514  -0.012   1.175  0.00  0.00    +0.136 C 
BRANCH  17  23
ATOM     23  C   UNL     1      -5.388   1.112   0.649  0.00  0.00    +0.178 C 
BRANCH  23   4
ATOM      4  O   UNL     1      -4.569   2.112   0.058  0.00  0.00    -0.378 OA
BRANCH   4  26
ATOM     26  C   UNL     1      -5.345   3.188  -0.450  0.00  0.00    +0.156 C 
ATOM     27  C   UNL     1      -4.418   4.216  -1.064  0.00  0.00    +0.034 C 
ENDBRANCH   4  26
ENDBRANCH  23   4
ENDBRANCH  17  23
ENDBRANCH   6  17
ENDBRANCH  14  12
BRANCH  14  16
ATOM     16  C   UNL     1      -0.018  -0.594   0.807  0.00  0.00    -0.017 A 
ATOM     20  C   UNL     1       2.656   0.166   0.579  0.00  0.00    +0.033 A 
ATOM     21  C   UNL     1       0.955  -1.548   0.510  0.00  0.00    +0.008 A 
ATOM     22  C   UNL     1       0.346   0.741   0.990  0.00  0.00    +0.008 A 
ATOM     24  C   UNL     1       2.292  -1.168   0.396  0.00  0.00    +0.023 A 
ATOM     25  C   UNL     1       1.683   1.120   0.876  0.00  0.00    +0.023 A 
BRANCH  20   7
ATOM      3  O   UNL     1       5.081  -1.470  -0.034  0.00  0.00    -0.275 OA
ATOM      7  N   UNL     1       3.994   0.546   0.465  0.00  0.00    -0.285 N 
ATOM     13  C   UNL     1       5.108  -0.253   0.173  0.00  0.00    +0.220 C 
ATOM     28  H   UNL     1       4.178   1.536   0.614  0.00  0.00    +0.155 HD
BRANCH  13   8
ATOM      8  C   UNL     1       6.430   0.541   0.135  0.00  0.00    +0.075 C 
ATOM      9  C   UNL     1       6.628   1.534  -1.029  0.00  0.00    +0.013 C 
ATOM     10  C   UNL     1       7.685  -0.195  -0.381  0.00  0.00    +0.013 C 
ATOM     11  C   UNL     1       8.122   1.148  -1.003  0.00  0.00    +0.001 C 
ENDBRANCH  13   8
ENDBRANCH  20   7
ENDBRANCH  14  16
BRANCH  14   2
ATOM      2  O   UNL     1      -1.918  -0.749   2.255  0.00  0.00    -0.385 OA
ATOM     29  H   UNL     1      -1.241  -1.066   2.877  0.00  0.00    +0.210 HD
ENDBRANCH  14   2
TORSDOF 9
