REMARK  Name = 75537016
REMARK  5 active torsions:
REMARK  status: ('A' for Active; 'I' for Inactive)
REMARK    1  A    between atoms: O_3  and  C_23
REMARK    2  A    between atoms: N_5  and  C_9
REMARK    3  A    between atoms: C_20  and  C_21
REMARK    4  A    between atoms: C_21  and  C_22
REMARK    5  A    between atoms: C_22  and  C_23
REMARK                            x       y       z     vdW  Elec       q    Type
REMARK                         _______ _______ _______ _____ _____    ______ ____
ROOT
ATOM      1  O   UNL     1       2.787  -2.625   0.345  0.00  0.00    -0.252 OA
ATOM      2  O   UNL     1      -4.120  -1.882  -0.095  0.00  0.00    -0.276 OA
ATOM      5  N   UNL     1       2.523  -0.288   0.170  0.00  0.00    -0.281 N 
ATOM      6  N   UNL     1       0.686  -1.575   0.308  0.00  0.00    -0.278 N 
ATOM      7  N   UNL     1      -1.952  -1.137  -0.465  0.00  0.00    -0.298 N 
ATOM      8  C   UNL     1       0.181  -0.213   0.331  0.00  0.00    +0.112 C 
ATOM     10  C   UNL     1       1.412   0.636   0.023  0.00  0.00    +0.133 C 
ATOM     11  C   UNL     1      -0.969  -0.054  -0.660  0.00  0.00    +0.132 C 
ATOM     14  C   UNL     1       2.087  -1.623   0.285  0.00  0.00    +0.305 C 
ATOM     15  C   UNL     1      -0.240  -2.688   0.411  0.00  0.00    +0.128 C 
ATOM     18  C   UNL     1      -1.396  -2.495  -0.567  0.00  0.00    +0.127 C 
ATOM     20  C   UNL     1      -3.313  -0.958  -0.230  0.00  0.00    +0.216 C 
ENDROOT
BRANCH   5   9
ATOM      9  C   UNL     1       3.896   0.144   0.064  0.00  0.00    +0.078 C 
ATOM     12  C   UNL     1       4.272   1.031   1.252  0.00  0.00    +0.022 C 
ATOM     13  C   UNL     1       4.136   0.863  -1.267  0.00  0.00    +0.022 C 
ATOM     16  C   UNL     1       5.705   1.546   1.139  0.00  0.00    +0.002 C 
ATOM     17  C   UNL     1       5.569   1.377  -1.376  0.00  0.00    +0.002 C 
ATOM     19  C   UNL     1       5.943   2.259  -0.189  0.00  0.00    +0.000 C 
ENDBRANCH   5   9
BRANCH  20  21
ATOM     21  C   UNL     1      -3.800   0.466  -0.136  0.00  0.00    +0.107 C 
BRANCH  21  22
ATOM     22  C   UNL     1      -5.293   0.484   0.121  0.00  0.00    +0.129 C 
BRANCH  22  23
ATOM      4  O   UNL     1      -5.128   2.892   0.009  0.00  0.00    -0.251 OA
ATOM     23  C   UNL     1      -5.825   1.895   0.151  0.00  0.00    +0.305 C 
BRANCH  23   3
ATOM      3  O   UNL     1      -7.161   1.945   0.377  0.00  0.00    -0.481 OA
ATOM     24  H   UNL     1      -7.494   2.868   0.405  0.00  0.00    +0.295 HD
ENDBRANCH  23   3
ENDBRANCH  22  23
ENDBRANCH  21  22
ENDBRANCH  20  21
TORSDOF 5
