REMARK  Name = 75536708
REMARK  9 active torsions:
REMARK  status: ('A' for Active; 'I' for Inactive)
REMARK    1  A    between atoms: S_1  and  N_8
REMARK    2  A    between atoms: S_1  and  C_16
REMARK    3  A    between atoms: O_4  and  C_10
REMARK    4  A    between atoms: N_7  and  C_9
REMARK    5  A    between atoms: N_7  and  C_14
REMARK    6  A    between atoms: N_8  and  C_13
REMARK    7  A    between atoms: C_11  and  C_13
REMARK    8  A    between atoms: C_14  and  C_15
REMARK    9  A    between atoms: C_25  and  C_27
REMARK                            x       y       z     vdW  Elec       q    Type
REMARK                         _______ _______ _______ _____ _____    ______ ____
ROOT
ATOM      3  O   UNL     1       0.229  -1.561   1.355  0.00  0.00    -0.371 OA
ATOM      9  C   UNL     1      -1.734  -1.313   0.041  0.00  0.00    +0.111 C 
ATOM     10  C   UNL     1      -0.533  -0.881  -0.779  0.00  0.00    +0.164 C 
ATOM     11  C   UNL     1       0.597  -1.581  -0.035  0.00  0.00    +0.164 C 
ATOM     12  C   UNL     1      -1.173  -1.254   1.452  0.00  0.00    +0.181 C 
ENDROOT
BRANCH  10   4
ATOM      4  O   UNL     1      -0.614  -1.298  -2.128  0.00  0.00    -0.388 OA
ATOM     30  H   UNL     1      -0.725  -2.264  -2.143  0.00  0.00    +0.210 HD
ENDBRANCH  10   4
BRANCH   9   7
ATOM      7  N   UNL     1      -2.900  -0.464  -0.140  0.00  0.00    -0.305 NA
ATOM     28  H   UNL     1      -3.032  -0.287  -1.136  0.00  0.00    +0.123 HD
BRANCH   7  14
ATOM     14  C   UNL     1      -4.101  -1.100   0.389  0.00  0.00    +0.116 C 
BRANCH  14  15
ATOM      2  F   UNL     1      -8.650   2.167  -0.225  0.00  0.00    -0.205 F 
ATOM     15  C   UNL     1      -5.317  -0.228   0.225  0.00  0.00    -0.033 A 
ATOM     17  C   UNL     1      -6.092  -0.321  -0.931  0.00  0.00    +0.008 A 
ATOM     18  C   UNL     1      -5.667   0.675   1.229  0.00  0.00    +0.008 A 
ATOM     21  C   UNL     1      -7.218   0.487  -1.082  0.00  0.00    +0.038 A 
ATOM     22  C   UNL     1      -6.794   1.484   1.077  0.00  0.00    +0.038 A 
ATOM     26  C   UNL     1      -7.569   1.390  -0.078  0.00  0.00    +0.123 A 
ENDBRANCH  14  15
ENDBRANCH   7  14
ENDBRANCH   9   7
BRANCH  11  13
ATOM     13  C   UNL     1       1.945  -0.906  -0.218  0.00  0.00    +0.140 C 
BRANCH  13   8
ATOM      8  N   UNL     1       2.976  -1.647   0.534  0.00  0.00    -0.187 NA
ATOM     29  H   UNL     1       2.810  -1.742   1.544  0.00  0.00    +0.148 HD
BRANCH   8   1
ATOM      1  S   UNL     1       4.581  -1.684  -0.030  0.00  0.00    +0.058 S 
ATOM      5  O   UNL     1       4.596  -2.150  -1.403  0.00  0.00    -0.153 OA
ATOM      6  O   UNL     1       5.417  -2.325   0.967  0.00  0.00    -0.153 OA
BRANCH   1  16
ATOM     16  C   UNL     1       5.003   0.032  -0.032  0.00  0.00    +0.105 A 
ATOM     19  C   UNL     1       5.567   0.612   1.105  0.00  0.00    +0.029 A 
ATOM     20  C   UNL     1       4.770   0.807  -1.168  0.00  0.00    +0.029 A 
ATOM     23  C   UNL     1       5.898   1.967   1.105  0.00  0.00    +0.005 A 
ATOM     24  C   UNL     1       5.101   2.162  -1.168  0.00  0.00    +0.005 A 
ATOM     25  C   UNL     1       5.665   2.742  -0.032  0.00  0.00    -0.050 A 
ATOM     27  C   UNL     1       6.019   4.191  -0.032  0.00  0.00    +0.044 C 
ENDBRANCH   1  16
ENDBRANCH   8   1
ENDBRANCH  13   8
ENDBRANCH  11  13
TORSDOF 8
