REMARK  Name = 7134988
REMARK  11 active torsions:
REMARK  status: ('A' for Active; 'I' for Inactive)
REMARK    1  A    between atoms: O_2  and  C_15
REMARK    2  A    between atoms: O_3  and  C_20
REMARK    3  A    between atoms: O_6  and  C_38
REMARK    4  A    between atoms: O_6  and  C_39
REMARK    5  A    between atoms: C_10  and  C_18
REMARK    6  A    between atoms: C_12  and  C_20
REMARK    7  A    between atoms: C_12  and  C_21
REMARK    8  A    between atoms: C_13  and  C_23
REMARK    9  A    between atoms: C_23  and  C_24
REMARK   10  A    between atoms: C_30  and  C_31
REMARK   11  A    between atoms: C_32  and  C_33
REMARK                            x       y       z     vdW  Elec       q    Type
REMARK                         _______ _______ _______ _____ _____    ______ ____
ROOT
ATOM      1  S   UNL     1       0.467   3.016   0.187  0.00  0.00    -0.057 S 
ATOM      5  O   UNL     1       3.201  -0.730  -0.217  0.00  0.00    -0.270 OA
ATOM      7  N   UNL     1       0.489   0.443  -0.089  0.00  0.00    -0.229 NA
ATOM      9  N   UNL     1       2.631   1.543   0.030  0.00  0.00    -0.261 N 
ATOM     10  C   UNL     1      -3.345   0.495   0.322  0.00  0.00    -0.019 C 
ATOM     11  C   UNL     1      -3.474   1.940  -0.336  0.00  0.00    +0.011 C 
ATOM     12  C   UNL     1      -4.908   2.598  -0.342  0.00  0.00    +0.021 C 
ATOM     13  C   UNL     1      -1.963  -0.144  -0.163  0.00  0.00    +0.054 C 
ATOM     14  C   UNL     1      -4.503  -0.405  -0.180  0.00  0.00    +0.010 C 
ATOM     15  C   UNL     1      -5.950   1.549  -0.825  0.00  0.00    +0.123 C 
ATOM     16  C   UNL     1      -2.349   2.894   0.162  0.00  0.00    +0.049 C 
ATOM     17  C   UNL     1      -5.879   0.234  -0.057  0.00  0.00    +0.032 C 
ATOM     18  C   UNL     1      -3.379   0.533   1.869  0.00  0.00    +0.012 C 
ATOM     19  C   UNL     1      -0.833   0.845  -0.035  0.00  0.00    +0.058 A 
ATOM     21  C   UNL     1      -4.923   3.770  -1.364  0.00  0.00    +0.016 C 
ATOM     22  C   UNL     1      -1.028   2.205   0.091  0.00  0.00    +0.015 A 
ATOM     25  C   UNL     1       1.262   1.502   0.026  0.00  0.00    +0.165 A 
ATOM     32  C   UNL     1       3.505   0.451  -0.089  0.00  0.00    +0.250 C 
ATOM     42  H   UNL     1       3.007   2.484   0.089  0.00  0.00    +0.157 HD
ENDROOT
BRANCH  32  33
ATOM     33  C   UNL     1       4.953   0.791  -0.084  0.00  0.00    +0.037 A 
ATOM     34  C   UNL     1       5.866  -0.042  -0.731  0.00  0.00    +0.016 A 
ATOM     35  C   UNL     1       5.397   1.942   0.566  0.00  0.00    +0.016 A 
ATOM     36  C   UNL     1       7.224   0.277  -0.727  0.00  0.00    +0.046 A 
ATOM     37  C   UNL     1       6.755   2.261   0.570  0.00  0.00    +0.046 A 
ATOM     38  C   UNL     1       7.668   1.429  -0.076  0.00  0.00    +0.120 A 
BRANCH  38   6
ATOM      6  O   UNL     1       8.993   1.741  -0.075  0.00  0.00    -0.495 OA
ATOM     39  C   UNL     1       9.378   2.932   0.609  0.00  0.00    +0.277 C 
ENDBRANCH  38   6
ENDBRANCH  32  33
BRANCH  15   2
ATOM      2  O   UNL     1      -7.274   2.072  -0.719  0.00  0.00    -0.391 OA
ATOM     40  H   UNL     1      -7.884   1.403  -1.074  0.00  0.00    +0.210 HD
ENDBRANCH  15   2
BRANCH  12  20
ATOM     20  C   UNL     1      -5.334   3.218   1.007  0.00  0.00    +0.165 C 
BRANCH  20   3
ATOM      3  O   UNL     1      -6.621   3.770   0.840  0.00  0.00    -0.394 OA
ATOM     41  H   UNL     1      -6.878   4.167   1.690  0.00  0.00    +0.209 HD
ENDBRANCH  20   3
ENDBRANCH  12  20
BRANCH  13  23
ATOM     23  C   UNL     1      -1.614  -1.485   0.498  0.00  0.00    +0.106 C 
BRANCH  23  24
ATOM      4  O   UNL     1      -0.428  -1.833  -1.524  0.00  0.00    -0.276 OA
ATOM      8  N   UNL     1      -0.327  -3.544   0.044  0.00  0.00    -0.301 N 
ATOM     24  C   UNL     1      -0.737  -2.296  -0.422  0.00  0.00    +0.216 C 
ATOM     26  C   UNL     1      -0.677  -4.121   1.348  0.00  0.00    +0.108 C 
ATOM     27  C   UNL     1       0.558  -4.374  -0.774  0.00  0.00    +0.108 C 
ATOM     28  C   UNL     1      -1.302  -5.505   1.177  0.00  0.00    +0.022 C 
ATOM     29  C   UNL     1      -0.042  -5.762  -0.990  0.00  0.00    +0.022 C 
ATOM     30  C   UNL     1      -0.396  -6.428   0.348  0.00  0.00    -0.011 C 
ATOM     31  C   UNL     1      -1.062  -7.783   0.122  0.00  0.00    +0.007 C 
ENDBRANCH  23  24
ENDBRANCH  13  23
TORSDOF 7
