REMARK  Name = 11884171
REMARK  9 active torsions:
REMARK  status: ('A' for Active; 'I' for Inactive)
REMARK    1  A    between atoms: S_1  and  N_9
REMARK    2  A    between atoms: S_1  and  C_17
REMARK    3  A    between atoms: O_4  and  C_14
REMARK    4  A    between atoms: O_4  and  C_18
REMARK    5  A    between atoms: N_9  and  C_13
REMARK    6  A    between atoms: N_10  and  C_22
REMARK    7  A    between atoms: C_17  and  C_19
REMARK    8  A    between atoms: C_30  and  C_31
REMARK    9  A    between atoms: C_31  and  C_32
REMARK                            x       y       z     vdW  Elec       q    Type
REMARK                         _______ _______ _______ _____ _____    ______ ____
ROOT
ATOM      2  O   UNL     1       0.358   0.458  -1.050  0.00  0.00    -0.369 OA
ATOM      3  O   UNL     1       1.341   2.688   0.826  0.00  0.00    -0.368 OA
ATOM     11  C   UNL     1       1.519   1.257   0.859  0.00  0.00    +0.171 C 
ATOM     12  C   UNL     1       0.223   0.641   0.369  0.00  0.00    +0.191 C 
ATOM     13  C   UNL     1       2.534   0.841  -0.176  0.00  0.00    +0.133 C 
ATOM     14  C   UNL     1      -0.793   1.708   0.701  0.00  0.00    +0.235 C 
ATOM     15  C   UNL     1       1.707   0.754  -1.444  0.00  0.00    +0.183 C 
ATOM     16  C   UNL     1      -0.014   2.979   0.452  0.00  0.00    +0.207 C 
ENDROOT
BRANCH  13   9
ATOM      9  N   UNL     1       3.080  -0.496   0.158  0.00  0.00    -0.186 NA
ATOM     33  H   UNL     1       2.725  -0.947   1.010  0.00  0.00    +0.148 HD
BRANCH   9   1
ATOM      1  S   UNL     1       4.622  -0.924  -0.423  0.00  0.00    +0.034 S 
ATOM      5  O   UNL     1       4.876  -0.265  -1.689  0.00  0.00    -0.158 OA
ATOM      6  O   UNL     1       4.773  -2.361  -0.292  0.00  0.00    -0.158 OA
BRANCH   1  17
ATOM     17  C   UNL     1       5.660  -0.167   0.806  0.00  0.00    +0.220 C 
BRANCH  17  19
ATOM     19  C   UNL     1       7.084  -0.453   0.440  0.00  0.00    -0.025 A 
ATOM     20  C   UNL     1       7.782   0.428  -0.386  0.00  0.00    +0.005 A 
ATOM     21  C   UNL     1       7.712  -1.601   0.923  0.00  0.00    +0.005 A 
ATOM     23  C   UNL     1       9.108   0.162  -0.728  0.00  0.00    +0.000 A 
ATOM     24  C   UNL     1       9.037  -1.867   0.582  0.00  0.00    +0.000 A 
ATOM     25  C   UNL     1       9.736  -0.986  -0.244  0.00  0.00    +0.000 A 
ENDBRANCH  17  19
ENDBRANCH   1  17
ENDBRANCH   9   1
ENDBRANCH  13   9
BRANCH  14   4
ATOM      4  O   UNL     1      -1.960   1.638  -0.087  0.00  0.00    -0.442 OA
BRANCH   4  18
ATOM      7  O   UNL     1      -2.963   0.339   1.506  0.00  0.00    -0.226 OA
ATOM     10  N   UNL     1      -4.072   0.942  -0.466  0.00  0.00    -0.251 N 
ATOM     18  C   UNL     1      -3.014   0.908   0.422  0.00  0.00    +0.405 C 
ATOM     34  H   UNL     1      -3.924   1.472  -1.321  0.00  0.00    +0.158 HD
BRANCH  10  22
ATOM     22  C   UNL     1      -5.338   0.328  -0.335  0.00  0.00    +0.036 A 
ATOM     26  C   UNL     1      -6.291   0.472  -1.344  0.00  0.00    +0.024 A 
ATOM     27  C   UNL     1      -5.636  -0.420   0.804  0.00  0.00    +0.024 A 
ATOM     28  C   UNL     1      -7.541  -0.132  -1.214  0.00  0.00    +0.013 A 
ATOM     29  C   UNL     1      -6.886  -1.025   0.934  0.00  0.00    +0.013 A 
ATOM     30  C   UNL     1      -7.839  -0.881  -0.075  0.00  0.00    +0.017 A 
BRANCH  30  31
ATOM      8  O   UNL     1      -9.290  -2.572   0.700  0.00  0.00    -0.292 OA
ATOM     31  C   UNL     1      -9.142  -1.512   0.060  0.00  0.00    +0.160 C 
ATOM     32  C   UNL     1     -10.371  -0.882  -0.588  0.00  0.00    +0.091 C 
ENDBRANCH  30  31
ENDBRANCH  10  22
ENDBRANCH   4  18
ENDBRANCH  14   4
TORSDOF 8
