REMARK  Name = 51136623
REMARK  10 active torsions:
REMARK  status: ('A' for Active; 'I' for Inactive)
REMARK    1  A    between atoms: O_2  and  C_20
REMARK    2  A    between atoms: O_5  and  C_26
REMARK    3  A    between atoms: O_5  and  C_33
REMARK    4  A    between atoms: O_6  and  C_27
REMARK    5  A    between atoms: O_6  and  C_34
REMARK    6  A    between atoms: N_9  and  C_28
REMARK    7  A    between atoms: C_10  and  C_14
REMARK    8  A    between atoms: C_11  and  C_16
REMARK    9  A    between atoms: C_14  and  C_17
REMARK   10  A    between atoms: C_16  and  C_20
REMARK                            x       y       z     vdW  Elec       q    Type
REMARK                         _______ _______ _______ _____ _____    ______ ____
ROOT
ATOM      3  O   UNL     1      -0.884   3.762  -0.166  0.00  0.00    -0.252 OA
ATOM      7  N   UNL     1      -2.135   2.065   0.780  0.00  0.00    -0.285 N 
ATOM      9  N   UNL     1       0.186   2.200   1.174  0.00  0.00    -0.269 N 
ATOM     10  C   UNL     1      -2.877  -0.300   0.825  0.00  0.00    +0.016 C 
ATOM     11  C   UNL     1      -4.188   0.136   0.117  0.00  0.00    +0.006 C 
ATOM     12  C   UNL     1      -3.997   1.431  -0.694  0.00  0.00    +0.023 C 
ATOM     13  C   UNL     1      -2.313   0.880   1.633  0.00  0.00    +0.113 C 
ATOM     15  C   UNL     1      -3.371   2.537   0.155  0.00  0.00    +0.109 C 
ATOM     18  C   UNL     1      -0.929   2.760   0.552  0.00  0.00    +0.306 C 
ATOM     36  H   UNL     1       0.052   1.686   2.037  0.00  0.00    +0.156 HD
ENDROOT
BRANCH   9  28
ATOM      1  F   UNL     1       5.450   2.373  -0.564  0.00  0.00    -0.205 F 
ATOM     28  C   UNL     1       1.531   2.245   0.730  0.00  0.00    +0.035 A 
ATOM     29  C   UNL     1       2.534   1.627   1.479  0.00  0.00    +0.026 A 
ATOM     30  C   UNL     1       1.853   2.905  -0.455  0.00  0.00    +0.026 A 
ATOM     31  C   UNL     1       3.857   1.671   1.042  0.00  0.00    +0.040 A 
ATOM     32  C   UNL     1       3.177   2.949  -0.892  0.00  0.00    +0.040 A 
ATOM     35  C   UNL     1       4.179   2.332  -0.144  0.00  0.00    +0.124 A 
ENDBRANCH   9  28
BRANCH  10  14
ATOM     14  C   UNL     1      -1.811  -0.858  -0.124  0.00  0.00    +0.061 C 
BRANCH  14  17
ATOM      8  N   UNL     1      -1.249  -2.301   1.711  0.00  0.00    -0.287 NA
ATOM     17  C   UNL     1      -0.824  -1.699   0.649  0.00  0.00    +0.044 C 
ATOM     19  C   UNL     1       0.576  -1.789   0.163  0.00  0.00    +0.003 A 
ATOM     21  C   UNL     1       1.535  -2.236   1.080  0.00  0.00    -0.033 A 
ATOM     22  C   UNL     1       1.097  -2.576   2.474  0.00  0.00    +0.059 C 
ATOM     23  C   UNL     1      -0.307  -3.166   2.429  0.00  0.00    +0.146 C 
ATOM     24  C   UNL     1       0.948  -1.436  -1.136  0.00  0.00    +0.059 A 
ATOM     25  C   UNL     1       2.878  -2.304   0.697  0.00  0.00    +0.053 A 
ATOM     26  C   UNL     1       2.288  -1.522  -1.514  0.00  0.00    +0.162 A 
ATOM     27  C   UNL     1       3.251  -1.952  -0.600  0.00  0.00    +0.162 A 
BRANCH  26   5
ATOM      5  O   UNL     1       2.648  -1.180  -2.783  0.00  0.00    -0.491 OA
ATOM     33  C   UNL     1       1.605  -0.750  -3.657  0.00  0.00    +0.277 C 
ENDBRANCH  26   5
BRANCH  27   6
ATOM      6  O   UNL     1       4.562  -2.031  -0.963  0.00  0.00    -0.491 OA
ATOM     34  C   UNL     1       5.483  -2.479   0.030  0.00  0.00    +0.277 C 
ENDBRANCH  27   6
ENDBRANCH  14  17
ENDBRANCH  10  14
BRANCH  11  16
ATOM     16  C   UNL     1      -4.792  -0.963  -0.756  0.00  0.00    +0.124 C 
BRANCH  16  20
ATOM      4  O   UNL     1      -6.939   0.170  -0.542  0.00  0.00    -0.251 OA
ATOM     20  C   UNL     1      -6.264  -0.750  -0.978  0.00  0.00    +0.305 C 
BRANCH  20   2
ATOM      2  O   UNL     1      -6.760  -1.749  -1.752  0.00  0.00    -0.481 OA
ATOM     37  H   UNL     1      -7.721  -1.641  -1.917  0.00  0.00    +0.295 HD
ENDBRANCH  20   2
ENDBRANCH  16  20
ENDBRANCH  11  16
TORSDOF 8
