REMARK  Name = 75536791
REMARK  6 active torsions:
REMARK  status: ('A' for Active; 'I' for Inactive)
REMARK    1  A    between atoms: O_2  and  C_9
REMARK    2  A    between atoms: N_4  and  C_8
REMARK    3  A    between atoms: N_4  and  C_10
REMARK    4  A    between atoms: N_6  and  C_17
REMARK    5  A    between atoms: C_11  and  C_17
REMARK    6  A    between atoms: C_18  and  C_19
REMARK                            x       y       z     vdW  Elec       q    Type
REMARK                         _______ _______ _______ _____ _____    ______ ____
ROOT
ATOM      1  O   UNL     1      -0.091   0.532  -0.903  0.00  0.00    -0.371 OA
ATOM      8  C   UNL     1      -2.187  -0.325  -0.186  0.00  0.00    +0.111 C 
ATOM      9  C   UNL     1      -1.197  -1.470  -0.301  0.00  0.00    +0.164 C 
ATOM     11  C   UNL     1       0.127  -0.721  -0.233  0.00  0.00    +0.165 C 
ATOM     12  C   UNL     1      -1.508   0.745  -1.026  0.00  0.00    +0.181 C 
ENDROOT
BRANCH   9   2
ATOM      2  O   UNL     1      -1.325  -2.410   0.747  0.00  0.00    -0.388 OA
ATOM     26  H   UNL     1      -1.229  -1.940   1.593  0.00  0.00    +0.210 HD
ENDBRANCH   9   2
BRANCH   8   4
ATOM      4  N   UNL     1      -3.520  -0.656  -0.661  0.00  0.00    -0.306 NA
ATOM     24  H   UNL     1      -3.793  -1.579  -0.325  0.00  0.00    +0.123 HD
BRANCH   4  10
ATOM      5  N   UNL     1      -7.157   0.978   0.822  0.00  0.00    -0.316 NA
ATOM     10  C   UNL     1      -4.492   0.339  -0.215  0.00  0.00    +0.056 C 
ATOM     13  C   UNL     1      -4.872   0.116   1.253  0.00  0.00    +0.034 C 
ATOM     14  C   UNL     1      -5.744   0.291  -1.097  0.00  0.00    +0.034 C 
ATOM     15  C   UNL     1      -5.976   1.083   1.683  0.00  0.00    +0.082 C 
ATOM     16  C   UNL     1      -6.814   1.251  -0.576  0.00  0.00    +0.082 C 
ATOM     25  H   UNL     1      -7.860   1.648   1.133  0.00  0.00    +0.122 HD
ENDBRANCH   4  10
ENDBRANCH   8   4
BRANCH  11  17
ATOM     17  C   UNL     1       1.272  -1.465  -0.896  0.00  0.00    +0.138 C 
BRANCH  17   6
ATOM      3  O   UNL     1       3.223  -1.607   1.206  0.00  0.00    -0.270 OA
ATOM      6  N   UNL     1       2.496  -0.721  -0.811  0.00  0.00    -0.309 N 
ATOM     18  C   UNL     1       3.387  -0.854   0.249  0.00  0.00    +0.244 C 
ATOM     27  H   UNL     1       2.660  -0.030  -1.536  0.00  0.00    +0.149 HD
BRANCH  18  19
ATOM      7  N   UNL     1       6.871   1.630   0.113  0.00  0.00    -0.263 NA
ATOM     19  C   UNL     1       4.597   0.007   0.202  0.00  0.00    +0.040 A 
ATOM     20  C   UNL     1       5.232   0.383   1.380  0.00  0.00    +0.033 A 
ATOM     21  C   UNL     1       5.098   0.441  -1.020  0.00  0.00    +0.033 A 
ATOM     22  C   UNL     1       6.355   1.189   1.283  0.00  0.00    +0.111 A 
ATOM     23  C   UNL     1       6.227   1.243  -1.011  0.00  0.00    +0.111 A 
ENDBRANCH  18  19
ENDBRANCH  17   6
ENDBRANCH  11  17
TORSDOF 6
