REMARK  Name = 51137055
REMARK  5 active torsions:
REMARK  status: ('A' for Active; 'I' for Inactive)
REMARK    1  A    between atoms: O_2  and  C_24
REMARK    2  A    between atoms: N_4  and  C_10
REMARK    3  A    between atoms: C_6  and  C_11
REMARK    4  A    between atoms: C_10  and  C_12
REMARK    5  A    between atoms: C_21  and  C_24
REMARK                            x       y       z     vdW  Elec       q    Type
REMARK                         _______ _______ _______ _____ _____    ______ ____
ROOT
ATOM      4  N   UNL     1      -0.616  -0.220  -0.248  0.00  0.00    -0.297 NA
ATOM      6  C   UNL     1       1.568  -0.731   0.436  0.00  0.00    +0.090 C 
ATOM      7  C   UNL     1       0.831   0.000   1.571  0.00  0.00    +0.029 C 
ATOM      8  C   UNL     1       0.712  -0.475  -0.811  0.00  0.00    +0.097 C 
ATOM      9  C   UNL     1      -0.376   0.648   0.904  0.00  0.00    +0.085 C 
ENDROOT
BRANCH   6  11
ATOM      1  O   UNL     1       3.933  -1.321   0.394  0.00  0.00    -0.439 OA
ATOM      5  N   UNL     1       3.498   0.864  -0.025  0.00  0.00    -0.213 NA
ATOM     11  C   UNL     1       3.013  -0.326   0.253  0.00  0.00    +0.201 A 
ATOM     13  C   UNL     1       5.124  -0.688   0.181  0.00  0.00    +0.155 A 
ATOM     14  C   UNL     1       4.854   0.648  -0.075  0.00  0.00    +0.110 A 
ATOM     17  C   UNL     1       6.396  -1.248   0.208  0.00  0.00    +0.048 A 
ATOM     18  C   UNL     1       5.923   1.519  -0.328  0.00  0.00    +0.031 A 
ATOM     22  C   UNL     1       7.451  -0.365  -0.046  0.00  0.00    +0.004 A 
ATOM     23  C   UNL     1       7.222   0.991  -0.310  0.00  0.00    +0.002 A 
ENDBRANCH   6  11
BRANCH   4  10
ATOM     10  C   UNL     1      -1.522   0.381  -1.216  0.00  0.00    +0.119 C 
BRANCH  10  12
ATOM     12  C   UNL     1      -2.962   0.241  -0.797  0.00  0.00    -0.033 A 
ATOM     15  C   UNL     1      -3.613  -0.984  -0.940  0.00  0.00    +0.006 A 
ATOM     16  C   UNL     1      -3.644   1.336  -0.266  0.00  0.00    +0.006 A 
ATOM     19  C   UNL     1      -4.946  -1.114  -0.552  0.00  0.00    +0.015 A 
ATOM     20  C   UNL     1      -4.977   1.206   0.121  0.00  0.00    +0.015 A 
ATOM     21  C   UNL     1      -5.629  -0.020  -0.021  0.00  0.00    +0.059 A 
BRANCH  21  24
ATOM      3  O   UNL     1      -7.691  -1.189   0.303  0.00  0.00    -0.245 OA
ATOM     24  C   UNL     1      -7.019  -0.155   0.384  0.00  0.00    +0.337 C 
BRANCH  24   2
ATOM      2  O   UNL     1      -7.532   1.004   0.879  0.00  0.00    -0.477 OA
ATOM     25  H   UNL     1      -8.470   0.902   1.150  0.00  0.00    +0.295 HD
ENDBRANCH  24   2
ENDBRANCH  21  24
ENDBRANCH  10  12
ENDBRANCH   4  10
TORSDOF 5
