REMARK  Name = 11941845
REMARK  5 active torsions:
REMARK  status: ('A' for Active; 'I' for Inactive)
REMARK    1  A    between atoms: N_8  and  C_15
REMARK    2  A    between atoms: N_9  and  C_16
REMARK    3  A    between atoms: N_10  and  C_21
REMARK    4  A    between atoms: C_22  and  C_26
REMARK    5  A    between atoms: C_28  and  C_32
REMARK                            x       y       z     vdW  Elec       q    Type
REMARK                         _______ _______ _______ _____ _____    ______ ____
ROOT
ATOM      5  O   UNL     1      -1.373  -3.773  -0.108  0.00  0.00    -0.370 OA
ATOM      6  O   UNL     1      -1.772  -1.497   1.989  0.00  0.00    -0.370 OA
ATOM     13  C   UNL     1      -1.835  -1.534   0.553  0.00  0.00    +0.171 C 
ATOM     14  C   UNL     1      -0.756  -2.489   0.080  0.00  0.00    +0.171 C 
ATOM     15  C   UNL     1      -3.123  -2.181   0.102  0.00  0.00    +0.130 C 
ATOM     16  C   UNL     1       0.222  -2.539   1.232  0.00  0.00    +0.131 C 
ATOM     17  C   UNL     1      -2.783  -3.659   0.135  0.00  0.00    +0.185 C 
ATOM     18  C   UNL     1      -0.680  -2.316   2.433  0.00  0.00    +0.185 C 
ENDROOT
BRANCH  15   8
ATOM      8  N   UNL     1      -3.438  -1.769  -1.248  0.00  0.00    -0.306 N 
ATOM     11  N   UNL     1      -4.504   0.191  -0.520  0.00  0.00    -0.214 NA
ATOM     12  N   UNL     1      -4.345  -0.334  -2.867  0.00  0.00    -0.223 NA
ATOM     19  C   UNL     1      -4.116  -0.603  -1.554  0.00  0.00    +0.216 A 
ATOM     22  C   UNL     1      -5.162   1.320  -0.855  0.00  0.00    +0.083 A 
ATOM     23  C   UNL     1      -5.008   0.811  -3.130  0.00  0.00    +0.116 A 
ATOM     24  C   UNL     1      -5.445   1.685  -2.156  0.00  0.00    +0.049 A 
ATOM     35  H   UNL     1      -3.107  -2.326  -2.028  0.00  0.00    +0.149 HD
BRANCH  22  26
ATOM      1  S   UNL     1      -4.608   2.124   1.685  0.00  0.00    -0.095 S 
ATOM     26  C   UNL     1      -5.561   2.138   0.259  0.00  0.00    +0.038 A 
ATOM     31  C   UNL     1      -6.647   2.982   0.378  0.00  0.00    +0.017 A 
ATOM     33  C   UNL     1      -6.695   3.621   1.651  0.00  0.00    +0.008 A 
ATOM     34  C   UNL     1      -5.646   3.245   2.459  0.00  0.00    +0.046 A 
ENDBRANCH  22  26
ENDBRANCH  15   8
BRANCH  16   9
ATOM      7  O   UNL     1       2.826  -2.769   0.061  0.00  0.00    -0.252 OA
ATOM      9  N   UNL     1       1.213  -1.496   1.122  0.00  0.00    -0.292 N 
ATOM     10  N   UNL     1       3.212  -0.509   0.568  0.00  0.00    -0.269 N 
ATOM     20  C   UNL     1       2.468  -1.692   0.532  0.00  0.00    +0.304 C 
ATOM     36  H   UNL     1       0.966  -0.560   1.427  0.00  0.00    +0.151 HD
ATOM     37  H   UNL     1       2.766   0.297   0.998  0.00  0.00    +0.156 HD
BRANCH  10  21
ATOM     21  C   UNL     1       4.521  -0.292   0.077  0.00  0.00    +0.035 A 
ATOM     25  C   UNL     1       5.096   0.962   0.209  0.00  0.00    +0.035 A 
ATOM     27  C   UNL     1       5.202  -1.338  -0.523  0.00  0.00    +0.023 A 
ATOM     28  C   UNL     1       6.387   1.175  -0.273  0.00  0.00    +0.057 A 
ATOM     29  C   UNL     1       6.493  -1.125  -1.006  0.00  0.00    +0.002 A 
ATOM     30  C   UNL     1       7.086   0.132  -0.881  0.00  0.00    +0.012 A 
BRANCH  28  32
ATOM      2  F   UNL     1       8.285   2.581  -0.654  0.00  0.00    -0.166 F 
ATOM      3  F   UNL     1       6.330   3.514  -0.769  0.00  0.00    -0.166 F 
ATOM      4  F   UNL     1       7.136   2.917   1.161  0.00  0.00    -0.166 F 
ATOM     32  C   UNL     1       7.021   2.518  -0.140  0.00  0.00    +0.417 C 
ENDBRANCH  28  32
ENDBRANCH  10  21
ENDBRANCH  16   9
TORSDOF 5
