REMARK  Name = 56775542
REMARK  8 active torsions:
REMARK  status: ('A' for Active; 'I' for Inactive)
REMARK    1  A    between atoms: O_4  and  C_18
REMARK    2  A    between atoms: O_4  and  C_22
REMARK    3  A    between atoms: N_5  and  C_7
REMARK    4  A    between atoms: N_5  and  C_11
REMARK    5  A    between atoms: C_7  and  C_10
REMARK    6  A    between atoms: C_10  and  C_12
REMARK    7  A    between atoms: C_11  and  C_13
REMARK    8  A    between atoms: C_15  and  C_18
REMARK                            x       y       z     vdW  Elec       q    Type
REMARK                         _______ _______ _______ _____ _____    ______ ____
ROOT
ATOM      2  O   UNL     1      -0.520  -3.795   1.209  0.00  0.00    -0.376 OA
ATOM      7  C   UNL     1      -0.107  -2.092  -0.011  0.00  0.00    +0.072 C 
ATOM      8  C   UNL     1       0.487  -2.757   1.226  0.00  0.00    +0.184 C 
ATOM      9  C   UNL     1      -1.075  -3.270  -0.018  0.00  0.00    +0.184 C 
ENDROOT
BRANCH   7   5
ATOM      5  N   UNL     1      -0.832  -0.888   0.403  0.00  0.00    -0.302 NA
ATOM     23  H   UNL     1      -0.250  -0.143   0.785  0.00  0.00    +0.123 HD
BRANCH   5  11
ATOM     11  C   UNL     1      -1.605  -0.380  -0.731  0.00  0.00    +0.120 C 
BRANCH  11  13
ATOM      1  F   UNL     1      -1.631   2.441  -0.871  0.00  0.00    -0.205 F 
ATOM     13  C   UNL     1      -2.773   0.441  -0.299  0.00  0.00    +0.002 A 
ATOM     16  C   UNL     1      -2.724   1.831  -0.393  0.00  0.00    +0.128 A 
ATOM     17  C   UNL     1      -3.916  -0.185   0.199  0.00  0.00    +0.008 A 
ATOM     19  C   UNL     1      -3.818   2.596   0.011  0.00  0.00    +0.038 A 
ATOM     20  C   UNL     1      -5.010   0.580   0.604  0.00  0.00    +0.000 A 
ATOM     21  C   UNL     1      -4.961   1.971   0.510  0.00  0.00    +0.003 A 
ENDBRANCH  11  13
ENDBRANCH   5  11
ENDBRANCH   7   5
BRANCH   7  10
ATOM     10  C   UNL     1       0.768  -1.866  -1.206  0.00  0.00    +0.085 C 
BRANCH  10  12
ATOM      3  O   UNL     1       3.961  -0.518  -0.184  0.00  0.00    -0.357 OA
ATOM      6  N   UNL     1       3.090  -1.575  -0.421  0.00  0.00    -0.083 NA
ATOM     12  C   UNL     1       1.959  -1.003  -0.844  0.00  0.00    +0.086 A 
ATOM     14  C   UNL     1       2.056   0.398  -0.894  0.00  0.00    +0.073 A 
ATOM     15  C   UNL     1       3.333   0.652  -0.469  0.00  0.00    +0.163 A 
BRANCH  15  18
ATOM     18  C   UNL     1       4.114   1.879  -0.273  0.00  0.00    +0.236 C 
BRANCH  18   4
ATOM      4  O   UNL     1       4.226   2.179   1.121  0.00  0.00    -0.375 OA
ATOM     22  C   UNL     1       4.978   3.362   1.332  0.00  0.00    +0.194 C 
ENDBRANCH  18   4
ENDBRANCH  15  18
ENDBRANCH  10  12
ENDBRANCH   7  10
TORSDOF 7
