REMARK  Name = 45361326
REMARK  10 active torsions:
REMARK  status: ('A' for Active; 'I' for Inactive)
REMARK    1  A    between atoms: O_2  and  C_10
REMARK    2  A    between atoms: N_6  and  C_28
REMARK    3  A    between atoms: N_6  and  C_29
REMARK    4  A    between atoms: C_8  and  C_16
REMARK    5  A    between atoms: C_11  and  C_17
REMARK    6  A    between atoms: C_13  and  C_20
REMARK    7  A    between atoms: C_17  and  C_21
REMARK    8  A    between atoms: C_17  and  C_22
REMARK    9  A    between atoms: C_24  and  C_27
REMARK   10  A    between atoms: C_28  and  C_30
REMARK                            x       y       z     vdW  Elec       q    Type
REMARK                         _______ _______ _______ _____ _____    ______ ____
ROOT
ATOM      1  S   UNL     1       3.784   1.888   0.895  0.00  0.00    -0.057 S 
ATOM      4  O   UNL     1       6.112  -1.758  -0.920  0.00  0.00    -0.275 OA
ATOM      5  N   UNL     1       3.484  -0.374  -0.322  0.00  0.00    -0.229 NA
ATOM      7  N   UNL     1       5.744   0.307   0.164  0.00  0.00    -0.264 N 
ATOM      8  C   UNL     1      -0.219   1.692  -0.028  0.00  0.00    -0.022 C 
ATOM      9  C   UNL     1      -0.319   0.117   0.012  0.00  0.00    +0.033 C 
ATOM     10  C   UNL     1      -1.635  -0.385  -0.648  0.00  0.00    +0.123 C 
ATOM     11  C   UNL     1      -2.891   0.312  -0.082  0.00  0.00    +0.029 C 
ATOM     12  C   UNL     1      -1.502   2.311   0.575  0.00  0.00    +0.008 C 
ATOM     13  C   UNL     1       0.982  -0.574  -0.569  0.00  0.00    +0.042 C 
ATOM     14  C   UNL     1      -2.776   1.836  -0.110  0.00  0.00    +0.007 C 
ATOM     15  C   UNL     1       0.984   2.168   0.845  0.00  0.00    +0.051 C 
ATOM     16  C   UNL     1      -0.034   2.227  -1.472  0.00  0.00    +0.012 C 
ATOM     18  C   UNL     1       2.222   0.146  -0.096  0.00  0.00    +0.057 A 
ATOM     19  C   UNL     1       2.203   1.377   0.527  0.00  0.00    +0.015 A 
ATOM     20  C   UNL     1       1.081  -2.068  -0.226  0.00  0.00    +0.014 C 
ATOM     23  C   UNL     1       4.383   0.452   0.168  0.00  0.00    +0.165 A 
ATOM     27  C   UNL     1       6.522  -0.750  -0.360  0.00  0.00    +0.222 C 
ATOM     33  H   UNL     1       6.247   1.079   0.597  0.00  0.00    +0.157 HD
ENDROOT
BRANCH  27  24
ATOM     24  C   UNL     1       8.000  -0.582  -0.191  0.00  0.00    +0.075 C 
ATOM     25  C   UNL     1       8.556  -0.348   1.183  0.00  0.00    +0.013 C 
ATOM     26  C   UNL     1       8.784  -1.662   0.495  0.00  0.00    +0.013 C 
ENDBRANCH  27  24
BRANCH  10   2
ATOM      2  O   UNL     1      -1.782  -1.784  -0.407  0.00  0.00    -0.391 OA
ATOM     32  H   UNL     1      -1.830  -1.920   0.554  0.00  0.00    +0.210 HD
ENDBRANCH  10   2
BRANCH  11  17
ATOM     17  C   UNL     1      -4.164  -0.120  -0.820  0.00  0.00    +0.078 C 
ATOM     21  C   UNL     1      -4.042   0.242  -2.301  0.00  0.00    +0.017 C 
BRANCH  17  22
ATOM      3  O   UNL     1      -5.746   1.663  -0.596  0.00  0.00    -0.275 OA
ATOM      6  N   UNL     1      -6.032  -0.116   0.856  0.00  0.00    -0.293 N 
ATOM     22  C   UNL     1      -5.384   0.554  -0.187  0.00  0.00    +0.219 C 
ATOM     29  C   UNL     1      -7.185   0.509   1.495  0.00  0.00    +0.133 C 
BRANCH   6  28
ATOM     28  C   UNL     1      -5.690  -1.440   1.374  0.00  0.00    +0.196 C 
BRANCH  28  30
ATOM     30  C   UNL     1      -6.421  -2.488   0.663  0.00  0.00    -0.086 C 
ATOM     31  C   UNL     1      -7.019  -3.352   0.082  0.00  0.00    +0.005 C 
ENDBRANCH  28  30
ENDBRANCH   6  28
ENDBRANCH  17  22
ENDBRANCH  11  17
TORSDOF 6
