REMARK  Name = 11879568
REMARK  8 active torsions:
REMARK  status: ('A' for Active; 'I' for Inactive)
REMARK    1  A    between atoms: O_3  and  C_25
REMARK    2  A    between atoms: O_3  and  C_26
REMARK    3  A    between atoms: N_5  and  C_14
REMARK    4  A    between atoms: N_6  and  C_15
REMARK    5  A    between atoms: N_7  and  C_18
REMARK    6  A    between atoms: N_11  and  C_29
REMARK    7  A    between atoms: N_11  and  C_32
REMARK    8  A    between atoms: N_11  and  C_33
REMARK                            x       y       z     vdW  Elec       q    Type
REMARK                         _______ _______ _______ _____ _____    ______ ____
ROOT
ATOM      1  O   UNL     1      -1.038  -0.749  -1.718  0.00  0.00    -0.370 OA
ATOM      2  O   UNL     1      -1.056  -3.325   0.088  0.00  0.00    -0.370 OA
ATOM     12  C   UNL     1      -1.584  -1.997   0.233  0.00  0.00    +0.171 C 
ATOM     13  C   UNL     1      -0.587  -1.035  -0.381  0.00  0.00    +0.176 C 
ATOM     14  C   UNL     1      -2.829  -1.834  -0.610  0.00  0.00    +0.131 C 
ATOM     15  C   UNL     1       0.716  -1.810  -0.432  0.00  0.00    +0.171 C 
ATOM     16  C   UNL     1      -2.256  -1.466  -1.966  0.00  0.00    +0.185 C 
ATOM     17  C   UNL     1       0.249  -3.260  -0.504  0.00  0.00    +0.190 C 
ENDROOT
BRANCH  14   5
ATOM      4  O   UNL     1      -5.670  -1.574  -0.974  0.00  0.00    -0.253 OA
ATOM      5  N   UNL     1      -3.673  -0.782  -0.097  0.00  0.00    -0.292 N 
ATOM      7  N   UNL     1      -5.623   0.379   0.280  0.00  0.00    -0.297 N 
ATOM     21  C   UNL     1      -5.047  -0.736  -0.323  0.00  0.00    +0.300 C 
ATOM     34  H   UNL     1      -3.240  -0.006   0.396  0.00  0.00    +0.151 HD
ATOM     35  H   UNL     1      -5.005   1.047   0.732  0.00  0.00    +0.151 HD
BRANCH   7  18
ATOM     18  C   UNL     1      -7.036   0.678   0.207  0.00  0.00    +0.074 C 
ATOM     19  C   UNL     1      -7.360   1.508  -1.039  0.00  0.00    +0.022 C 
ATOM     20  C   UNL     1      -7.517   1.378   1.482  0.00  0.00    +0.022 C 
ATOM     22  C   UNL     1      -6.854   2.947  -0.931  0.00  0.00    +0.002 C 
ATOM     23  C   UNL     1      -7.011   2.816   1.586  0.00  0.00    +0.002 C 
ATOM     24  C   UNL     1      -7.356   3.626   0.340  0.00  0.00    +0.000 C 
ENDBRANCH   7  18
ENDBRANCH  14   5
BRANCH  15   6
ATOM      6  N   UNL     1       1.600  -1.498   0.694  0.00  0.00    -0.187 N 
ATOM      8  N   UNL     1       1.202  -1.684   1.961  0.00  0.00    -0.041 NA
ATOM      9  N   UNL     1       3.281  -0.880   1.917  0.00  0.00    -0.071 NA
ATOM     10  N   UNL     1       2.234  -1.304   2.704  0.00  0.00    -0.020 NA
ATOM     25  C   UNL     1       2.867  -1.009   0.677  0.00  0.00    +0.342 A 
BRANCH  25   3
ATOM      3  O   UNL     1       3.547  -0.718  -0.416  0.00  0.00    -0.423 OA
BRANCH   3  26
ATOM     26  C   UNL     1       4.841  -0.217  -0.380  0.00  0.00    +0.134 A 
ATOM     27  C   UNL     1       5.056   1.160  -0.333  0.00  0.00    +0.069 A 
ATOM     28  C   UNL     1       5.928  -1.092  -0.391  0.00  0.00    +0.046 A 
ATOM     29  C   UNL     1       6.357   1.663  -0.297  0.00  0.00    +0.033 A 
ATOM     30  C   UNL     1       7.229  -0.590  -0.354  0.00  0.00    +0.005 A 
ATOM     31  C   UNL     1       7.443   0.788  -0.308  0.00  0.00    +0.023 A 
BRANCH  29  11
ATOM     11  N   UNL     1       6.574   3.055  -0.250  0.00  0.00    -0.336 N 
ATOM     32  C   UNL     1       5.452   3.974  -0.253  0.00  0.00    +0.129 C 
ATOM     33  C   UNL     1       7.922   3.587  -0.212  0.00  0.00    +0.129 C 
ENDBRANCH  29  11
ENDBRANCH   3  26
ENDBRANCH  25   3
ENDBRANCH  15   6
TORSDOF 6
