REMARK  Name = 75536557
REMARK  6 active torsions:
REMARK  status: ('A' for Active; 'I' for Inactive)
REMARK    1  A    between atoms: O_4  and  C_10
REMARK    2  A    between atoms: N_6  and  C_8
REMARK    3  A    between atoms: N_6  and  C_9
REMARK    4  A    between atoms: N_7  and  C_19
REMARK    5  A    between atoms: C_11  and  C_19
REMARK    6  A    between atoms: C_18  and  C_24
REMARK                            x       y       z     vdW  Elec       q    Type
REMARK                         _______ _______ _______ _____ _____    ______ ____
ROOT
ATOM      3  O   UNL     1       0.716   0.507   1.224  0.00  0.00    -0.371 OA
ATOM      8  C   UNL     1      -1.271   0.442  -0.076  0.00  0.00    +0.111 C 
ATOM     10  C   UNL     1      -0.156   1.050  -0.906  0.00  0.00    +0.164 C 
ATOM     11  C   UNL     1       1.073   0.537  -0.168  0.00  0.00    +0.165 C 
ATOM     14  C   UNL     1      -0.716   0.594   1.330  0.00  0.00    +0.181 C 
ENDROOT
BRANCH  10   4
ATOM      4  O   UNL     1      -0.180   0.619  -2.253  0.00  0.00    -0.388 OA
ATOM     27  H   UNL     1      -0.142  -0.352  -2.264  0.00  0.00    +0.210 HD
ENDBRANCH  10   4
BRANCH   8   6
ATOM      6  N   UNL     1      -2.555   1.100  -0.253  0.00  0.00    -0.306 NA
ATOM     25  H   UNL     1      -2.721   1.290  -1.240  0.00  0.00    +0.123 HD
BRANCH   6   9
ATOM      1  F   UNL     1      -6.886  -0.221  -0.995  0.00  0.00    -0.206 F 
ATOM      2  F   UNL     1      -7.362  -1.551   0.658  0.00  0.00    -0.206 F 
ATOM      9  C   UNL     1      -3.637   0.276   0.284  0.00  0.00    +0.054 C 
ATOM     12  C   UNL     1      -4.845   1.159   0.622  0.00  0.00    +0.024 C 
ATOM     13  C   UNL     1      -4.012  -0.814  -0.727  0.00  0.00    +0.024 C 
ATOM     15  C   UNL     1      -6.022   0.323   1.119  0.00  0.00    +0.077 C 
ATOM     16  C   UNL     1      -5.189  -1.652  -0.230  0.00  0.00    +0.077 C 
ATOM     17  C   UNL     1      -6.378  -0.778   0.135  0.00  0.00    +0.249 C 
ENDBRANCH   6   9
ENDBRANCH   8   6
BRANCH  11  19
ATOM     19  C   UNL     1       2.299   1.411  -0.364  0.00  0.00    +0.138 C 
BRANCH  19   7
ATOM      5  O   UNL     1       4.284  -0.476  -1.328  0.00  0.00    -0.276 OA
ATOM      7  N   UNL     1       3.429   0.892   0.352  0.00  0.00    -0.313 N 
ATOM     24  C   UNL     1       4.333  -0.013  -0.191  0.00  0.00    +0.216 C 
ATOM     26  H   UNL     1       3.566   1.214   1.306  0.00  0.00    +0.149 HD
BRANCH  24  18
ATOM     18  C   UNL     1       5.432  -0.372   0.761  0.00  0.00    +0.075 C 
ATOM     20  C   UNL     1       6.619   0.583   0.588  0.00  0.00    +0.013 C 
ATOM     21  C   UNL     1       5.966  -1.775   0.466  0.00  0.00    +0.013 C 
ATOM     22  C   UNL     1       7.827  -0.301   0.298  0.00  0.00    +0.001 C 
ATOM     23  C   UNL     1       7.232  -1.541  -0.345  0.00  0.00    +0.001 C 
ENDBRANCH  24  18
ENDBRANCH  19   7
ENDBRANCH  11  19
TORSDOF 6
