REMARK  Name = 45783341
REMARK  9 active torsions:
REMARK  status: ('A' for Active; 'I' for Inactive)
REMARK    1  A    between atoms: O_2  and  C_24
REMARK    2  A    between atoms: O_2  and  C_26
REMARK    3  A    between atoms: O_3  and  C_27
REMARK    4  A    between atoms: O_3  and  C_28
REMARK    5  A    between atoms: N_4  and  C_12
REMARK    6  A    between atoms: C_8  and  C_13
REMARK    7  A    between atoms: C_12  and  C_14
REMARK    8  A    between atoms: C_17  and  C_20
REMARK    9  A    between atoms: C_26  and  C_27
REMARK                            x       y       z     vdW  Elec       q    Type
REMARK                         _______ _______ _______ _____ _____    ______ ____
ROOT
ATOM      1  O   UNL     1       1.419   3.451   0.381  0.00  0.00    -0.336 OA
ATOM      5  N   UNL     1       0.509   1.488  -0.199  0.00  0.00    -0.190 NA
ATOM      6  N   UNL     1       0.070   3.523   0.751  0.00  0.00    -0.056 NA
ATOM     13  C   UNL     1       1.593   2.222  -0.171  0.00  0.00    +0.245 A 
ATOM     17  C   UNL     1      -0.399   2.328   0.377  0.00  0.00    +0.202 A 
ENDROOT
BRANCH  17  20
ATOM      7  N   UNL     1      -4.436   1.196   0.927  0.00  0.00    -0.221 NA
ATOM     20  C   UNL     1      -1.768   1.944   0.563  0.00  0.00    +0.029 A 
ATOM     22  C   UNL     1      -2.203   0.689   0.153  0.00  0.00    +0.079 A 
ATOM     23  C   UNL     1      -2.666   2.826   1.154  0.00  0.00    +0.031 A 
ATOM     24  C   UNL     1      -3.535   0.366   0.356  0.00  0.00    +0.215 A 
ATOM     25  C   UNL     1      -3.977   2.408   1.312  0.00  0.00    +0.115 A 
BRANCH  24   2
ATOM      2  O   UNL     1      -3.988  -0.866  -0.039  0.00  0.00    -0.474 OA
BRANCH   2  26
ATOM     26  C   UNL     1      -5.364  -1.146   0.192  0.00  0.00    +0.258 C 
BRANCH  26  27
ATOM     27  C   UNL     1      -5.680  -2.534  -0.330  0.00  0.00    +0.200 C 
BRANCH  27   3
ATOM      3  O   UNL     1      -5.423  -2.575  -1.728  0.00  0.00    -0.380 OA
ATOM     28  C   UNL     1      -5.683  -3.863  -2.268  0.00  0.00    +0.194 C 
ENDBRANCH  27   3
ENDBRANCH  26  27
ENDBRANCH   2  26
ENDBRANCH  24   2
ENDBRANCH  17  20
BRANCH  13   8
ATOM      4  N   UNL     1       3.272   0.444  -0.632  0.00  0.00    -0.287 NA
ATOM      8  C   UNL     1       2.989   1.892  -0.659  0.00  0.00    +0.146 C 
ATOM      9  C   UNL     1       3.221   2.310  -2.123  0.00  0.00    +0.030 C 
ATOM     10  C   UNL     1       3.690   1.045  -2.828  0.00  0.00    +0.017 C 
ATOM     11  C   UNL     1       4.239   0.192  -1.702  0.00  0.00    +0.085 C 
BRANCH   4  12
ATOM     12  C   UNL     1       3.752  -0.025   0.661  0.00  0.00    +0.120 C 
BRANCH  12  14
ATOM     14  C   UNL     1       3.566  -1.510   0.824  0.00  0.00    -0.033 A 
ATOM     15  C   UNL     1       2.385  -2.009   1.374  0.00  0.00    +0.005 A 
ATOM     16  C   UNL     1       4.575  -2.386   0.425  0.00  0.00    +0.005 A 
ATOM     18  C   UNL     1       2.214  -3.385   1.525  0.00  0.00    +0.000 A 
ATOM     19  C   UNL     1       4.404  -3.762   0.577  0.00  0.00    +0.000 A 
ATOM     21  C   UNL     1       3.223  -4.262   1.126  0.00  0.00    +0.000 A 
ENDBRANCH  12  14
ENDBRANCH   4  12
ENDBRANCH  13   8
TORSDOF 8
