REMARK  Name = 11886264
REMARK  6 active torsions:
REMARK  status: ('A' for Active; 'I' for Inactive)
REMARK    1  A    between atoms: O_3  and  C_20
REMARK    2  A    between atoms: O_3  and  C_23
REMARK    3  A    between atoms: N_5  and  C_16
REMARK    4  A    between atoms: N_6  and  C_17
REMARK    5  A    between atoms: N_9  and  C_22
REMARK    6  A    between atoms: N_11  and  C_35
REMARK                            x       y       z     vdW  Elec       q    Type
REMARK                         _______ _______ _______ _____ _____    ______ ____
ROOT
ATOM      1  O   UNL     1      -0.762  -3.351  -0.080  0.00  0.00    -0.370 OA
ATOM      2  O   UNL     1      -0.560  -1.100  -2.267  0.00  0.00    -0.370 OA
ATOM     14  C   UNL     1      -0.278  -1.150  -0.856  0.00  0.00    +0.176 C 
ATOM     15  C   UNL     1      -1.328  -2.039  -0.220  0.00  0.00    +0.172 C 
ATOM     16  C   UNL     1       1.034  -1.873  -0.618  0.00  0.00    +0.171 C 
ATOM     17  C   UNL     1      -2.458  -2.061  -1.226  0.00  0.00    +0.131 C 
ATOM     18  C   UNL     1       0.607  -3.332  -0.508  0.00  0.00    +0.190 C 
ATOM     19  C   UNL     1      -1.722  -1.894  -2.542  0.00  0.00    +0.185 C 
ENDROOT
BRANCH  17   6
ATOM      4  O   UNL     1      -4.883  -2.158   0.296  0.00  0.00    -0.252 OA
ATOM      6  N   UNL     1      -3.379  -0.974  -1.000  0.00  0.00    -0.292 N 
ATOM      9  N   UNL     1      -5.238   0.109  -0.197  0.00  0.00    -0.269 N 
ATOM     21  C   UNL     1      -4.548  -1.105  -0.240  0.00  0.00    +0.304 C 
ATOM     40  H   UNL     1      -3.133  -0.052  -1.350  0.00  0.00    +0.151 HD
ATOM     41  H   UNL     1      -4.905   0.805  -0.855  0.00  0.00    +0.156 HD
BRANCH   9  22
ATOM     22  C   UNL     1      -6.457   0.392   0.464  0.00  0.00    +0.042 A 
ATOM     24  C   UNL     1      -7.339   1.359  -0.022  0.00  0.00    +0.003 A 
ATOM     25  C   UNL     1      -6.732  -0.335   1.615  0.00  0.00    +0.024 A 
ATOM     26  C   UNL     1      -8.543   1.599   0.682  0.00  0.00    -0.016 A 
ATOM     29  C   UNL     1      -7.065   2.097  -1.185  0.00  0.00    +0.010 A 
ATOM     30  C   UNL     1      -7.917  -0.099   2.307  0.00  0.00    +0.002 A 
ATOM     31  C   UNL     1      -8.817   0.861   1.845  0.00  0.00    +0.008 A 
ATOM     34  C   UNL     1      -9.437   2.570   0.202  0.00  0.00    +0.008 A 
ATOM     36  C   UNL     1      -7.965   3.058  -1.648  0.00  0.00    +0.001 A 
ATOM     37  C   UNL     1      -9.149   3.293  -0.955  0.00  0.00    +0.001 A 
ENDBRANCH   9  22
ENDBRANCH  17   6
BRANCH  16   5
ATOM      5  N   UNL     1       1.761  -1.350   0.542  0.00  0.00    -0.187 N 
ATOM      7  N   UNL     1       1.200  -1.339   1.755  0.00  0.00    -0.041 NA
ATOM      8  N   UNL     1       3.258  -0.487   1.840  0.00  0.00    -0.071 NA
ATOM     10  N   UNL     1       2.123  -0.809   2.548  0.00  0.00    -0.020 NA
ATOM     20  C   UNL     1       3.010  -0.832   0.597  0.00  0.00    +0.342 A 
BRANCH  20   3
ATOM      3  O   UNL     1       3.824  -0.704  -0.435  0.00  0.00    -0.423 OA
BRANCH   3  23
ATOM     23  C   UNL     1       5.097  -0.163  -0.320  0.00  0.00    +0.132 A 
ATOM     27  C   UNL     1       5.263   1.200  -0.481  0.00  0.00    +0.048 A 
ATOM     28  C   UNL     1       6.160  -1.002  -0.050  0.00  0.00    +0.048 A 
ATOM     32  C   UNL     1       6.543   1.743  -0.367  0.00  0.00    +0.031 A 
ATOM     33  C   UNL     1       7.440  -0.458   0.065  0.00  0.00    +0.031 A 
ATOM     35  C   UNL     1       7.631   0.915  -0.094  0.00  0.00    +0.067 A 
BRANCH  35  11
ATOM     11  N   UNL     1       8.899   1.454   0.019  0.00  0.00    -0.220 N 
ATOM     12  N   UNL     1       9.977   0.692   0.280  0.00  0.00    -0.154 NA
ATOM     13  N   UNL     1      10.548   2.897   0.064  0.00  0.00    -0.222 NA
ATOM     38  C   UNL     1       9.254   2.765  -0.107  0.00  0.00    +0.225 A 
ATOM     39  C   UNL     1      10.945   1.611   0.297  0.00  0.00    +0.245 A 
ENDBRANCH  35  11
ENDBRANCH   3  23
ENDBRANCH  20   3
ENDBRANCH  16   5
TORSDOF 6
