REMARK  Name = 45783691
REMARK  6 active torsions:
REMARK  status: ('A' for Active; 'I' for Inactive)
REMARK    1  A    between atoms: O_4  and  C_26
REMARK    2  A    between atoms: O_4  and  C_27
REMARK    3  A    between atoms: N_5  and  C_13
REMARK    4  A    between atoms: C_9  and  C_14
REMARK    5  A    between atoms: C_13  and  C_15
REMARK    6  A    between atoms: C_18  and  C_21
REMARK                            x       y       z     vdW  Elec       q    Type
REMARK                         _______ _______ _______ _____ _____    ______ ____
ROOT
ATOM      5  N   UNL     1      -3.343  -0.980  -0.608  0.00  0.00    -0.287 NA
ATOM      9  C   UNL     1      -2.762  -1.734   0.520  0.00  0.00    +0.146 C 
ATOM     10  C   UNL     1      -2.943  -3.214   0.137  0.00  0.00    +0.030 C 
ATOM     11  C   UNL     1      -3.689  -3.192  -1.190  0.00  0.00    +0.017 C 
ATOM     12  C   UNL     1      -4.372  -1.840  -1.193  0.00  0.00    +0.085 C 
ENDROOT
BRANCH   9  14
ATOM      3  O   UNL     1      -1.018  -0.918   2.026  0.00  0.00    -0.336 OA
ATOM      6  N   UNL     1      -0.287  -1.425  -0.030  0.00  0.00    -0.190 NA
ATOM      7  N   UNL     1       0.357  -0.650   2.024  0.00  0.00    -0.056 NA
ATOM     14  C   UNL     1      -1.315  -1.370   0.779  0.00  0.00    +0.245 A 
ATOM     18  C   UNL     1       0.716  -0.974   0.778  0.00  0.00    +0.204 A 
BRANCH  18  21
ATOM      8  N   UNL     1       4.366  -0.266   0.760  0.00  0.00    -0.221 NA
ATOM     21  C   UNL     1       2.067  -0.860   0.309  0.00  0.00    +0.041 A 
ATOM     23  C   UNL     1       2.404  -1.208  -0.994  0.00  0.00    +0.018 A 
ATOM     24  C   UNL     1       3.075  -0.399   1.139  0.00  0.00    +0.126 A 
ATOM     25  C   UNL     1       3.722  -1.085  -1.421  0.00  0.00    +0.068 A 
ATOM     26  C   UNL     1       4.657  -0.614  -0.513  0.00  0.00    +0.214 A 
BRANCH  26   4
ATOM      4  O   UNL     1       5.962  -0.485  -0.910  0.00  0.00    -0.480 OA
ATOM     27  C   UNL     1       6.880   0.003   0.060  0.00  0.00    +0.279 C 
ENDBRANCH  26   4
ENDBRANCH  18  21
ENDBRANCH   9  14
BRANCH   5  13
ATOM     13  C   UNL     1      -3.873   0.321  -0.218  0.00  0.00    +0.120 C 
BRANCH  13  15
ATOM      1  F   UNL     1      -0.163   2.889  -2.078  0.00  0.00    -0.202 F 
ATOM      2  F   UNL     1       0.205   4.174   0.307  0.00  0.00    -0.202 F 
ATOM     15  C   UNL     1      -2.783   1.350  -0.077  0.00  0.00    -0.030 A 
ATOM     16  C   UNL     1      -1.962   1.649  -1.164  0.00  0.00    +0.046 A 
ATOM     17  C   UNL     1      -2.596   2.006   1.139  0.00  0.00    +0.008 A 
ATOM     19  C   UNL     1      -0.952   2.603  -1.034  0.00  0.00    +0.159 A 
ATOM     20  C   UNL     1      -1.587   2.960   1.269  0.00  0.00    +0.041 A 
ATOM     22  C   UNL     1      -0.765   3.259   0.182  0.00  0.00    +0.158 A 
ENDBRANCH  13  15
ENDBRANCH   5  13
TORSDOF 5
