REMARK  Name = 45783634
REMARK  8 active torsions:
REMARK  status: ('A' for Active; 'I' for Inactive)
REMARK    1  A    between atoms: O_3  and  C_28
REMARK    2  A    between atoms: O_3  and  C_29
REMARK    3  A    between atoms: N_4  and  C_10
REMARK    4  A    between atoms: N_5  and  C_20
REMARK    5  A    between atoms: N_9  and  C_26
REMARK    6  A    between atoms: C_11  and  C_19
REMARK    7  A    between atoms: C_21  and  C_22
REMARK    8  A    between atoms: C_27  and  C_28
REMARK                            x       y       z     vdW  Elec       q    Type
REMARK                         _______ _______ _______ _____ _____    ______ ____
ROOT
ATOM      1  O   UNL     1      -2.079   2.388  -1.499  0.00  0.00    -0.336 OA
ATOM      6  N   UNL     1      -1.137   1.176   0.132  0.00  0.00    -0.190 NA
ATOM      7  N   UNL     1      -0.719   2.290  -1.822  0.00  0.00    -0.056 NA
ATOM     19  C   UNL     1      -2.239   1.705  -0.335  0.00  0.00    +0.245 A 
ATOM     21  C   UNL     1      -0.232   1.561  -0.814  0.00  0.00    +0.204 A 
ENDROOT
BRANCH  21  22
ATOM      8  N   UNL     1       3.380   1.296  -1.660  0.00  0.00    -0.239 NA
ATOM     22  C   UNL     1       1.154   1.202  -0.720  0.00  0.00    +0.041 A 
ATOM     23  C   UNL     1       1.628   0.444   0.344  0.00  0.00    +0.016 A 
ATOM     24  C   UNL     1       2.062   1.600  -1.688  0.00  0.00    +0.124 A 
ATOM     25  C   UNL     1       2.976   0.111   0.408  0.00  0.00    +0.044 A 
ATOM     26  C   UNL     1       3.803   0.558  -0.610  0.00  0.00    +0.125 A 
BRANCH  26   9
ATOM      2  O   UNL     1       5.306  -1.039   1.451  0.00  0.00    -0.273 OA
ATOM      9  N   UNL     1       5.159   0.217  -0.537  0.00  0.00    -0.268 N 
ATOM     27  C   UNL     1       5.806  -0.532   0.451  0.00  0.00    +0.244 C 
ATOM     30  H   UNL     1       5.723   0.568  -1.307  0.00  0.00    +0.156 HD
BRANCH  27  28
ATOM     28  C   UNL     1       7.287  -0.676   0.176  0.00  0.00    +0.255 C 
BRANCH  28   3
ATOM      3  O   UNL     1       7.871  -1.437   1.214  0.00  0.00    -0.374 OA
ATOM     29  C   UNL     1       9.271  -1.613   1.020  0.00  0.00    +0.194 C 
ENDBRANCH  28   3
ENDBRANCH  27  28
ENDBRANCH  26   9
ENDBRANCH  21  22
BRANCH  19  11
ATOM      4  N   UNL     1      -3.883   0.458   1.055  0.00  0.00    -0.288 NA
ATOM     11  C   UNL     1      -3.642   1.660   0.233  0.00  0.00    +0.146 C 
ATOM     12  C   UNL     1      -4.882   0.835   2.055  0.00  0.00    +0.085 C 
ATOM     15  C   UNL     1      -3.941   2.843   1.172  0.00  0.00    +0.030 C 
ATOM     16  C   UNL     1      -4.401   2.208   2.477  0.00  0.00    +0.017 C 
BRANCH   4  10
ATOM      5  N   UNL     1      -3.820  -3.447  -0.622  0.00  0.00    -0.305 NA
ATOM     10  C   UNL     1      -4.301  -0.702   0.271  0.00  0.00    +0.060 C 
ATOM     13  C   UNL     1      -4.522  -1.909   1.186  0.00  0.00    +0.034 C 
ATOM     14  C   UNL     1      -3.261  -1.043  -0.801  0.00  0.00    +0.034 C 
ATOM     17  C   UNL     1      -4.864  -3.160   0.372  0.00  0.00    +0.085 C 
ATOM     18  C   UNL     1      -3.644  -2.322  -1.550  0.00  0.00    +0.085 C 
ATOM     20  C   UNL     1      -4.136  -4.672  -1.356  0.00  0.00    +0.104 C 
ENDBRANCH   4  10
ENDBRANCH  19  11
TORSDOF 6
