REMARK  Name = 11884000
REMARK  8 active torsions:
REMARK  status: ('A' for Active; 'I' for Inactive)
REMARK    1  A    between atoms: O_3  and  C_12
REMARK    2  A    between atoms: O_3  and  C_16
REMARK    3  A    between atoms: N_6  and  C_11
REMARK    4  A    between atoms: N_7  and  C_17
REMARK    5  A    between atoms: N_8  and  C_18
REMARK    6  A    between atoms: C_22  and  C_23
REMARK    7  A    between atoms: C_23  and  C_30
REMARK    8  A    between atoms: C_23  and  C_31
REMARK                            x       y       z     vdW  Elec       q    Type
REMARK                         _______ _______ _______ _____ _____    ______ ____
ROOT
ATOM      1  O   UNL     1       0.597  -1.386  -1.085  0.00  0.00    -0.368 OA
ATOM      2  O   UNL     1      -0.294  -3.069   1.319  0.00  0.00    -0.368 OA
ATOM      9  C   UNL     1      -0.798  -1.829   0.781  0.00  0.00    +0.173 C 
ATOM     10  C   UNL     1       0.402  -1.040   0.296  0.00  0.00    +0.192 C 
ATOM     11  C   UNL     1      -1.591  -2.092  -0.478  0.00  0.00    +0.131 C 
ATOM     12  C   UNL     1       1.515  -1.571   1.168  0.00  0.00    +0.235 C 
ATOM     13  C   UNL     1      -0.499  -2.201  -1.529  0.00  0.00    +0.185 C 
ATOM     14  C   UNL     1       1.141  -3.029   1.311  0.00  0.00    +0.207 C 
ENDROOT
BRANCH  11   6
ATOM      4  O   UNL     1      -4.354  -1.913   0.257  0.00  0.00    -0.252 OA
ATOM      6  N   UNL     1      -2.491  -1.003  -0.767  0.00  0.00    -0.292 N 
ATOM      7  N   UNL     1      -4.457   0.186  -0.789  0.00  0.00    -0.269 N 
ATOM     15  C   UNL     1      -3.834  -0.993  -0.370  0.00  0.00    +0.304 C 
ATOM     36  H   UNL     1      -2.118  -0.176  -1.224  0.00  0.00    +0.151 HD
ATOM     37  H   UNL     1      -3.881   0.849  -1.302  0.00  0.00    +0.156 HD
BRANCH   7  17
ATOM     17  C   UNL     1      -5.801   0.577  -0.587  0.00  0.00    +0.035 A 
ATOM     19  C   UNL     1      -6.675  -0.261   0.106  0.00  0.00    +0.023 A 
ATOM     20  C   UNL     1      -6.253   1.801  -1.081  0.00  0.00    +0.023 A 
ATOM     22  C   UNL     1      -8.452   1.349  -0.189  0.00  0.00    -0.045 A 
ATOM     24  C   UNL     1      -8.000   0.125   0.305  0.00  0.00    +0.006 A 
ATOM     25  C   UNL     1      -7.578   2.187  -0.881  0.00  0.00    +0.006 A 
BRANCH  22  23
ATOM     23  C   UNL     1      -9.869   1.762   0.023  0.00  0.00    +0.013 C 
ATOM     30  C   UNL     1     -10.221   1.918   1.515  0.00  0.00    +0.012 C 
ATOM     31  C   UNL     1     -10.869   0.803  -0.651  0.00  0.00    +0.012 C 
ENDBRANCH  22  23
ENDBRANCH   7  17
ENDBRANCH  11   6
BRANCH  12   3
ATOM      3  O   UNL     1       2.797  -1.405   0.607  0.00  0.00    -0.442 OA
BRANCH   3  16
ATOM      5  O   UNL     1       3.033   0.578   1.720  0.00  0.00    -0.226 OA
ATOM      8  N   UNL     1       4.719  -0.257   0.328  0.00  0.00    -0.251 N 
ATOM     16  C   UNL     1       3.490  -0.265   0.958  0.00  0.00    +0.405 C 
ATOM     38  H   UNL     1       4.890  -1.063  -0.263  0.00  0.00    +0.158 HD
BRANCH   8  18
ATOM     18  C   UNL     1       5.734   0.722   0.412  0.00  0.00    +0.044 A 
ATOM     21  C   UNL     1       6.944   0.596  -0.291  0.00  0.00    +0.003 A 
ATOM     26  C   UNL     1       5.495   1.830   1.225  0.00  0.00    +0.024 A 
ATOM     27  C   UNL     1       7.924   1.609  -0.167  0.00  0.00    -0.016 A 
ATOM     28  C   UNL     1       7.202  -0.512  -1.114  0.00  0.00    +0.010 A 
ATOM     29  C   UNL     1       6.460   2.827   1.347  0.00  0.00    +0.002 A 
ATOM     32  C   UNL     1       7.667   2.718   0.656  0.00  0.00    +0.008 A 
ATOM     33  C   UNL     1       9.134   1.484  -0.870  0.00  0.00    +0.008 A 
ATOM     34  C   UNL     1       8.409  -0.621  -1.804  0.00  0.00    +0.001 A 
ATOM     35  C   UNL     1       9.373   0.376  -1.683  0.00  0.00    +0.001 A 
ENDBRANCH   8  18
ENDBRANCH   3  16
ENDBRANCH  12   3
TORSDOF 6
