REMARK  Name = 45784144
REMARK  10 active torsions:
REMARK  status: ('A' for Active; 'I' for Inactive)
REMARK    1  A    between atoms: N_3  and  C_16
REMARK    2  A    between atoms: C_9  and  C_13
REMARK    3  A    between atoms: C_10  and  C_16
REMARK    4  A    between atoms: C_12  and  C_17
REMARK    5  A    between atoms: C_13  and  C_18
REMARK    6  A    between atoms: C_13  and  C_19
REMARK    7  A    between atoms: C_14  and  C_20
REMARK    8  A    between atoms: C_17  and  C_21
REMARK    9  A    between atoms: C_22  and  C_24
REMARK   10  A    between atoms: C_23  and  C_25
REMARK                            x       y       z     vdW  Elec       q    Type
REMARK                         _______ _______ _______ _____ _____    ______ ____
ROOT
ATOM      9  C   UNL     1       0.890   1.752  -1.218  0.00  0.00    +0.000 C 
ATOM     10  C   UNL     1       2.347   2.275  -1.162  0.00  0.00    +0.032 C 
ATOM     11  C   UNL     1      -0.029   2.631  -0.355  0.00  0.00    +0.012 C 
ATOM     12  C   UNL     1       0.419   2.671   1.118  0.00  0.00    +0.024 C 
ATOM     14  C   UNL     1       1.908   2.918   1.248  0.00  0.00    -0.073 C 
ATOM     15  C   UNL     1       2.753   2.749   0.215  0.00  0.00    -0.022 C 
ATOM     20  C   UNL     1       2.400   3.409   2.581  0.00  0.00    +0.039 C 
ENDROOT
BRANCH   9  13
ATOM     13  C   UNL     1       0.360   1.701  -2.654  0.00  0.00    -0.013 C 
ATOM     18  C   UNL     1      -0.120   3.080  -3.094  0.00  0.00    +0.007 C 
ATOM     19  C   UNL     1      -0.764   0.675  -2.770  0.00  0.00    +0.007 C 
ENDBRANCH   9  13
BRANCH  10  16
ATOM     16  C   UNL     1       3.337   1.210  -1.647  0.00  0.00    +0.112 C 
BRANCH  16   3
ATOM      2  O   UNL     1       2.696  -1.511  -2.301  0.00  0.00    -0.268 OA
ATOM      3  N   UNL     1       3.354   0.091  -0.757  0.00  0.00    -0.309 N 
ATOM     22  C   UNL     1       3.027  -1.203  -1.160  0.00  0.00    +0.264 C 
ATOM     33  H   UNL     1       3.656   0.239   0.202  0.00  0.00    +0.149 HD
BRANCH  22  24
ATOM      6  N   UNL     1       3.420  -1.852   1.130  0.00  0.00    -0.247 NA
ATOM      7  N   UNL     1       2.801  -4.526   0.553  0.00  0.00    -0.259 NA
ATOM     24  C   UNL     1       3.069  -2.252  -0.108  0.00  0.00    +0.143 A 
ATOM     26  C   UNL     1       2.765  -3.565  -0.391  0.00  0.00    +0.143 A 
ATOM     29  C   UNL     1       3.456  -2.812   2.075  0.00  0.00    +0.131 A 
ATOM     30  C   UNL     1       3.152  -4.126   1.792  0.00  0.00    +0.130 A 
ENDBRANCH  22  24
ENDBRANCH  16   3
ENDBRANCH  10  16
BRANCH  12  17
ATOM     17  C   UNL     1       0.009   1.391   1.855  0.00  0.00    +0.105 C 
BRANCH  17  21
ATOM      1  O   UNL     1      -1.889   0.198   0.889  0.00  0.00    -0.420 OA
ATOM      4  N   UNL     1      -2.453   1.742   2.407  0.00  0.00    -0.112 NA
ATOM      5  N   UNL     1      -3.615   1.150   1.948  0.00  0.00    -0.107 NA
ATOM     21  C   UNL     1      -1.472   1.155   1.763  0.00  0.00    +0.218 A 
ATOM     23  C   UNL     1      -3.237   0.256   1.064  0.00  0.00    +0.248 A 
BRANCH  23  25
ATOM      8  N   UNL     1      -5.522  -2.422  -1.281  0.00  0.00    -0.263 NA
ATOM     25  C   UNL     1      -4.012  -0.653   0.269  0.00  0.00    +0.041 A 
ATOM     27  C   UNL     1      -5.398  -0.668   0.378  0.00  0.00    +0.033 A 
ATOM     28  C   UNL     1      -3.380  -1.521  -0.614  0.00  0.00    +0.033 A 
ATOM     31  C   UNL     1      -6.101  -1.564  -0.412  0.00  0.00    +0.111 A 
ATOM     32  C   UNL     1      -4.173  -2.378  -1.360  0.00  0.00    +0.111 A 
ENDBRANCH  23  25
ENDBRANCH  17  21
ENDBRANCH  12  17
TORSDOF 7
