REMARK  Name = 7143919
REMARK  6 active torsions:
REMARK  status: ('A' for Active; 'I' for Inactive)
REMARK    1  A    between atoms: S_2  and  N_6
REMARK    2  A    between atoms: S_2  and  C_17
REMARK    3  A    between atoms: C_17  and  C_20
REMARK    4  A    between atoms: C_18  and  C_21
REMARK    5  A    between atoms: C_20  and  C_22
REMARK    6  A    between atoms: C_23  and  C_24
REMARK                            x       y       z     vdW  Elec       q    Type
REMARK                         _______ _______ _______ _____ _____    ______ ____
ROOT
ATOM      5  O   UNL     1       0.851  -1.630  -1.847  0.00  0.00    -0.267 OA
ATOM      6  N   UNL     1      -3.525   0.098  -0.226  0.00  0.00    -0.180 NA
ATOM      7  N   UNL     1      -0.885  -1.640  -0.291  0.00  0.00    -0.311 N 
ATOM      8  C   UNL     1      -3.284  -2.291  -0.911  0.00  0.00    +0.025 C 
ATOM      9  C   UNL     1      -2.758  -1.626   1.394  0.00  0.00    +0.052 C 
ATOM     10  C   UNL     1      -3.393  -2.724   0.545  0.00  0.00    +0.017 C 
ATOM     11  C   UNL     1      -4.032  -0.967  -1.138  0.00  0.00    +0.114 C 
ATOM     12  C   UNL     1      -3.543  -0.314   1.209  0.00  0.00    +0.118 C 
ATOM     13  C   UNL     1      -1.802  -2.199  -1.295  0.00  0.00    +0.130 C 
ATOM     14  C   UNL     1      -1.300  -1.425   1.025  0.00  0.00    +0.026 A 
ATOM     15  C   UNL     1      -0.415  -1.023   1.951  0.00  0.00    +0.022 A 
ATOM     16  C   UNL     1       0.448  -1.432  -0.699  0.00  0.00    +0.259 A 
ATOM     18  C   UNL     1       1.411  -0.955   0.356  0.00  0.00    +0.040 A 
ATOM     19  C   UNL     1       0.957  -0.784   1.606  0.00  0.00    +0.015 A 
ENDROOT
BRANCH   6   2
ATOM      2  S   UNL     1      -4.092   1.681  -0.548  0.00  0.00    +0.032 S 
ATOM      3  O   UNL     1      -4.174   1.863  -1.981  0.00  0.00    -0.158 OA
ATOM      4  O   UNL     1      -3.378   2.613   0.298  0.00  0.00    -0.158 OA
BRANCH   2  17
ATOM     17  C   UNL     1      -5.744   1.524   0.080  0.00  0.00    +0.185 C 
BRANCH  17  20
ATOM     20  C   UNL     1      -6.520   2.821  -0.076  0.00  0.00    +0.021 C 
ATOM     22  C   UNL     1      -7.929   2.696   0.479  0.00  0.00    +0.005 C 
ENDBRANCH  17  20
ENDBRANCH   2  17
ENDBRANCH   6   2
BRANCH  18  21
ATOM     21  C   UNL     1       2.788  -0.704   0.013  0.00  0.00    +0.014 C 
ATOM     23  C   UNL     1       3.535   0.217   0.634  0.00  0.00    +0.008 C 
BRANCH  23  24
ATOM      1 CL   UNL     1       9.231   1.427  -0.663  0.00  0.00    -0.084 Cl
ATOM     24  C   UNL     1       4.942   0.516   0.314  0.00  0.00    -0.025 A 
ATOM     25  C   UNL     1       5.695  -0.421  -0.376  0.00  0.00    +0.009 A 
ATOM     26  C   UNL     1       5.485   1.728   0.708  0.00  0.00    +0.009 A 
ATOM     27  C   UNL     1       7.027  -0.138  -0.678  0.00  0.00    +0.020 A 
ATOM     28  C   UNL     1       6.817   2.011   0.405  0.00  0.00    +0.020 A 
ATOM     29  C   UNL     1       7.588   1.078  -0.288  0.00  0.00    +0.041 A 
ENDBRANCH  23  24
ENDBRANCH  18  21
TORSDOF 5
