REMARK  Name = 25338314
REMARK  7 active torsions:
REMARK  status: ('A' for Active; 'I' for Inactive)
REMARK    1  A    between atoms: N_3  and  C_12
REMARK    2  A    between atoms: N_4  and  C_7
REMARK    3  A    between atoms: C_8  and  C_11
REMARK    4  A    between atoms: C_13  and  C_14
REMARK    5  A    between atoms: C_14  and  C_16
REMARK    6  A    between atoms: C_15  and  C_17
REMARK    7  A    between atoms: C_24  and  C_28
REMARK                            x       y       z     vdW  Elec       q    Type
REMARK                         _______ _______ _______ _____ _____    ______ ____
ROOT
ATOM      3  N   UNL     1       0.663   3.485   0.912  0.00  0.00    -0.293 NA
ATOM      7  C   UNL     1       2.574   2.608  -0.095  0.00  0.00    +0.089 C 
ATOM      8  C   UNL     1       0.234   3.203  -0.471  0.00  0.00    +0.147 C 
ATOM      9  C   UNL     1       1.437   2.482  -1.110  0.00  0.00    +0.052 C 
ATOM     10  C   UNL     1       2.110   3.711   0.846  0.00  0.00    +0.107 C 
ATOM     12  C   UNL     1      -0.037   4.616   1.511  0.00  0.00    +0.105 C 
ENDROOT
BRANCH   8  11
ATOM      1  O   UNL     1      -2.069   2.946  -1.248  0.00  0.00    -0.336 OA
ATOM      5  N   UNL     1      -1.310   1.214  -0.048  0.00  0.00    -0.190 NA
ATOM      6  N   UNL     1      -3.122   2.025  -1.185  0.00  0.00    -0.056 NA
ATOM     11  C   UNL     1      -1.041   2.391  -0.554  0.00  0.00    +0.245 A 
ATOM     15  C   UNL     1      -2.598   1.032  -0.462  0.00  0.00    +0.202 A 
BRANCH  15  17
ATOM     17  C   UNL     1      -3.332  -0.156  -0.136  0.00  0.00    +0.022 A 
ATOM     20  C   UNL     1      -2.732  -1.162   0.623  0.00  0.00    +0.012 A 
ATOM     21  C   UNL     1      -4.647  -0.306  -0.576  0.00  0.00    +0.012 A 
ATOM     22  C   UNL     1      -3.446  -2.317   0.940  0.00  0.00    +0.004 A 
ATOM     23  C   UNL     1      -5.362  -1.462  -0.259  0.00  0.00    +0.004 A 
ATOM     24  C   UNL     1      -4.761  -2.467   0.499  0.00  0.00    -0.050 A 
ATOM     28  C   UNL     1      -5.525  -3.702   0.838  0.00  0.00    +0.044 C 
ENDBRANCH  15  17
ENDBRANCH   8  11
BRANCH   7   4
ATOM      2  O   UNL     1       4.411   0.513  -0.812  0.00  0.00    -0.275 OA
ATOM      4  N   UNL     1       2.792   1.370   0.614  0.00  0.00    -0.311 N 
ATOM     13  C   UNL     1       3.705   0.415   0.188  0.00  0.00    +0.218 C 
ATOM     29  H   UNL     1       2.203   1.177   1.419  0.00  0.00    +0.149 HD
BRANCH  13  14
ATOM     14  C   UNL     1       3.736  -0.780   1.121  0.00  0.00    +0.130 C 
BRANCH  14  16
ATOM     16  C   UNL     1       3.381  -2.076   0.441  0.00  0.00    -0.039 A 
ATOM     18  C   UNL     1       2.053  -2.498   0.392  0.00  0.00    +0.004 A 
ATOM     19  C   UNL     1       4.382  -2.855  -0.141  0.00  0.00    +0.004 A 
ATOM     25  C   UNL     1       1.724  -3.699  -0.238  0.00  0.00    +0.000 A 
ATOM     26  C   UNL     1       4.054  -4.055  -0.771  0.00  0.00    +0.000 A 
ATOM     27  C   UNL     1       2.725  -4.477  -0.820  0.00  0.00    +0.000 A 
ENDBRANCH  14  16
ENDBRANCH  13  14
ENDBRANCH   7   4
TORSDOF 5
