REMARK  Name = 75536991
REMARK  5 active torsions:
REMARK  status: ('A' for Active; 'I' for Inactive)
REMARK    1  A    between atoms: O_4  and  C_18
REMARK    2  A    between atoms: O_4  and  C_24
REMARK    3  A    between atoms: N_7  and  C_15
REMARK    4  A    between atoms: C_15  and  C_17
REMARK    5  A    between atoms: C_16  and  C_18
REMARK                            x       y       z     vdW  Elec       q    Type
REMARK                         _______ _______ _______ _____ _____    ______ ____
ROOT
ATOM      2  O   UNL     1       1.350  -2.971   0.105  0.00  0.00    -0.252 OA
ATOM      3  O   UNL     1      -5.005  -0.500  -1.571  0.00  0.00    -0.263 OA
ATOM      6  N   UNL     1      -0.575  -1.625   0.146  0.00  0.00    -0.278 N 
ATOM      7  N   UNL     1       1.252  -0.907   1.240  0.00  0.00    -0.279 N 
ATOM      8  N   UNL     1      -2.770  -0.267  -0.885  0.00  0.00    -0.289 N 
ATOM      9  C   UNL     1      -1.004  -0.409   0.816  0.00  0.00    +0.112 C 
ATOM     10  C   UNL     1       0.291   0.173   1.378  0.00  0.00    +0.133 C 
ATOM     11  C   UNL     1      -1.746   0.503  -0.157  0.00  0.00    +0.132 C 
ATOM     12  C   UNL     1      -1.525  -2.386  -0.645  0.00  0.00    +0.128 C 
ATOM     13  C   UNL     1      -2.275  -1.454  -1.594  0.00  0.00    +0.127 C 
ATOM     14  C   UNL     1       0.750  -1.964   0.455  0.00  0.00    +0.306 C 
ATOM     16  C   UNL     1      -4.112   0.074  -0.963  0.00  0.00    +0.324 C 
ENDROOT
BRANCH  16  18
ATOM      5  O   UNL     1      -4.500   2.387  -0.731  0.00  0.00    -0.240 OA
ATOM     18  C   UNL     1      -4.521   1.286  -0.216  0.00  0.00    +0.395 C 
BRANCH  18   4
ATOM      4  O   UNL     1      -4.883   0.912   1.025  0.00  0.00    -0.461 OA
ATOM     24  C   UNL     1      -5.314   1.975   1.880  0.00  0.00    +0.280 C 
ENDBRANCH  18   4
ENDBRANCH  16  18
BRANCH   7  15
ATOM     15  C   UNL     1       2.600  -0.803   1.754  0.00  0.00    +0.144 C 
BRANCH  15  17
ATOM      1  F   UNL     1       5.974   2.035  -1.749  0.00  0.00    -0.205 F 
ATOM     17  C   UNL     1       3.500  -0.046   0.820  0.00  0.00    -0.030 A 
ATOM     19  C   UNL     1       4.209  -0.727  -0.170  0.00  0.00    +0.008 A 
ATOM     20  C   UNL     1       3.626   1.338   0.941  0.00  0.00    +0.008 A 
ATOM     21  C   UNL     1       5.045  -0.024  -1.037  0.00  0.00    +0.038 A 
ATOM     22  C   UNL     1       4.462   2.041   0.074  0.00  0.00    +0.038 A 
ATOM     23  C   UNL     1       5.172   1.360  -0.916  0.00  0.00    +0.123 A 
ENDBRANCH  15  17
ENDBRANCH   7  15
TORSDOF 4
