REMARK  Name = 45784011
REMARK  3 active torsions:
REMARK  status: ('A' for Active; 'I' for Inactive)
REMARK    1  A    between atoms: C_5  and  C_10
REMARK    2  A    between atoms: C_8  and  C_13
REMARK    3  A    between atoms: C_18  and  C_20
REMARK                            x       y       z     vdW  Elec       q    Type
REMARK                         _______ _______ _______ _____ _____    ______ ____
ROOT
ATOM      3  N   UNL     1      -1.769  -1.488   0.683  0.00  0.00    -0.342 N 
ATOM      4  N   UNL     1      -0.598   0.261  -0.031  0.00  0.00    -0.232 NA
ATOM     13  C   UNL     1      -0.530  -0.957   0.459  0.00  0.00    +0.113 A 
ATOM     14  C   UNL     1      -2.700  -0.551   0.315  0.00  0.00    +0.066 A 
ATOM     15  C   UNL     1      -1.944   0.531  -0.128  0.00  0.00    +0.089 A 
ATOM     16  C   UNL     1      -4.095  -0.556   0.330  0.00  0.00    +0.031 A 
ATOM     17  C   UNL     1      -2.602   1.685  -0.586  0.00  0.00    +0.030 A 
ATOM     18  C   UNL     1      -4.734   0.601  -0.130  0.00  0.00    -0.048 A 
ATOM     19  C   UNL     1      -4.002   1.702  -0.580  0.00  0.00    +0.005 A 
ATOM     20  C   UNL     1      -6.226   0.656  -0.139  0.00  0.00    +0.044 C 
ATOM     21  H   UNL     1      -1.968  -2.408   1.054  0.00  0.00    +0.167 HD
ENDROOT
BRANCH  13   8
ATOM      1  O   UNL     1       4.253   0.213  -1.585  0.00  0.00    -0.275 OA
ATOM      2  N   UNL     1       2.675  -0.768  -0.205  0.00  0.00    -0.301 N 
ATOM      8  C   UNL     1       0.733  -1.744   0.764  0.00  0.00    +0.074 C 
ATOM      9  C   UNL     1       1.993  -0.924   1.078  0.00  0.00    +0.119 C 
ATOM     10  C   UNL     1       3.720   0.096  -0.486  0.00  0.00    +0.219 C 
ATOM     11  C   UNL     1       1.185  -2.579  -0.444  0.00  0.00    +0.032 C 
ATOM     12  C   UNL     1       2.099  -1.639  -1.218  0.00  0.00    +0.108 C 
BRANCH  10   5
ATOM      5  C   UNL     1       4.198   0.954   0.640  0.00  0.00    +0.075 C 
ATOM      6  C   UNL     1       4.858   2.265   0.329  0.00  0.00    +0.013 C 
ATOM      7  C   UNL     1       3.485   2.241   0.933  0.00  0.00    +0.013 C 
ENDBRANCH  10   5
ENDBRANCH  13   8
TORSDOF 2
