REMARK  Name = 45360866
REMARK  8 active torsions:
REMARK  status: ('A' for Active; 'I' for Inactive)
REMARK    1  A    between atoms: O_6  and  C_30
REMARK    2  A    between atoms: O_6  and  C_33
REMARK    3  A    between atoms: N_7  and  C_20
REMARK    4  A    between atoms: N_8  and  C_19
REMARK    5  A    between atoms: C_15  and  C_18
REMARK    6  A    between atoms: C_18  and  C_21
REMARK    7  A    between atoms: C_19  and  C_22
REMARK    8  A    between atoms: C_21  and  C_23
REMARK                            x       y       z     vdW  Elec       q    Type
REMARK                         _______ _______ _______ _____ _____    ______ ____
ROOT
ATOM      4  O   UNL     1       0.616   0.927   1.485  0.00  0.00    -0.274 OA
ATOM      7  N   UNL     1       1.963  -2.037  -0.610  0.00  0.00    -0.296 NA
ATOM      8  N   UNL     1      -1.273  -0.711   0.465  0.00  0.00    -0.286 NA
ATOM      9  N   UNL     1       2.097  -0.749   1.968  0.00  0.00    -0.312 N 
ATOM     11  C   UNL     1       0.526  -2.159  -0.282  0.00  0.00    +0.084 C 
ATOM     12  C   UNL     1      -0.029  -1.353   0.929  0.00  0.00    +0.161 C 
ATOM     13  C   UNL     1      -0.415  -1.718  -1.419  0.00  0.00    +0.036 C 
ATOM     14  C   UNL     1      -1.725  -1.450  -0.709  0.00  0.00    +0.087 C 
ATOM     15  C   UNL     1       2.882  -2.541   0.449  0.00  0.00    +0.074 C 
ATOM     16  C   UNL     1       0.902  -0.269   1.465  0.00  0.00    +0.232 C 
ATOM     17  C   UNL     1       2.498  -2.140   1.886  0.00  0.00    +0.123 C 
ATOM     20  C   UNL     1       2.264  -2.687  -1.897  0.00  0.00    +0.105 C 
ATOM     34  H   UNL     1       2.727  -0.088   2.411  0.00  0.00    +0.149 HD
ENDROOT
BRANCH  15  18
ATOM     18  C   UNL     1       4.321  -2.042   0.197  0.00  0.00    +0.029 C 
BRANCH  18  21
ATOM     21  C   UNL     1       4.365  -0.550  -0.070  0.00  0.00    +0.097 C 
BRANCH  21  23
ATOM      5  O   UNL     1       6.720  -0.871  -0.231  0.00  0.00    -0.276 OA
ATOM     10  N   UNL     1       5.923   1.276  -0.539  0.00  0.00    -0.301 N 
ATOM     23  C   UNL     1       5.780  -0.076  -0.287  0.00  0.00    +0.216 C 
ATOM     24  C   UNL     1       4.855   2.266  -0.623  0.00  0.00    +0.108 C 
ATOM     25  C   UNL     1       7.224   1.890  -0.763  0.00  0.00    +0.108 C 
ATOM     26  C   UNL     1       5.579   3.605  -0.635  0.00  0.00    +0.020 C 
ATOM     27  C   UNL     1       6.902   3.272  -1.312  0.00  0.00    +0.020 C 
ENDBRANCH  21  23
ENDBRANCH  18  21
ENDBRANCH  15  18
BRANCH   8  19
ATOM     19  C   UNL     1      -2.302  -0.635   1.494  0.00  0.00    +0.120 C 
BRANCH  19  22
ATOM     22  C   UNL     1      -3.317   0.436   1.194  0.00  0.00    -0.030 A 
ATOM     28  C   UNL     1      -4.576   0.085   0.704  0.00  0.00    +0.051 A 
ATOM     29  C   UNL     1      -3.000   1.777   1.405  0.00  0.00    +0.005 A 
ATOM     30  C   UNL     1      -5.516   1.077   0.424  0.00  0.00    +0.130 A 
ATOM     31  C   UNL     1      -3.940   2.769   1.125  0.00  0.00    +0.004 A 
ATOM     32  C   UNL     1      -5.199   2.419   0.635  0.00  0.00    +0.046 A 
BRANCH  30   6
ATOM      6  O   UNL     1      -6.743   0.735  -0.055  0.00  0.00    -0.406 OA
BRANCH   6  33
ATOM      1  F   UNL     1      -5.779   0.358  -2.094  0.00  0.00    -0.133 F 
ATOM      2  F   UNL     1      -7.958   0.372  -1.923  0.00  0.00    -0.133 F 
ATOM      3  F   UNL     1      -6.831  -1.304  -1.088  0.00  0.00    -0.133 F 
ATOM     33  C   UNL     1      -6.812   0.030  -1.290  0.00  0.00    +0.575 C 
ENDBRANCH   6  33
ENDBRANCH  30   6
ENDBRANCH  19  22
ENDBRANCH   8  19
TORSDOF 7
