REMARK  Name = 11866342
REMARK  10 active torsions:
REMARK  status: ('A' for Active; 'I' for Inactive)
REMARK    1  A    between atoms: S_1  and  N_11
REMARK    2  A    between atoms: S_1  and  C_21
REMARK    3  A    between atoms: O_5  and  C_14
REMARK    4  A    between atoms: O_6  and  C_16
REMARK    5  A    between atoms: N_11  and  C_15
REMARK    6  A    between atoms: N_12  and  C_23
REMARK    7  A    between atoms: C_19  and  C_20
REMARK    8  A    between atoms: C_23  and  C_26
REMARK    9  A    between atoms: C_25  and  C_29
REMARK   10  A    between atoms: C_26  and  C_30
REMARK                            x       y       z     vdW  Elec       q    Type
REMARK                         _______ _______ _______ _____ _____    ______ ____
ROOT
ATOM     14  C   UNL     1       3.675   1.423   0.184  0.00  0.00    +0.166 C 
ATOM     15  C   UNL     1       2.153   1.214   0.083  0.00  0.00    +0.131 C 
ATOM     16  C   UNL     1       4.441   0.337  -0.582  0.00  0.00    +0.149 C 
ATOM     17  C   UNL     1       4.065  -1.079  -0.111  0.00  0.00    +0.074 C 
ATOM     18  C   UNL     1       1.734  -0.217   0.284  0.00  0.00    +0.004 C 
ATOM     19  C   UNL     1       2.603  -1.235   0.202  0.00  0.00    +0.014 C 
ENDROOT
BRANCH  19  20
ATOM      9  O   UNL     1       2.514  -3.297   1.323  0.00  0.00    -0.271 OA
ATOM     12  N   UNL     1       1.101  -2.938  -0.496  0.00  0.00    -0.311 N 
ATOM     20  C   UNL     1       2.083  -2.588   0.414  0.00  0.00    +0.240 C 
ATOM     34  H   UNL     1       0.825  -2.278  -1.217  0.00  0.00    +0.149 HD
BRANCH  12  23
ATOM     23  C   UNL     1       0.440  -4.223  -0.489  0.00  0.00    +0.113 C 
BRANCH  23  26
ATOM     26  C   UNL     1      -0.810  -4.224   0.381  0.00  0.00    +0.114 C 
BRANCH  26  30
ATOM     10  O   UNL     1      -1.705  -2.443  -1.007  0.00  0.00    -0.276 OA
ATOM     13  N   UNL     1      -2.969  -3.225   0.747  0.00  0.00    -0.329 N 
ATOM     30  C   UNL     1      -1.848  -3.205  -0.056  0.00  0.00    +0.212 C 
ATOM     35  H   UNL     1      -3.744  -2.594   0.575  0.00  0.00    +0.145 HD
ATOM     36  H   UNL     1      -3.064  -3.862   1.531  0.00  0.00    +0.145 HD
ENDBRANCH  26  30
ENDBRANCH  23  26
ENDBRANCH  12  23
ENDBRANCH  19  20
BRANCH  14   5
ATOM      5  O   UNL     1       4.079   1.386   1.555  0.00  0.00    -0.387 OA
ATOM     32  H   UNL     1       5.037   1.550   1.583  0.00  0.00    +0.210 HD
ENDBRANCH  14   5
BRANCH  16   6
ATOM      6  O   UNL     1       4.205   0.465  -1.983  0.00  0.00    -0.389 OA
ATOM     33  H   UNL     1       4.740  -0.210  -2.434  0.00  0.00    +0.210 HD
ENDBRANCH  16   6
BRANCH  15  11
ATOM     11  N   UNL     1       1.461   2.072   1.076  0.00  0.00    -0.181 NA
ATOM     31  H   UNL     1       1.478   1.771   2.058  0.00  0.00    +0.149 HD
BRANCH  11   1
ATOM      1  S   UNL     1       0.370   3.260   0.548  0.00  0.00    +0.059 S 
ATOM      7  O   UNL     1       1.023   4.120  -0.420  0.00  0.00    -0.153 OA
ATOM      8  O   UNL     1      -0.290   3.833   1.706  0.00  0.00    -0.153 OA
BRANCH   1  21
ATOM     21  C   UNL     1      -0.837   2.293  -0.308  0.00  0.00    +0.106 A 
ATOM     22  C   UNL     1      -1.942   1.790   0.378  0.00  0.00    +0.041 A 
ATOM     24  C   UNL     1      -0.684   2.034  -1.670  0.00  0.00    +0.028 A 
ATOM     25  C   UNL     1      -2.895   1.027  -0.298  0.00  0.00    +0.057 A 
ATOM     27  C   UNL     1      -1.637   1.272  -2.346  0.00  0.00    +0.002 A 
ATOM     28  C   UNL     1      -2.742   0.768  -1.660  0.00  0.00    +0.012 A 
BRANCH  25  29
ATOM      2  F   UNL     1      -4.924  -0.238  -0.351  0.00  0.00    -0.166 F 
ATOM      3  F   UNL     1      -3.747  -0.344   1.467  0.00  0.00    -0.166 F 
ATOM      4  F   UNL     1      -4.844   1.472   0.990  0.00  0.00    -0.166 F 
ATOM     29  C   UNL     1      -4.076   0.489   0.436  0.00  0.00    +0.417 C 
ENDBRANCH  25  29
ENDBRANCH   1  21
ENDBRANCH  11   1
ENDBRANCH  15  11
TORSDOF 10
