REMARK  Name = 11886119
REMARK  4 active torsions:
REMARK  status: ('A' for Active; 'I' for Inactive)
REMARK    1  A    between atoms: N_4  and  C_12
REMARK    2  A    between atoms: N_5  and  C_13
REMARK    3  A    between atoms: N_9  and  C_21
REMARK    4  A    between atoms: C_16  and  C_18
REMARK                            x       y       z     vdW  Elec       q    Type
REMARK                         _______ _______ _______ _____ _____    ______ ____
ROOT
ATOM      1  O   UNL     1       1.783   2.748   1.187  0.00  0.00    -0.370 OA
ATOM      2  O   UNL     1       1.820  -0.296   1.980  0.00  0.00    -0.370 OA
ATOM     10  C   UNL     1       1.997   0.415   0.741  0.00  0.00    +0.176 C 
ATOM     11  C   UNL     1       1.042   1.593   0.760  0.00  0.00    +0.171 C 
ATOM     12  C   UNL     1       3.379   1.039   0.698  0.00  0.00    +0.168 C 
ATOM     13  C   UNL     1       0.009   1.221   1.799  0.00  0.00    +0.131 C 
ATOM     14  C   UNL     1       3.163   2.396   1.359  0.00  0.00    +0.190 C 
ATOM     15  C   UNL     1       0.811   0.362   2.760  0.00  0.00    +0.185 C 
ENDROOT
BRANCH  13   5
ATOM      3  O   UNL     1      -2.485   2.273   0.862  0.00  0.00    -0.252 OA
ATOM      5  N   UNL     1      -1.077   0.473   1.212  0.00  0.00    -0.292 N 
ATOM      9  N   UNL     1      -3.131   0.099   0.255  0.00  0.00    -0.269 N 
ATOM     17  C   UNL     1      -2.268   1.067   0.777  0.00  0.00    +0.304 C 
ATOM     34  H   UNL     1      -0.943  -0.519   1.041  0.00  0.00    +0.151 HD
ATOM     35  H   UNL     1      -2.854  -0.857   0.447  0.00  0.00    +0.156 HD
BRANCH   9  21
ATOM     21  C   UNL     1      -4.425   0.290  -0.284  0.00  0.00    +0.042 A 
ATOM     22  C   UNL     1      -5.399  -0.707  -0.202  0.00  0.00    +0.003 A 
ATOM     25  C   UNL     1      -4.678   1.510  -0.897  0.00  0.00    +0.024 A 
ATOM     26  C   UNL     1      -6.676  -0.459  -0.760  0.00  0.00    -0.016 A 
ATOM     28  C   UNL     1      -5.148  -1.943   0.416  0.00  0.00    +0.010 A 
ATOM     29  C   UNL     1      -5.934   1.754  -1.445  0.00  0.00    +0.002 A 
ATOM     30  C   UNL     1      -6.927   0.777  -1.379  0.00  0.00    +0.008 A 
ATOM     31  C   UNL     1      -7.664  -1.454  -0.684  0.00  0.00    +0.008 A 
ATOM     32  C   UNL     1      -6.142  -2.920   0.483  0.00  0.00    +0.001 A 
ATOM     33  C   UNL     1      -7.397  -2.676  -0.066  0.00  0.00    +0.001 A 
ENDBRANCH   9  21
ENDBRANCH  13   5
BRANCH  12   4
ATOM      4  N   UNL     1       3.929   1.091  -0.659  0.00  0.00    -0.217 N 
ATOM      6  N   UNL     1       3.676   2.135  -1.455  0.00  0.00    -0.043 NA
ATOM      7  N   UNL     1       4.967   0.652  -2.504  0.00  0.00    -0.108 NA
ATOM      8  N   UNL     1       4.315   1.861  -2.585  0.00  0.00    -0.023 NA
ATOM     16  C   UNL     1       4.714   0.193  -1.300  0.00  0.00    +0.182 A 
BRANCH  16  18
ATOM     18  C   UNL     1       5.176  -1.047  -0.730  0.00  0.00    +0.021 A 
ATOM     19  C   UNL     1       6.385  -1.089  -0.033  0.00  0.00    +0.011 A 
ATOM     20  C   UNL     1       4.416  -2.209  -0.874  0.00  0.00    +0.011 A 
ATOM     23  C   UNL     1       6.833  -2.289   0.518  0.00  0.00    +0.001 A 
ATOM     24  C   UNL     1       4.864  -3.410  -0.322  0.00  0.00    +0.001 A 
ATOM     27  C   UNL     1       6.072  -3.450   0.373  0.00  0.00    +0.000 A 
ENDBRANCH  16  18
ENDBRANCH  12   4
TORSDOF 4
