REMARK  Name = 45361530
REMARK  12 active torsions:
REMARK  status: ('A' for Active; 'I' for Inactive)
REMARK    1  A    between atoms: O_1  and  C_10
REMARK    2  A    between atoms: N_4  and  C_14
REMARK    3  A    between atoms: N_5  and  C_24
REMARK    4  A    between atoms: N_5  and  C_25
REMARK    5  A    between atoms: C_7  and  C_17
REMARK    6  A    between atoms: C_9  and  C_19
REMARK    7  A    between atoms: C_12  and  C_18
REMARK    8  A    between atoms: C_18  and  C_20
REMARK    9  A    between atoms: C_18  and  C_21
REMARK   10  A    between atoms: C_22  and  C_23
REMARK   11  A    between atoms: C_23  and  C_26
REMARK   12  A    between atoms: C_24  and  C_27
REMARK                            x       y       z     vdW  Elec       q    Type
REMARK                         _______ _______ _______ _____ _____    ______ ____
ROOT
ATOM      7  C   UNL     1       0.448   2.780   0.235  0.00  0.00    -0.027 C 
ATOM      8  C   UNL     1       0.459   1.232   0.001  0.00  0.00    +0.028 C 
ATOM      9  C   UNL     1       1.828   0.770  -0.615  0.00  0.00    +0.012 C 
ATOM     10  C   UNL     1      -0.811   0.770  -0.769  0.00  0.00    +0.122 C 
ATOM     11  C   UNL     1      -0.865   3.185   0.945  0.00  0.00    +0.007 C 
ATOM     12  C   UNL     1      -2.119   1.266  -0.111  0.00  0.00    +0.029 C 
ATOM     13  C   UNL     1       1.623   3.157   1.167  0.00  0.00    +0.009 C 
ATOM     14  C   UNL     1       3.007   1.221   0.293  0.00  0.00    +0.076 C 
ATOM     15  C   UNL     1      -2.111   2.768   0.174  0.00  0.00    +0.007 C 
ATOM     16  C   UNL     1       2.976   2.710   0.634  0.00  0.00    +0.023 C 
ATOM     17  C   UNL     1       0.568   3.581  -1.086  0.00  0.00    +0.011 C 
ATOM     19  C   UNL     1       1.919  -0.748  -0.845  0.00  0.00    +0.010 C 
ENDROOT
BRANCH  14   4
ATOM      3  O   UNL     1       5.433   0.540   1.683  0.00  0.00    -0.275 OA
ATOM      4  N   UNL     1       4.291   0.913  -0.302  0.00  0.00    -0.312 N 
ATOM     22  C   UNL     1       5.406   0.596   0.457  0.00  0.00    +0.218 C 
ATOM     37  H   UNL     1       4.375   0.999  -1.311  0.00  0.00    +0.149 HD
BRANCH  22  23
ATOM     23  C   UNL     1       6.610   0.313  -0.421  0.00  0.00    +0.130 C 
BRANCH  23  26
ATOM     26  C   UNL     1       7.161  -1.078  -0.249  0.00  0.00    -0.039 A 
ATOM     28  C   UNL     1       8.147  -1.323   0.706  0.00  0.00    +0.004 A 
ATOM     29  C   UNL     1       6.685  -2.120  -1.044  0.00  0.00    +0.004 A 
ATOM     32  C   UNL     1       8.658  -2.611   0.866  0.00  0.00    +0.000 A 
ATOM     33  C   UNL     1       7.196  -3.408  -0.884  0.00  0.00    +0.000 A 
ATOM     34  C   UNL     1       8.182  -3.654   0.071  0.00  0.00    +0.000 A 
ENDBRANCH  23  26
ENDBRANCH  22  23
ENDBRANCH  14   4
BRANCH  10   1
ATOM      1  O   UNL     1      -0.872  -0.657  -0.774  0.00  0.00    -0.391 OA
ATOM     38  H   UNL     1      -0.914  -0.961   0.149  0.00  0.00    +0.210 HD
ENDBRANCH  10   1
BRANCH  12  18
ATOM     18  C   UNL     1      -3.350   0.912  -0.955  0.00  0.00    +0.078 C 
ATOM     20  C   UNL     1      -3.232   1.570  -2.330  0.00  0.00    +0.017 C 
BRANCH  18  21
ATOM      2  O   UNL     1      -5.051   2.512  -0.425  0.00  0.00    -0.275 OA
ATOM      5  N   UNL     1      -5.238   0.465   0.637  0.00  0.00    -0.300 N 
ATOM     21  C   UNL     1      -4.621   1.369  -0.234  0.00  0.00    +0.219 C 
ATOM     25  C   UNL     1      -6.439   0.877   1.357  0.00  0.00    +0.132 C 
BRANCH   5  24
ATOM     24  C   UNL     1      -4.817  -0.911   0.892  0.00  0.00    +0.144 C 
BRANCH  24  27
ATOM      6  N   UNL     1      -7.365  -3.695   1.131  0.00  0.00    -0.263 NA
ATOM     27  C   UNL     1      -5.871  -1.904   0.495  0.00  0.00    -0.012 A 
ATOM     30  C   UNL     1      -6.330  -1.977  -0.816  0.00  0.00    +0.008 A 
ATOM     31  C   UNL     1      -6.416  -2.777   1.422  0.00  0.00    +0.115 A 
ATOM     35  C   UNL     1      -7.306  -2.908  -1.154  0.00  0.00    +0.020 A 
ATOM     36  C   UNL     1      -7.786  -3.736  -0.153  0.00  0.00    +0.111 A 
ENDBRANCH  24  27
ENDBRANCH   5  24
ENDBRANCH  18  21
ENDBRANCH  12  18
TORSDOF 8
