REMARK  Name = 11883334
REMARK  7 active torsions:
REMARK  status: ('A' for Active; 'I' for Inactive)
REMARK    1  A    between atoms: O_3  and  C_13
REMARK    2  A    between atoms: O_3  and  C_17
REMARK    3  A    between atoms: N_7  and  C_12
REMARK    4  A    between atoms: N_8  and  C_18
REMARK    5  A    between atoms: N_9  and  C_19
REMARK    6  A    between atoms: C_22  and  C_29
REMARK    7  A    between atoms: C_29  and  C_31
REMARK                            x       y       z     vdW  Elec       q    Type
REMARK                         _______ _______ _______ _____ _____    ______ ____
ROOT
ATOM      1  O   UNL     1       1.460  -1.054  -1.511  0.00  0.00    -0.368 OA
ATOM      2  O   UNL     1       0.532  -2.924   0.735  0.00  0.00    -0.368 OA
ATOM     10  C   UNL     1       0.096  -1.604   0.349  0.00  0.00    +0.173 C 
ATOM     11  C   UNL     1       1.331  -0.846  -0.095  0.00  0.00    +0.192 C 
ATOM     12  C   UNL     1      -0.750  -1.681  -0.900  0.00  0.00    +0.131 C 
ATOM     13  C   UNL     1       2.432  -1.536   0.674  0.00  0.00    +0.235 C 
ATOM     14  C   UNL     1       0.299  -1.746  -1.997  0.00  0.00    +0.185 C 
ATOM     15  C   UNL     1       1.965  -2.974   0.678  0.00  0.00    +0.207 C 
ENDROOT
BRANCH  12   7
ATOM      4  O   UNL     1      -3.471  -1.406  -0.049  0.00  0.00    -0.252 OA
ATOM      7  N   UNL     1      -1.584  -0.512  -1.041  0.00  0.00    -0.292 N 
ATOM      8  N   UNL     1      -3.465   0.795  -0.865  0.00  0.00    -0.269 N 
ATOM     16  C   UNL     1      -2.911  -0.460  -0.595  0.00  0.00    +0.304 C 
ATOM     32  H   UNL     1      -1.171   0.333  -1.422  0.00  0.00    +0.151 HD
ATOM     33  H   UNL     1      -2.862   1.470  -1.328  0.00  0.00    +0.156 HD
BRANCH   8  18
ATOM     18  C   UNL     1      -4.773   1.246  -0.574  0.00  0.00    +0.035 A 
ATOM     20  C   UNL     1      -5.680   0.396   0.059  0.00  0.00    +0.034 A 
ATOM     21  C   UNL     1      -5.157   2.542  -0.920  0.00  0.00    +0.023 A 
ATOM     22  C   UNL     1      -6.971   0.842   0.346  0.00  0.00    +0.019 A 
ATOM     25  C   UNL     1      -6.447   2.988  -0.633  0.00  0.00    +0.002 A 
ATOM     26  C   UNL     1      -7.354   2.138  -0.000  0.00  0.00    +0.011 A 
BRANCH  22  29
ATOM      6  O   UNL     1      -8.811   0.401   1.754  0.00  0.00    -0.292 OA
ATOM     29  C   UNL     1      -7.917  -0.043   1.007  0.00  0.00    +0.160 C 
ATOM     31  C   UNL     1      -7.833  -1.551   0.797  0.00  0.00    +0.091 C 
ENDBRANCH  22  29
ENDBRANCH   8  18
ENDBRANCH  12   7
BRANCH  13   3
ATOM      3  O   UNL     1       3.705  -1.393   0.086  0.00  0.00    -0.442 OA
BRANCH   3  17
ATOM      5  O   UNL     1       4.106   0.441   1.391  0.00  0.00    -0.226 OA
ATOM      9  N   UNL     1       5.689  -0.346  -0.143  0.00  0.00    -0.251 N 
ATOM     17  C   UNL     1       4.482  -0.343   0.529  0.00  0.00    +0.405 C 
ATOM     34  H   UNL     1       5.820  -1.085  -0.830  0.00  0.00    +0.158 HD
BRANCH   9  19
ATOM     19  C   UNL     1       6.770   0.552   0.006  0.00  0.00    +0.036 A 
ATOM     23  C   UNL     1       7.921   0.392  -0.766  0.00  0.00    +0.023 A 
ATOM     24  C   UNL     1       6.687   1.599   0.924  0.00  0.00    +0.023 A 
ATOM     27  C   UNL     1       8.988   1.278  -0.619  0.00  0.00    +0.002 A 
ATOM     28  C   UNL     1       7.754   2.485   1.071  0.00  0.00    +0.002 A 
ATOM     30  C   UNL     1       8.905   2.325   0.299  0.00  0.00    +0.000 A 
ENDBRANCH   9  19
ENDBRANCH   3  17
ENDBRANCH  13   3
TORSDOF 6
