REMARK  Name = 7144125
REMARK  2 active torsions:
REMARK  status: ('A' for Active; 'I' for Inactive)
REMARK    1  A    between atoms: C_14  and  C_19
REMARK    2  A    between atoms: C_16  and  C_20
REMARK                            x       y       z     vdW  Elec       q    Type
REMARK                         _______ _______ _______ _____ _____    ______ ____
ROOT
ATOM      2  O   UNL     1       2.301   3.362  -1.845  0.00  0.00    -0.268 OA
ATOM      3  O   UNL     1       3.589  -0.856  -0.529  0.00  0.00    -0.267 OA
ATOM      5  N   UNL     1       1.147   2.155  -0.202  0.00  0.00    -0.311 N 
ATOM      6  N   UNL     1       1.982  -0.576   1.145  0.00  0.00    -0.294 N 
ATOM      7  C   UNL     1       2.177   1.705   2.104  0.00  0.00    +0.027 C 
ATOM      8  C   UNL     1      -0.045   0.805   1.551  0.00  0.00    +0.054 C 
ATOM      9  C   UNL     1       0.732   1.634   2.574  0.00  0.00    +0.018 C 
ATOM     10  C   UNL     1       2.216   2.444   0.765  0.00  0.00    +0.130 C 
ATOM     11  C   UNL     1       2.784   0.295   2.002  0.00  0.00    +0.113 C 
ATOM     12  C   UNL     1       0.551  -0.618   1.480  0.00  0.00    +0.117 C 
ATOM     13  C   UNL     1      -0.019   1.453   0.165  0.00  0.00    +0.034 A 
ATOM     14  C   UNL     1      -1.049   1.344  -0.715  0.00  0.00    +0.002 A 
ATOM     15  C   UNL     1       1.312   2.728  -1.476  0.00  0.00    +0.252 A 
ATOM     16  C   UNL     1       2.590  -1.240   0.077  0.00  0.00    +0.282 C 
ATOM     17  C   UNL     1      -0.913   1.919  -2.039  0.00  0.00    +0.015 A 
ATOM     18  C   UNL     1       0.190   2.560  -2.427  0.00  0.00    +0.071 A 
ENDROOT
BRANCH  14  19
ATOM      1 CL   UNL     1      -6.113  -1.510   0.704  0.00  0.00    -0.084 Cl
ATOM     19  C   UNL     1      -2.301   0.638  -0.364  0.00  0.00    -0.016 A 
ATOM     21  C   UNL     1      -2.414  -0.729  -0.601  0.00  0.00    +0.010 A 
ATOM     22  C   UNL     1      -3.358   1.345   0.202  0.00  0.00    +0.010 A 
ATOM     24  C   UNL     1      -3.594  -1.394  -0.270  0.00  0.00    +0.020 A 
ATOM     25  C   UNL     1      -4.538   0.680   0.532  0.00  0.00    +0.020 A 
ATOM     27  C   UNL     1      -4.657  -0.690   0.297  0.00  0.00    +0.041 A 
ENDBRANCH  14  19
BRANCH  16  20
ATOM      4  O   UNL     1       1.339  -3.255   0.520  0.00  0.00    -0.458 OA
ATOM     20  C   UNL     1       1.993  -2.496  -0.391  0.00  0.00    +0.189 A 
ATOM     23  C   UNL     1       1.968  -3.075  -1.630  0.00  0.00    +0.054 A 
ATOM     26  C   UNL     1       1.246  -4.283  -1.477  0.00  0.00    +0.042 A 
ATOM     28  C   UNL     1       0.885  -4.346  -0.151  0.00  0.00    +0.196 A 
ENDBRANCH  16  20
TORSDOF 2
