REMARK  Name = 11887318
REMARK  8 active torsions:
REMARK  status: ('A' for Active; 'I' for Inactive)
REMARK    1  A    between atoms: O_4  and  C_26
REMARK    2  A    between atoms: O_4  and  C_33
REMARK    3  A    between atoms: O_5  and  C_31
REMARK    4  A    between atoms: N_7  and  C_14
REMARK    5  A    between atoms: N_8  and  C_15
REMARK    6  A    between atoms: C_18  and  C_20
REMARK    7  A    between atoms: C_19  and  C_21
REMARK    8  A    between atoms: C_24  and  C_31
REMARK                            x       y       z     vdW  Elec       q    Type
REMARK                         _______ _______ _______ _____ _____    ______ ____
ROOT
ATOM      1  O   UNL     1      -0.015  -3.103  -1.089  0.00  0.00    -0.370 OA
ATOM      2  O   UNL     1       0.564  -0.186  -2.114  0.00  0.00    -0.370 OA
ATOM     12  C   UNL     1       0.626  -0.822  -0.824  0.00  0.00    +0.176 C 
ATOM     13  C   UNL     1      -0.527  -1.804  -0.752  0.00  0.00    +0.171 C 
ATOM     14  C   UNL     1       1.872  -1.683  -0.733  0.00  0.00    +0.168 C 
ATOM     15  C   UNL     1      -1.490  -1.328  -1.817  0.00  0.00    +0.130 C 
ATOM     16  C   UNL     1       1.403  -3.023  -1.288  0.00  0.00    +0.190 C 
ATOM     17  C   UNL     1      -0.559  -0.706  -2.840  0.00  0.00    +0.185 C 
ENDROOT
BRANCH  14   7
ATOM      7  N   UNL     1       2.423  -1.732   0.624  0.00  0.00    -0.217 N 
ATOM      9  N   UNL     1       1.995  -2.649   1.498  0.00  0.00    -0.043 NA
ATOM     10  N   UNL     1       3.550  -1.351   2.429  0.00  0.00    -0.108 NA
ATOM     11  N   UNL     1       2.689  -2.411   2.603  0.00  0.00    -0.023 NA
ATOM     18  C   UNL     1       3.368  -0.946   1.193  0.00  0.00    +0.182 A 
BRANCH  18  20
ATOM     20  C   UNL     1       4.039   0.142   0.530  0.00  0.00    +0.024 A 
ATOM     22  C   UNL     1       3.505   1.430   0.583  0.00  0.00    +0.057 A 
ATOM     23  C   UNL     1       5.225  -0.091  -0.169  0.00  0.00    +0.012 A 
ATOM     26  C   UNL     1       4.156   2.484  -0.059  0.00  0.00    +0.121 A 
ATOM     27  C   UNL     1       5.876   0.963  -0.811  0.00  0.00    +0.004 A 
ATOM     30  C   UNL     1       5.341   2.250  -0.756  0.00  0.00    +0.045 A 
BRANCH  26   4
ATOM      4  O   UNL     1       3.635   3.740  -0.005  0.00  0.00    -0.495 OA
ATOM     33  C   UNL     1       4.351   4.770  -0.683  0.00  0.00    +0.277 C 
ENDBRANCH  26   4
ENDBRANCH  18  20
ENDBRANCH  14   7
BRANCH  15   8
ATOM      3  O   UNL     1      -4.126  -1.837  -0.798  0.00  0.00    -0.270 OA
ATOM      8  N   UNL     1      -2.412  -0.353  -1.288  0.00  0.00    -0.304 N 
ATOM     19  C   UNL     1      -3.671  -0.696  -0.817  0.00  0.00    +0.245 C 
ATOM     34  H   UNL     1      -2.111   0.616  -1.229  0.00  0.00    +0.149 HD
BRANCH  19  21
ATOM     21  C   UNL     1      -4.512   0.428  -0.330  0.00  0.00    +0.051 A 
ATOM     24  C   UNL     1      -4.457   0.816   0.994  0.00  0.00    +0.071 A 
ATOM     25  C   UNL     1      -5.335   1.057  -1.244  0.00  0.00    +0.014 A 
ATOM     28  C   UNL     1      -5.258   1.874   1.422  0.00  0.00    +0.016 A 
ATOM     29  C   UNL     1      -6.136   2.115  -0.816  0.00  0.00    +0.001 A 
ATOM     32  C   UNL     1      -6.097   2.524   0.517  0.00  0.00    +0.001 A 
BRANCH  24  31
ATOM      6  O   UNL     1      -3.250  -1.028   1.925  0.00  0.00    -0.245 OA
ATOM     31  C   UNL     1      -3.592   0.157   1.964  0.00  0.00    +0.338 C 
BRANCH  31   5
ATOM      5  O   UNL     1      -3.180   1.001   2.948  0.00  0.00    -0.477 OA
ATOM     35  H   UNL     1      -2.598   0.550   3.595  0.00  0.00    +0.295 HD
ENDBRANCH  31   5
ENDBRANCH  24  31
ENDBRANCH  19  21
ENDBRANCH  15   8
TORSDOF 7
