REMARK  Name = 40779397
REMARK  7 active torsions:
REMARK  status: ('A' for Active; 'I' for Inactive)
REMARK    1  A    between atoms: S_1  and  N_6
REMARK    2  A    between atoms: S_1  and  C_26
REMARK    3  A    between atoms: N_5  and  C_25
REMARK    4  A    between atoms: N_6  and  C_16
REMARK    5  A    between atoms: C_9  and  C_15
REMARK    6  A    between atoms: C_10  and  C_16
REMARK    7  A    between atoms: C_18  and  C_19
REMARK                            x       y       z     vdW  Elec       q    Type
REMARK                         _______ _______ _______ _____ _____    ______ ____
ROOT
ATOM      4  N   UNL     1      -3.385  -1.316   0.519  0.00  0.00    -0.297 NA
ATOM      8  C   UNL     1      -1.757  -1.758  -1.465  0.00  0.00    +0.002 C 
ATOM      9  C   UNL     1      -1.127  -2.237  -0.128  0.00  0.00    +0.055 C 
ATOM     10  C   UNL     1      -3.233  -0.083  -0.298  0.00  0.00    +0.072 C 
ATOM     11  C   UNL     1      -2.119  -0.262  -1.352  0.00  0.00    +0.024 C 
ATOM     12  C   UNL     1      -2.060  -1.760   1.021  0.00  0.00    +0.094 C 
ATOM     13  C   UNL     1      -3.081  -2.533  -1.636  0.00  0.00    +0.019 C 
ATOM     14  C   UNL     1      -3.926  -2.380  -0.360  0.00  0.00    +0.085 C 
ENDROOT
BRANCH   9  15
ATOM      5  N   UNL     1       1.155  -2.697   0.882  0.00  0.00    -0.271 N 
ATOM      7  N   UNL     1       2.409  -2.226   0.998  0.00  0.00    -0.176 NA
ATOM     15  C   UNL     1       0.334  -1.902   0.138  0.00  0.00    +0.044 A 
ATOM     17  C   UNL     1       1.103  -0.836  -0.260  0.00  0.00    +0.048 A 
ATOM     19  C   UNL     1       2.370  -1.089   0.299  0.00  0.00    +0.066 A 
ATOM     25  C   UNL     1       0.808  -3.943   1.526  0.00  0.00    +0.172 C 
BRANCH  19  18
ATOM     18  C   UNL     1       3.619  -0.234   0.181  0.00  0.00    +0.040 C 
ATOM     20  C   UNL     1       3.424   1.154   0.815  0.00  0.00    +0.010 C 
ATOM     21  C   UNL     1       4.094  -0.111  -1.278  0.00  0.00    +0.010 C 
ATOM     22  C   UNL     1       4.689   2.003   0.700  0.00  0.00    +0.001 C 
ATOM     23  C   UNL     1       5.356   0.743  -1.384  0.00  0.00    +0.001 C 
ATOM     24  C   UNL     1       5.163   2.116  -0.746  0.00  0.00    +0.000 C 
ENDBRANCH  19  18
ENDBRANCH   9  15
BRANCH  10  16
ATOM     16  C   UNL     1      -3.010   1.162   0.562  0.00  0.00    +0.124 C 
BRANCH  16   6
ATOM      6  N   UNL     1      -2.994   2.352  -0.304  0.00  0.00    -0.193 NA
ATOM     27  H   UNL     1      -3.903   2.554  -0.741  0.00  0.00    +0.148 HD
BRANCH   6   1
ATOM      1  S   UNL     1      -2.059   3.706   0.154  0.00  0.00    +0.027 S 
ATOM      2  O   UNL     1      -2.419   4.850  -0.661  0.00  0.00    -0.158 OA
ATOM      3  O   UNL     1      -0.675   3.290   0.279  0.00  0.00    -0.158 OA
ATOM     26  C   UNL     1      -2.679   3.989   1.797  0.00  0.00    +0.214 C 
ENDBRANCH   6   1
ENDBRANCH  16   6
ENDBRANCH  10  16
TORSDOF 5
