REMARK  Name = 25390424
REMARK  8 active torsions:
REMARK  status: ('A' for Active; 'I' for Inactive)
REMARK    1  A    between atoms: O_2  and  C_11
REMARK    2  A    between atoms: O_3  and  C_12
REMARK    3  A    between atoms: N_6  and  C_8
REMARK    4  A    between atoms: N_7  and  C_17
REMARK    5  A    between atoms: C_9  and  C_16
REMARK    6  A    between atoms: C_10  and  C_17
REMARK    7  A    between atoms: C_15  and  C_23
REMARK    8  A    between atoms: C_16  and  C_22
REMARK                            x       y       z     vdW  Elec       q    Type
REMARK                         _______ _______ _______ _____ _____    ______ ____
ROOT
ATOM      1  O   UNL     1       1.133  -0.441  -0.438  0.00  0.00    -0.366 OA
ATOM      9  C   UNL     1       2.258   0.203   0.185  0.00  0.00    +0.158 C 
ATOM     10  C   UNL     1       1.528  -1.763  -0.869  0.00  0.00    +0.167 C 
ATOM     11  C   UNL     1       3.229  -0.913   0.531  0.00  0.00    +0.175 C 
ATOM     12  C   UNL     1       3.031  -1.861  -0.633  0.00  0.00    +0.176 C 
ENDROOT
BRANCH  11   2
ATOM      2  O   UNL     1       4.555  -0.443   0.651  0.00  0.00    -0.387 OA
ATOM     26  H   UNL     1       5.131  -1.220   0.756  0.00  0.00    +0.210 HD
ENDBRANCH  11   2
BRANCH  12   3
ATOM      3  O   UNL     1       3.695  -1.364  -1.795  0.00  0.00    -0.387 OA
ATOM     27  H   UNL     1       3.509  -1.982  -2.522  0.00  0.00    +0.210 HD
ENDBRANCH  12   3
BRANCH   9  16
ATOM     16  C   UNL     1       1.791   0.992   1.395  0.00  0.00    +0.130 C 
BRANCH  16  22
ATOM      4  O   UNL     1       1.586   3.404   1.366  0.00  0.00    -0.276 OA
ATOM      6  N   UNL     1       0.017   2.123   0.232  0.00  0.00    -0.312 N 
ATOM     22  C   UNL     1       1.147   2.312   1.015  0.00  0.00    +0.216 C 
ATOM     24  H   UNL     1      -0.291   1.182   0.005  0.00  0.00    +0.149 HD
BRANCH   6   8
ATOM      8  C   UNL     1      -0.773   3.216  -0.258  0.00  0.00    +0.073 C 
ATOM     13  C   UNL     1      -0.399   3.940  -1.518  0.00  0.00    +0.024 C 
ATOM     14  C   UNL     1      -1.623   3.072  -1.487  0.00  0.00    +0.024 C 
ENDBRANCH   6   8
ENDBRANCH  16  22
ENDBRANCH   9  16
BRANCH  10  17
ATOM     17  C   UNL     1       0.730  -2.776  -0.058  0.00  0.00    +0.138 C 
BRANCH  17   7
ATOM      5  O   UNL     1      -1.166  -1.100   1.365  0.00  0.00    -0.276 OA
ATOM      7  N   UNL     1      -0.675  -2.647  -0.307  0.00  0.00    -0.313 N 
ATOM     23  C   UNL     1      -1.514  -1.815   0.429  0.00  0.00    +0.216 C 
ATOM     25  H   UNL     1      -1.064  -3.180  -1.079  0.00  0.00    +0.149 HD
BRANCH  23  15
ATOM     15  C   UNL     1      -2.931  -1.850  -0.056  0.00  0.00    +0.075 C 
ATOM     18  C   UNL     1      -3.156  -0.771  -1.120  0.00  0.00    +0.013 C 
ATOM     19  C   UNL     1      -3.899  -1.534   1.086  0.00  0.00    +0.013 C 
ATOM     20  C   UNL     1      -4.316   0.079  -0.613  0.00  0.00    +0.001 C 
ATOM     21  C   UNL     1      -4.249  -0.065   0.897  0.00  0.00    +0.001 C 
ENDBRANCH  23  15
ENDBRANCH  17   7
ENDBRANCH  10  17
TORSDOF 8
