REMARK  Name = 45783368
REMARK  7 active torsions:
REMARK  status: ('A' for Active; 'I' for Inactive)
REMARK    1  A    between atoms: O_2  and  C_17
REMARK    2  A    between atoms: O_2  and  C_19
REMARK    3  A    between atoms: O_3  and  C_20
REMARK    4  A    between atoms: O_3  and  C_21
REMARK    5  A    between atoms: C_8  and  C_12
REMARK    6  A    between atoms: C_13  and  C_14
REMARK    7  A    between atoms: C_19  and  C_20
REMARK                            x       y       z     vdW  Elec       q    Type
REMARK                         _______ _______ _______ _____ _____    ______ ____
ROOT
ATOM      1  O   UNL     1       2.624   1.997  -0.057  0.00  0.00    -0.336 OA
ATOM      5  N   UNL     1       2.322  -0.222  -0.014  0.00  0.00    -0.190 NA
ATOM      6  N   UNL     1       1.239   1.793  -0.050  0.00  0.00    -0.056 NA
ATOM     12  C   UNL     1       3.187   0.761  -0.035  0.00  0.00    +0.245 A 
ATOM     13  C   UNL     1       1.140   0.461  -0.024  0.00  0.00    +0.202 A 
ENDROOT
BRANCH  12   8
ATOM      4  N   UNL     1       5.225   0.047   1.167  0.00  0.00    -0.305 NA
ATOM      8  C   UNL     1       4.697   0.708  -0.037  0.00  0.00    +0.143 C 
ATOM      9  C   UNL     1       5.291  -0.070  -1.222  0.00  0.00    +0.029 C 
ATOM     10  C   UNL     1       6.186  -1.125  -0.590  0.00  0.00    +0.017 C 
ATOM     11  C   UNL     1       6.495  -0.558   0.780  0.00  0.00    +0.081 C 
ATOM     22  H   UNL     1       4.588  -0.705   1.437  0.00  0.00    +0.123 HD
ENDBRANCH  12   8
BRANCH  13  14
ATOM      7  N   UNL     1      -2.583  -1.546   0.020  0.00  0.00    -0.221 NA
ATOM     14  C   UNL     1      -0.122  -0.220  -0.009  0.00  0.00    +0.029 A 
ATOM     15  C   UNL     1      -1.308   0.507  -0.019  0.00  0.00    +0.079 A 
ATOM     16  C   UNL     1      -0.166  -1.609   0.016  0.00  0.00    +0.031 A 
ATOM     17  C   UNL     1      -2.501  -0.197  -0.004  0.00  0.00    +0.215 A 
ATOM     18  C   UNL     1      -1.410  -2.219   0.030  0.00  0.00    +0.115 A 
BRANCH  17   2
ATOM      2  O   UNL     1      -3.682   0.497  -0.014  0.00  0.00    -0.474 OA
BRANCH   2  19
ATOM     19  C   UNL     1      -4.878  -0.275   0.003  0.00  0.00    +0.258 C 
BRANCH  19  20
ATOM     20  C   UNL     1      -6.071   0.661   0.012  0.00  0.00    +0.200 C 
BRANCH  20   3
ATOM      3  O   UNL     1      -7.266  -0.110   0.008  0.00  0.00    -0.380 OA
ATOM     21  C   UNL     1      -8.420   0.718   0.039  0.00  0.00    +0.194 C 
ENDBRANCH  20   3
ENDBRANCH  19  20
ENDBRANCH   2  19
ENDBRANCH  17   2
ENDBRANCH  13  14
TORSDOF 6
