REMARK  Name = 40777706
REMARK  10 active torsions:
REMARK  status: ('A' for Active; 'I' for Inactive)
REMARK    1  A    between atoms: N_3  and  C_15
REMARK    2  A    between atoms: N_4  and  C_8
REMARK    3  A    between atoms: C_6  and  C_9
REMARK    4  A    between atoms: C_12  and  C_16
REMARK    5  A    between atoms: C_13  and  C_18
REMARK    6  A    between atoms: C_14  and  C_17
REMARK    7  A    between atoms: C_14  and  C_24
REMARK    8  A    between atoms: C_14  and  C_25
REMARK    9  A    between atoms: C_14  and  C_26
REMARK   10  A    between atoms: C_21  and  C_27
REMARK                            x       y       z     vdW  Elec       q    Type
REMARK                         _______ _______ _______ _____ _____    ______ ____
ROOT
ATOM      3  N   UNL     1      -2.062  -0.952  -0.162  0.00  0.00    -0.236 N 
ATOM      5  N   UNL     1      -1.785  -2.157  -0.688  0.00  0.00    -0.171 NA
ATOM      9  C   UNL     1       0.097  -1.141   0.115  0.00  0.00    +0.003 A 
ATOM     12  C   UNL     1      -0.969  -0.302   0.333  0.00  0.00    +0.046 A 
ATOM     13  C   UNL     1      -0.465  -2.267  -0.517  0.00  0.00    +0.064 A 
ATOM     16  C   UNL     1      -1.034   1.035   0.957  0.00  0.00    +0.066 C 
ATOM     18  C   UNL     1       0.227  -3.483  -0.980  0.00  0.00    +0.068 C 
ENDROOT
BRANCH   3  15
ATOM     15  C   UNL     1      -3.376  -0.482  -0.161  0.00  0.00    +0.066 A 
ATOM     17  C   UNL     1      -6.003   0.454  -0.166  0.00  0.00    -0.042 A 
ATOM     19  C   UNL     1      -4.373  -1.199   0.501  0.00  0.00    +0.028 A 
ATOM     20  C   UNL     1      -3.692   0.703  -0.825  0.00  0.00    +0.028 A 
ATOM     22  C   UNL     1      -5.687  -0.731   0.498  0.00  0.00    +0.006 A 
ATOM     23  C   UNL     1      -5.006   1.171  -0.828  0.00  0.00    +0.006 A 
BRANCH  17  14
ATOM     14  C   UNL     1      -7.409   0.954  -0.169  0.00  0.00    -0.013 C 
ATOM     24  C   UNL     1      -7.917   1.222   1.281  0.00  0.00    +0.015 C 
ATOM     25  C   UNL     1      -8.376  -0.082  -0.823  0.00  0.00    +0.015 C 
ATOM     26  C   UNL     1      -7.644   2.291  -0.947  0.00  0.00    +0.015 C 
ENDBRANCH  17  14
ENDBRANCH   3  15
BRANCH   9   6
ATOM      6  C   UNL     1       1.546  -0.904   0.472  0.00  0.00    +0.047 C 
ATOM      7  C   UNL     1       2.135   0.366  -0.177  0.00  0.00    +0.039 C 
ATOM      8  C   UNL     1       3.130   0.935   0.843  0.00  0.00    +0.097 C 
ATOM     10  C   UNL     1       1.802  -0.668   1.932  0.00  0.00    -0.021 C 
ATOM     11  C   UNL     1       2.668   0.332   2.128  0.00  0.00    -0.009 C 
BRANCH   8   4
ATOM      2  O   UNL     1       5.100   2.368  -0.677  0.00  0.00    -0.270 OA
ATOM      4  N   UNL     1       4.484   0.523   0.587  0.00  0.00    -0.305 N 
ATOM     21  C   UNL     1       5.371   1.286  -0.164  0.00  0.00    +0.251 C 
ATOM     31  H   UNL     1       4.794  -0.379   0.939  0.00  0.00    +0.150 HD
BRANCH  21  27
ATOM      1  S   UNL     1       7.092  -0.814   0.336  0.00  0.00    -0.092 S 
ATOM     27  C   UNL     1       6.726   0.709  -0.358  0.00  0.00    +0.074 A 
ATOM     28  C   UNL     1       7.798   1.233  -1.048  0.00  0.00    +0.021 A 
ATOM     29  C   UNL     1       8.933   0.374  -1.006  0.00  0.00    +0.008 A 
ATOM     30  C   UNL     1       8.687  -0.774  -0.286  0.00  0.00    +0.046 A 
ENDBRANCH  21  27
ENDBRANCH   8   4
ENDBRANCH   9   6
TORSDOF 5
