REMARK  Name = 51137016
REMARK  3 active torsions:
REMARK  status: ('A' for Active; 'I' for Inactive)
REMARK    1  A    between atoms: C_8  and  C_12
REMARK    2  A    between atoms: C_13  and  C_16
REMARK    3  A    between atoms: C_19  and  C_23
REMARK                            x       y       z     vdW  Elec       q    Type
REMARK                         _______ _______ _______ _____ _____    ______ ____
ROOT
ATOM      6  N   UNL     1      -1.597   1.466  -1.065  0.00  0.00    -0.342 N 
ATOM      7  N   UNL     1      -0.426   0.098   0.238  0.00  0.00    -0.232 NA
ATOM     12  C   UNL     1      -0.364   1.120  -0.585  0.00  0.00    +0.113 A 
ATOM     14  C   UNL     1      -2.515   0.609  -0.515  0.00  0.00    +0.067 A 
ATOM     15  C   UNL     1      -1.760  -0.234   0.294  0.00  0.00    +0.089 A 
ATOM     17  C   UNL     1      -3.900   0.503  -0.652  0.00  0.00    +0.040 A 
ATOM     18  C   UNL     1      -2.408  -1.250   1.018  0.00  0.00    +0.030 A 
ATOM     19  C   UNL     1      -4.528  -0.513   0.075  0.00  0.00    +0.057 A 
ATOM     20  C   UNL     1      -3.797  -1.375   0.896  0.00  0.00    +0.014 A 
ATOM     27  H   UNL     1      -1.798   2.219  -1.710  0.00  0.00    +0.167 HD
ENDROOT
BRANCH  12   8
ATOM      4  O   UNL     1       4.104   0.868   2.209  0.00  0.00    -0.270 OA
ATOM      5  N   UNL     1       2.744   1.364   0.393  0.00  0.00    -0.297 N 
ATOM      8  C   UNL     1       0.886   1.877  -1.002  0.00  0.00    +0.074 C 
ATOM      9  C   UNL     1       1.170   3.061  -0.065  0.00  0.00    +0.032 C 
ATOM     10  C   UNL     1       2.209   1.101  -0.944  0.00  0.00    +0.119 C 
ATOM     11  C   UNL     1       2.032   2.457   1.036  0.00  0.00    +0.109 C 
ATOM     13  C   UNL     1       3.735   0.657   1.056  0.00  0.00    +0.247 C 
BRANCH  13  16
ATOM     16  C   UNL     1       4.388  -0.443   0.328  0.00  0.00    +0.037 A 
ATOM     21  C   UNL     1       5.069  -0.185  -0.861  0.00  0.00    +0.013 A 
ATOM     22  C   UNL     1       4.326  -1.743   0.829  0.00  0.00    +0.013 A 
ATOM     24  C   UNL     1       5.689  -1.228  -1.550  0.00  0.00    +0.001 A 
ATOM     25  C   UNL     1       4.946  -2.786   0.140  0.00  0.00    +0.001 A 
ATOM     26  C   UNL     1       5.628  -2.528  -1.050  0.00  0.00    +0.000 A 
ENDBRANCH  13  16
ENDBRANCH  12   8
BRANCH  19  23
ATOM      1  F   UNL     1      -6.710   0.424   0.370  0.00  0.00    -0.166 F 
ATOM      2  F   UNL     1      -6.476  -1.707   0.735  0.00  0.00    -0.166 F 
ATOM      3  F   UNL     1      -6.440  -0.936  -1.298  0.00  0.00    -0.166 F 
ATOM     23  C   UNL     1      -6.009  -0.678  -0.029  0.00  0.00    +0.417 C 
ENDBRANCH  19  23
TORSDOF 3
