REMARK  Name = 75367677
REMARK  4 active torsions:
REMARK  status: ('A' for Active; 'I' for Inactive)
REMARK    1  A    between atoms: S_1  and  N_6
REMARK    2  A    between atoms: S_1  and  C_12
REMARK    3  A    between atoms: O_3  and  C_8
REMARK    4  A    between atoms: O_3  and  C_13
REMARK                            x       y       z     vdW  Elec       q    Type
REMARK                         _______ _______ _______ _____ _____    ______ ____
ROOT
ATOM      2  O   UNL     1       1.888  -2.773   0.210  0.00  0.00    -0.375 OA
ATOM      6  N   UNL     1       1.976   0.151   0.042  0.00  0.00    -0.176 NA
ATOM      7  C   UNL     1       0.762  -0.194   0.846  0.00  0.00    +0.156 C 
ATOM      8  C   UNL     1      -0.061  -1.274   0.148  0.00  0.00    +0.215 C 
ATOM      9  C   UNL     1       3.156  -0.684   0.421  0.00  0.00    +0.137 C 
ATOM     10  C   UNL     1       0.727  -2.397  -0.523  0.00  0.00    +0.205 C 
ATOM     11  C   UNL     1       3.056  -2.066  -0.208  0.00  0.00    +0.177 C 
ENDROOT
BRANCH   6   1
ATOM      1  S   UNL     1       2.287   1.825  -0.157  0.00  0.00    +0.029 S 
ATOM      4  O   UNL     1       1.028   2.507  -0.347  0.00  0.00    -0.158 OA
ATOM      5  O   UNL     1       3.389   1.981  -1.077  0.00  0.00    -0.158 OA
ATOM     12  C   UNL     1       2.873   2.195   1.476  0.00  0.00    +0.215 C 
ENDBRANCH   6   1
BRANCH   8   3
ATOM      3  O   UNL     1      -0.898  -0.680  -0.845  0.00  0.00    -0.485 OA
BRANCH   3  13
ATOM     13  C   UNL     1      -2.119  -0.227  -0.425  0.00  0.00    +0.121 A 
ATOM     14  C   UNL     1      -3.034  -1.113   0.143  0.00  0.00    +0.045 A 
ATOM     15  C   UNL     1      -2.449   1.121  -0.567  0.00  0.00    +0.045 A 
ATOM     16  C   UNL     1      -4.279  -0.651   0.572  0.00  0.00    +0.004 A 
ATOM     17  C   UNL     1      -3.693   1.583  -0.139  0.00  0.00    +0.004 A 
ATOM     18  C   UNL     1      -4.608   0.697   0.430  0.00  0.00    +0.000 A 
ENDBRANCH   3  13
ENDBRANCH   8   3
TORSDOF 3
