REMARK  Name = 44716814
REMARK  5 active torsions:
REMARK  status: ('A' for Active; 'I' for Inactive)
REMARK    1  A    between atoms: N_4  and  C_11
REMARK    2  A    between atoms: N_5  and  C_12
REMARK    3  A    between atoms: N_6  and  C_18
REMARK    4  A    between atoms: C_17  and  C_21
REMARK    5  A    between atoms: C_30  and  C_32
REMARK                            x       y       z     vdW  Elec       q    Type
REMARK                         _______ _______ _______ _____ _____    ______ ____
ROOT
ATOM      4  N   UNL     1       0.359  -3.417  -0.098  0.00  0.00    -0.306 N 
ATOM      7  N   UNL     1      -1.563  -2.208  -0.585  0.00  0.00    -0.214 NA
ATOM      8  N   UNL     1      -0.644  -3.782  -2.161  0.00  0.00    -0.223 NA
ATOM     15  C   UNL     1      -0.661  -3.124  -0.986  0.00  0.00    +0.216 A 
ATOM     17  C   UNL     1      -2.541  -1.943  -1.476  0.00  0.00    +0.076 A 
ATOM     19  C   UNL     1      -1.650  -3.469  -3.004  0.00  0.00    +0.116 A 
ATOM     20  C   UNL     1      -2.636  -2.549  -2.713  0.00  0.00    +0.048 A 
ATOM     38  H   UNL     1       1.070  -4.066  -0.416  0.00  0.00    +0.149 HD
ENDROOT
BRANCH   4  11
ATOM      1  O   UNL     1       2.748  -3.151   1.851  0.00  0.00    -0.370 OA
ATOM      2  O   UNL     1       0.926  -0.643   2.205  0.00  0.00    -0.370 OA
ATOM      9  C   UNL     1       1.227  -1.489   1.083  0.00  0.00    +0.171 C 
ATOM     10  C   UNL     1       2.690  -1.875   1.191  0.00  0.00    +0.171 C 
ATOM     11  C   UNL     1       0.489  -2.801   1.204  0.00  0.00    +0.130 C 
ATOM     12  C   UNL     1       3.290  -0.801   2.070  0.00  0.00    +0.131 C 
ATOM     13  C   UNL     1       1.413  -3.624   2.084  0.00  0.00    +0.185 C 
ATOM     14  C   UNL     1       2.123  -0.426   2.966  0.00  0.00    +0.185 C 
BRANCH  12   5
ATOM      3  O   UNL     1       5.934  -0.343   1.069  0.00  0.00    -0.252 OA
ATOM      5  N   UNL     1       3.732   0.327   1.287  0.00  0.00    -0.292 N 
ATOM      6  N   UNL     1       5.181   1.661   0.105  0.00  0.00    -0.269 N 
ATOM     16  C   UNL     1       5.049   0.476   0.835  0.00  0.00    +0.304 C 
ATOM     39  H   UNL     1       3.043   1.013   0.995  0.00  0.00    +0.151 HD
ATOM     40  H   UNL     1       4.345   2.231   0.005  0.00  0.00    +0.156 HD
BRANCH   6  18
ATOM     18  C   UNL     1       6.344   2.172  -0.517  0.00  0.00    +0.035 A 
ATOM     22  C   UNL     1       6.291   3.382  -1.208  0.00  0.00    +0.023 A 
ATOM     23  C   UNL     1       7.545   1.465  -0.439  0.00  0.00    +0.023 A 
ATOM     26  C   UNL     1       7.437   3.886  -1.823  0.00  0.00    +0.002 A 
ATOM     27  C   UNL     1       8.691   1.969  -1.054  0.00  0.00    +0.002 A 
ATOM     31  C   UNL     1       8.638   3.179  -1.745  0.00  0.00    +0.000 A 
ENDBRANCH   6  18
ENDBRANCH  12   5
ENDBRANCH   4  11
BRANCH  17  21
ATOM     21  C   UNL     1      -3.510  -0.961  -1.050  0.00  0.00    +0.001 A 
ATOM     24  C   UNL     1      -4.857  -1.308  -0.951  0.00  0.00    +0.010 A 
ATOM     25  C   UNL     1      -3.099   0.334  -0.736  0.00  0.00    +0.010 A 
ATOM     28  C   UNL     1      -5.793  -0.360  -0.539  0.00  0.00    +0.009 A 
ATOM     29  C   UNL     1      -4.035   1.282  -0.324  0.00  0.00    +0.009 A 
ATOM     30  C   UNL     1      -5.382   0.935  -0.225  0.00  0.00    -0.018 A 
BRANCH  30  32
ATOM     32  C   UNL     1      -6.353   1.919   0.202  0.00  0.00    -0.018 A 
ATOM     33  C   UNL     1      -6.990   2.726  -0.741  0.00  0.00    +0.008 A 
ATOM     34  C   UNL     1      -6.652   2.061   1.557  0.00  0.00    +0.008 A 
ATOM     35  C   UNL     1      -7.926   3.674  -0.329  0.00  0.00    +0.001 A 
ATOM     36  C   UNL     1      -7.587   3.010   1.969  0.00  0.00    +0.001 A 
ATOM     37  C   UNL     1      -8.225   3.817   1.026  0.00  0.00    +0.000 A 
ENDBRANCH  30  32
ENDBRANCH  17  21
TORSDOF 5
