REMARK  Name = 28991350
REMARK  8 active torsions:
REMARK  status: ('A' for Active; 'I' for Inactive)
REMARK    1  A    between atoms: O_2  and  C_21
REMARK    2  A    between atoms: O_2  and  C_34
REMARK    3  A    between atoms: N_5  and  C_12
REMARK    4  A    between atoms: N_5  and  C_22
REMARK    5  A    between atoms: C_10  and  C_18
REMARK    6  A    between atoms: C_14  and  C_21
REMARK    7  A    between atoms: C_22  and  C_27
REMARK    8  A    between atoms: C_27  and  C_33
REMARK                            x       y       z     vdW  Elec       q    Type
REMARK                         _______ _______ _______ _____ _____    ______ ____
ROOT
ATOM      4  N   UNL     1      -0.871  -0.612   0.057  0.00  0.00    -0.274 NA
ATOM      6  N   UNL     1      -2.547   2.749   0.108  0.00  0.00    -0.356 N 
ATOM      9  C   UNL     1      -0.890   0.840  -0.300  0.00  0.00    +0.106 C 
ATOM     10  C   UNL     1       0.427  -1.249  -0.282  0.00  0.00    +0.090 C 
ATOM     11  C   UNL     1       0.242   1.592   0.416  0.00  0.00    +0.044 C 
ATOM     12  C   UNL     1       1.599   0.990   0.051  0.00  0.00    +0.057 C 
ATOM     13  C   UNL     1       1.605  -0.500   0.387  0.00  0.00    +0.042 C 
ATOM     14  C   UNL     1      -2.071  -1.345  -0.430  0.00  0.00    +0.172 C 
ATOM     15  C   UNL     1      -2.234   1.421   0.026  0.00  0.00    +0.038 A 
ATOM     16  C   UNL     1      -3.389  -0.792   0.171  0.00  0.00    +0.068 C 
ATOM     17  C   UNL     1      -3.388   0.695   0.226  0.00  0.00    -0.016 A 
ATOM     19  C   UNL     1      -4.442   1.615   0.476  0.00  0.00    +0.003 A 
ATOM     20  C   UNL     1      -3.887   2.896   0.397  0.00  0.00    +0.047 A 
ATOM     25  C   UNL     1      -5.817   1.488   0.757  0.00  0.00    +0.010 A 
ATOM     26  C   UNL     1      -4.644   4.058   0.588  0.00  0.00    +0.026 A 
ATOM     28  C   UNL     1      -6.584   2.642   0.952  0.00  0.00    +0.001 A 
ATOM     31  C   UNL     1      -6.005   3.906   0.868  0.00  0.00    +0.002 A 
ATOM     38  H   UNL     1      -1.899   3.514  -0.020  0.00  0.00    +0.166 HD
ENDROOT
BRANCH  10  18
ATOM      1 CL   UNL     1       0.282  -4.880   3.479  0.00  0.00    -0.084 Cl
ATOM     18  C   UNL     1       0.525  -2.718   0.122  0.00  0.00    -0.029 A 
ATOM     23  C   UNL     1       0.376  -3.086   1.460  0.00  0.00    +0.025 A 
ATOM     24  C   UNL     1       0.762  -3.693  -0.846  0.00  0.00    +0.005 A 
ATOM     29  C   UNL     1       0.464  -4.428   1.829  0.00  0.00    +0.041 A 
ATOM     30  C   UNL     1       0.851  -5.036  -0.478  0.00  0.00    +0.002 A 
ATOM     32  C   UNL     1       0.701  -5.403   0.860  0.00  0.00    +0.020 A 
ENDBRANCH  10  18
BRANCH  14  21
ATOM      3  O   UNL     1      -1.288  -0.787  -2.641  0.00  0.00    -0.249 OA
ATOM     21  C   UNL     1      -2.122  -1.334  -1.932  0.00  0.00    +0.325 C 
BRANCH  21   2
ATOM      2  O   UNL     1      -3.222  -2.018  -2.356  0.00  0.00    -0.467 OA
ATOM     34  C   UNL     1      -3.394  -2.087  -3.775  0.00  0.00    +0.280 C 
ENDBRANCH  21   2
ENDBRANCH  14  21
BRANCH  12   5
ATOM      5  N   UNL     1       2.667   1.690   0.762  0.00  0.00    -0.313 NA
ATOM     37  H   UNL     1       2.462   2.688   0.795  0.00  0.00    +0.122 HD
BRANCH   5  22
ATOM     22  C   UNL     1       3.944   1.497   0.093  0.00  0.00    +0.087 C 
BRANCH  22  27
ATOM     27  C   UNL     1       5.058   2.265   0.806  0.00  0.00    +0.070 C 
BRANCH  27  33
ATOM      7  N   UNL     1       7.488   1.587   0.737  0.00  0.00    -0.348 N 
ATOM      8  N   UNL     1       8.120   2.027  -1.346  0.00  0.00    -0.244 NA
ATOM     33  C   UNL     1       6.384   2.091   0.110  0.00  0.00    +0.037 A 
ATOM     35  C   UNL     1       6.798   2.356  -1.175  0.00  0.00    +0.133 A 
ATOM     36  C   UNL     1       8.505   1.567  -0.177  0.00  0.00    +0.196 A 
ATOM     39  H   UNL     1       7.545   1.282   1.699  0.00  0.00    +0.166 HD
ENDBRANCH  27  33
ENDBRANCH  22  27
ENDBRANCH   5  22
ENDBRANCH  12   5
TORSDOF 7
