REMARK  Name = 11885143
REMARK  2 active torsions:
REMARK  status: ('A' for Active; 'I' for Inactive)
REMARK    1  A    between atoms: C_12  and  C_13
REMARK    2  A    between atoms: C_21  and  C_23
REMARK                            x       y       z     vdW  Elec       q    Type
REMARK                         _______ _______ _______ _____ _____    ______ ____
ROOT
ATOM      1  O   UNL     1       3.434   1.228   2.188  0.00  0.00    -0.275 OA
ATOM      2  O   UNL     1      -0.765  -2.028   1.585  0.00  0.00    -0.267 OA
ATOM      3  N   UNL     1       3.813  -0.293   0.473  0.00  0.00    -0.300 N 
ATOM      4  N   UNL     1       1.119  -1.988   0.212  0.00  0.00    -0.311 N 
ATOM      5  C   UNL     1       3.438  -2.698   1.035  0.00  0.00    +0.027 C 
ATOM      6  C   UNL     1       3.147  -1.927  -1.282  0.00  0.00    +0.054 C 
ATOM      7  C   UNL     1       3.689  -3.066  -0.422  0.00  0.00    +0.018 C 
ATOM      8  C   UNL     1       4.154  -1.383   1.390  0.00  0.00    +0.113 C 
ATOM      9  C   UNL     1       3.909  -0.627  -0.956  0.00  0.00    +0.117 C 
ATOM     10  C   UNL     1       1.925  -2.612   1.271  0.00  0.00    +0.130 C 
ATOM     11  C   UNL     1       1.662  -1.724  -1.048  0.00  0.00    +0.027 A 
ATOM     13  C   UNL     1       3.509   0.969   0.984  0.00  0.00    +0.219 C 
ATOM     16  C   UNL     1       0.877  -1.266  -2.036  0.00  0.00    +0.022 A 
ATOM     19  C   UNL     1      -0.243  -1.775   0.498  0.00  0.00    +0.259 A 
ATOM     21  C   UNL     1      -1.090  -1.226  -0.619  0.00  0.00    +0.047 A 
ATOM     22  C   UNL     1      -0.517  -1.009  -1.812  0.00  0.00    +0.015 A 
ENDROOT
BRANCH  21  23
ATOM     23  C   UNL     1      -2.517  -0.921  -0.416  0.00  0.00    -0.012 A 
ATOM     24  C   UNL     1      -2.906   0.346   0.021  0.00  0.00    +0.017 A 
ATOM     25  C   UNL     1      -3.479  -1.897  -0.661  0.00  0.00    +0.009 A 
ATOM     26  C   UNL     1      -4.263   0.651   0.219  0.00  0.00    -0.017 A 
ATOM     27  C   UNL     1      -4.831  -1.611  -0.471  0.00  0.00    +0.009 A 
ATOM     28  C   UNL     1      -5.239  -0.342  -0.031  0.00  0.00    -0.018 A 
ATOM     29  C   UNL     1      -4.671   1.921   0.658  0.00  0.00    +0.008 A 
ATOM     30  C   UNL     1      -6.596  -0.036   0.166  0.00  0.00    +0.008 A 
ATOM     31  C   UNL     1      -6.023   2.208   0.849  0.00  0.00    +0.001 A 
ATOM     32  C   UNL     1      -6.984   1.231   0.604  0.00  0.00    +0.001 A 
ENDBRANCH  21  23
BRANCH  13  12
ATOM     12  C   UNL     1       3.256   2.056  -0.017  0.00  0.00    +0.075 C 
ATOM     14  C   UNL     1       1.776   2.071  -0.408  0.00  0.00    +0.013 C 
ATOM     15  C   UNL     1       3.697   3.405   0.555  0.00  0.00    +0.013 C 
ATOM     17  C   UNL     1       1.455   3.223  -1.356  0.00  0.00    +0.001 C 
ATOM     18  C   UNL     1       3.371   4.555  -0.394  0.00  0.00    +0.001 C 
ATOM     20  C   UNL     1       1.894   4.566  -0.779  0.00  0.00    +0.000 C 
ENDBRANCH  13  12
TORSDOF 2
