REMARK  Name = 11941667
REMARK  6 active torsions:
REMARK  status: ('A' for Active; 'I' for Inactive)
REMARK    1  A    between atoms: O_4  and  C_31
REMARK    2  A    between atoms: O_4  and  C_32
REMARK    3  A    between atoms: N_5  and  C_12
REMARK    4  A    between atoms: N_6  and  C_13
REMARK    5  A    between atoms: N_9  and  C_26
REMARK    6  A    between atoms: C_16  and  C_22
REMARK                            x       y       z     vdW  Elec       q    Type
REMARK                         _______ _______ _______ _____ _____    ______ ____
ROOT
ATOM      1  O   UNL     1      -2.156   2.067   2.725  0.00  0.00    -0.370 OA
ATOM      2  O   UNL     1      -3.118   2.327  -0.232  0.00  0.00    -0.370 OA
ATOM     10  C   UNL     1      -2.892   1.202   0.634  0.00  0.00    +0.171 C 
ATOM     11  C   UNL     1      -1.677   1.525   1.483  0.00  0.00    +0.171 C 
ATOM     12  C   UNL     1      -4.018   1.075   1.633  0.00  0.00    +0.130 C 
ATOM     13  C   UNL     1      -0.948   2.587   0.693  0.00  0.00    +0.131 C 
ATOM     14  C   UNL     1      -3.591   2.022   2.739  0.00  0.00    +0.185 C 
ATOM     15  C   UNL     1      -2.083   3.299  -0.020  0.00  0.00    +0.185 C 
ENDROOT
BRANCH  12   5
ATOM      5  N   UNL     1      -4.084  -0.281   2.134  0.00  0.00    -0.306 N 
ATOM      7  N   UNL     1      -5.389  -0.978   0.344  0.00  0.00    -0.219 NA
ATOM      8  N   UNL     1      -4.733  -2.510   2.085  0.00  0.00    -0.223 NA
ATOM     21  C   UNL     1      -4.765  -1.301   1.493  0.00  0.00    +0.216 A 
ATOM     22  C   UNL     1      -6.043  -1.996  -0.254  0.00  0.00    +0.049 A 
ATOM     24  C   UNL     1      -6.085  -3.280   0.249  0.00  0.00    +0.043 A 
ATOM     25  C   UNL     1      -5.406  -3.481   1.433  0.00  0.00    +0.116 A 
ATOM     38  H   UNL     1      -3.569  -0.529   2.971  0.00  0.00    +0.149 HD
BRANCH  22  16
ATOM     16  C   UNL     1      -6.758  -1.679  -1.548  0.00  0.00    +0.038 C 
ATOM     17  C   UNL     1      -5.843  -1.155  -2.674  0.00  0.00    +0.010 C 
ATOM     18  C   UNL     1      -7.851  -0.609  -1.370  0.00  0.00    +0.010 C 
ATOM     19  C   UNL     1      -6.338   0.251  -2.992  0.00  0.00    +0.001 C 
ATOM     20  C   UNL     1      -7.819   0.194  -2.661  0.00  0.00    +0.001 C 
ENDBRANCH  22  16
ENDBRANCH  12   5
BRANCH  13   6
ATOM      3  O   UNL     1       1.848   2.110   1.099  0.00  0.00    -0.252 OA
ATOM      6  N   UNL     1      -0.027   1.997  -0.249  0.00  0.00    -0.292 N 
ATOM      9  N   UNL     1       1.970   1.210  -1.065  0.00  0.00    -0.269 N 
ATOM     23  C   UNL     1       1.330   1.797   0.029  0.00  0.00    +0.304 C 
ATOM     39  H   UNL     1      -0.394   1.650  -1.130  0.00  0.00    +0.151 HD
ATOM     40  H   UNL     1       1.394   1.015  -1.880  0.00  0.00    +0.156 HD
BRANCH   9  26
ATOM     26  C   UNL     1       3.333   0.850  -1.184  0.00  0.00    +0.035 A 
ATOM     27  C   UNL     1       4.209   1.077  -0.123  0.00  0.00    +0.027 A 
ATOM     28  C   UNL     1       3.801   0.269  -2.363  0.00  0.00    +0.027 A 
ATOM     29  C   UNL     1       5.553   0.723  -0.240  0.00  0.00    +0.048 A 
ATOM     30  C   UNL     1       5.145  -0.085  -2.480  0.00  0.00    +0.048 A 
ATOM     31  C   UNL     1       6.021   0.142  -1.418  0.00  0.00    +0.129 A 
BRANCH  31   4
ATOM      4  O   UNL     1       7.333  -0.201  -1.534  0.00  0.00    -0.456 OA
BRANCH   4  32
ATOM     32  C   UNL     1       7.921  -0.862  -0.468  0.00  0.00    +0.128 A 
ATOM     33  C   UNL     1       7.252  -1.916   0.154  0.00  0.00    +0.046 A 
ATOM     34  C   UNL     1       9.183  -0.474  -0.017  0.00  0.00    +0.046 A 
ATOM     35  C   UNL     1       7.844  -2.581   1.228  0.00  0.00    +0.004 A 
ATOM     36  C   UNL     1       9.775  -1.139   1.056  0.00  0.00    +0.004 A 
ATOM     37  C   UNL     1       9.106  -2.193   1.679  0.00  0.00    +0.000 A 
ENDBRANCH   4  32
ENDBRANCH  31   4
ENDBRANCH   9  26
ENDBRANCH  13   6
TORSDOF 6
