REMARK  Name = 40777644
REMARK  6 active torsions:
REMARK  status: ('A' for Active; 'I' for Inactive)
REMARK    1  A    between atoms: N_2  and  C_15
REMARK    2  A    between atoms: N_3  and  C_7
REMARK    3  A    between atoms: C_5  and  C_8
REMARK    4  A    between atoms: C_11  and  C_13
REMARK    5  A    between atoms: C_12  and  C_14
REMARK    6  A    between atoms: C_20  and  C_21
REMARK                            x       y       z     vdW  Elec       q    Type
REMARK                         _______ _______ _______ _____ _____    ______ ____
ROOT
ATOM      2  N   UNL     1      -0.540  -0.777  -0.080  0.00  0.00    -0.236 N 
ATOM      4  N   UNL     1      -0.225  -2.020  -0.482  0.00  0.00    -0.171 NA
ATOM      8  C   UNL     1       1.644  -0.761  -0.111  0.00  0.00    +0.003 A 
ATOM     11  C   UNL     1       0.544   0.017   0.155  0.00  0.00    +0.046 A 
ATOM     12  C   UNL     1       1.111  -2.005  -0.499  0.00  0.00    +0.064 A 
ATOM     13  C   UNL     1       0.439   1.420   0.604  0.00  0.00    +0.066 C 
ATOM     14  C   UNL     1       1.844  -3.218  -0.900  0.00  0.00    +0.068 C 
ENDROOT
BRANCH   2  15
ATOM      1 CL   UNL     1      -4.343   2.318  -1.493  0.00  0.00    -0.083 Cl
ATOM     15  C   UNL     1      -1.879  -0.413   0.060  0.00  0.00    +0.067 A 
ATOM     16  C   UNL     1      -2.398   0.642  -0.691  0.00  0.00    +0.048 A 
ATOM     17  C   UNL     1      -2.700  -1.103   0.952  0.00  0.00    +0.028 A 
ATOM     18  C   UNL     1      -3.737   1.007  -0.549  0.00  0.00    +0.046 A 
ATOM     19  C   UNL     1      -4.038  -0.738   1.094  0.00  0.00    +0.007 A 
ATOM     20  C   UNL     1      -4.557   0.317   0.343  0.00  0.00    -0.032 A 
ATOM     21  C   UNL     1      -5.996   0.676   0.523  0.00  0.00    +0.045 C 
ENDBRANCH   2  15
BRANCH   8   5
ATOM      5  C   UNL     1       3.100  -0.367  -0.011  0.00  0.00    +0.047 C 
ATOM      6  C   UNL     1       3.467   0.840  -0.899  0.00  0.00    +0.035 C 
ATOM      7  C   UNL     1       4.536   1.621  -0.124  0.00  0.00    +0.074 C 
ATOM      9  C   UNL     1       3.534   0.091   1.351  0.00  0.00    -0.021 C 
ATOM     10  C   UNL     1       4.319   1.172   1.284  0.00  0.00    -0.012 C 
BRANCH   7   3
ATOM      3  N   UNL     1       5.875   1.281  -0.527  0.00  0.00    -0.324 NA
ATOM     22  H   UNL     1       5.992   1.450  -1.525  0.00  0.00    +0.119 HD
ATOM     23  H   UNL     1       6.546   1.889  -0.059  0.00  0.00    +0.119 HD
ENDBRANCH   7   3
ENDBRANCH   8   5
TORSDOF 3
