REMARK  Name = 38027663
REMARK  13 active torsions:
REMARK  status: ('A' for Active; 'I' for Inactive)
REMARK    1  A    between atoms: O_3  and  C_23
REMARK    2  A    between atoms: O_3  and  C_28
REMARK    3  A    between atoms: N_4  and  C_14
REMARK    4  A    between atoms: N_5  and  C_21
REMARK    5  A    between atoms: C_7  and  C_11
REMARK    6  A    between atoms: C_8  and  C_14
REMARK    7  A    between atoms: C_10  and  C_15
REMARK    8  A    between atoms: C_11  and  C_16
REMARK    9  A    between atoms: C_11  and  C_17
REMARK   10  A    between atoms: C_12  and  C_18
REMARK   11  A    between atoms: C_15  and  C_19
REMARK   12  A    between atoms: C_20  and  C_22
REMARK   13  A    between atoms: C_21  and  C_23
REMARK                            x       y       z     vdW  Elec       q    Type
REMARK                         _______ _______ _______ _____ _____    ______ ____
ROOT
ATOM      7  C   UNL     1      -0.498  -1.836   0.618  0.00  0.00    +0.000 C 
ATOM      8  C   UNL     1       0.414  -2.852  -0.113  0.00  0.00    +0.032 C 
ATOM      9  C   UNL     1      -1.819  -1.654  -0.146  0.00  0.00    +0.012 C 
ATOM     10  C   UNL     1      -1.594  -1.159  -1.587  0.00  0.00    +0.023 C 
ATOM     12  C   UNL     1      -0.508  -1.948  -2.291  0.00  0.00    -0.073 C 
ATOM     13  C   UNL     1       0.372  -2.710  -1.617  0.00  0.00    -0.022 C 
ATOM     18  C   UNL     1      -0.485  -1.878  -3.792  0.00  0.00    +0.039 C 
ENDROOT
BRANCH   7  11
ATOM     11  C   UNL     1      -0.789  -2.267   2.059  0.00  0.00    -0.013 C 
ATOM     16  C   UNL     1      -1.141  -1.055   2.916  0.00  0.00    +0.007 C 
ATOM     17  C   UNL     1      -1.913  -3.297   2.091  0.00  0.00    +0.007 C 
ENDBRANCH   7  11
BRANCH   8  14
ATOM     14  C   UNL     1       1.865  -2.740   0.370  0.00  0.00    +0.112 C 
BRANCH  14   4
ATOM      2  O   UNL     1       2.896  -0.746   2.159  0.00  0.00    -0.270 OA
ATOM      4  N   UNL     1       2.424  -1.476   0.007  0.00  0.00    -0.311 N 
ATOM     20  C   UNL     1       2.904  -0.562   0.945  0.00  0.00    +0.246 C 
ATOM     29  H   UNL     1       2.544  -1.288  -0.983  0.00  0.00    +0.149 HD
BRANCH  20  22
ATOM      6  N   UNL     1       4.916   2.610   0.663  0.00  0.00    -0.263 NA
ATOM     22  C   UNL     1       3.431   0.719   0.408  0.00  0.00    +0.055 A 
ATOM     24  C   UNL     1       2.970   1.234  -0.799  0.00  0.00    +0.016 A 
ATOM     25  C   UNL     1       4.396   1.439   1.094  0.00  0.00    +0.123 A 
ATOM     26  C   UNL     1       3.482   2.436  -1.275  0.00  0.00    +0.020 A 
ATOM     27  C   UNL     1       4.445   3.079  -0.514  0.00  0.00    +0.111 A 
ENDBRANCH  20  22
ENDBRANCH  14   4
ENDBRANCH   8  14
BRANCH  10  15
ATOM     15  C   UNL     1      -1.287   0.342  -1.615  0.00  0.00    +0.103 C 
BRANCH  15  19
ATOM      1  O   UNL     1      -3.655   0.836  -1.673  0.00  0.00    -0.276 OA
ATOM      5  N   UNL     1      -2.188   2.368  -0.721  0.00  0.00    -0.313 N 
ATOM     19  C   UNL     1      -2.519   1.179  -1.355  0.00  0.00    +0.214 C 
ATOM     30  H   UNL     1      -1.217   2.564  -0.498  0.00  0.00    +0.149 HD
BRANCH   5  21
ATOM     21  C   UNL     1      -3.168   3.364  -0.352  0.00  0.00    +0.132 C 
BRANCH  21  23
ATOM     23  C   UNL     1      -3.708   3.124   1.046  0.00  0.00    +0.178 C 
BRANCH  23   3
ATOM      3  O   UNL     1      -4.356   1.859   1.091  0.00  0.00    -0.381 OA
ATOM     28  C   UNL     1      -4.886   1.591   2.382  0.00  0.00    +0.194 C 
ENDBRANCH  23   3
ENDBRANCH  21  23
ENDBRANCH   5  21
ENDBRANCH  15  19
ENDBRANCH  10  15
TORSDOF 9
