REMARK  Name = 75367699
REMARK  6 active torsions:
REMARK  status: ('A' for Active; 'I' for Inactive)
REMARK    1  A    between atoms: O_2  and  C_9
REMARK    2  A    between atoms: O_2  and  C_18
REMARK    3  A    between atoms: N_5  and  C_16
REMARK    4  A    between atoms: C_13  and  C_14
REMARK    5  A    between atoms: C_16  and  C_19
REMARK    6  A    between atoms: C_17  and  C_20
REMARK                            x       y       z     vdW  Elec       q    Type
REMARK                         _______ _______ _______ _____ _____    ______ ____
ROOT
ATOM      1  O   UNL     1      -1.139  -3.221  -0.440  0.00  0.00    -0.375 OA
ATOM      3  O   UNL     1       3.000  -1.718   1.539  0.00  0.00    -0.268 OA
ATOM      4  N   UNL     1       0.797  -1.183   0.947  0.00  0.00    -0.291 N 
ATOM      8  C   UNL     1      -0.141  -0.229   0.342  0.00  0.00    +0.155 C 
ATOM      9  C   UNL     1      -1.440  -0.809  -0.226  0.00  0.00    +0.216 C 
ATOM     10  C   UNL     1       0.278  -2.470   1.411  0.00  0.00    +0.136 C 
ATOM     11  C   UNL     1      -1.211  -1.995  -1.161  0.00  0.00    +0.206 C 
ATOM     12  C   UNL     1       0.089  -3.436   0.248  0.00  0.00    +0.179 C 
ATOM     13  C   UNL     1       2.175  -0.936   1.069  0.00  0.00    +0.265 C 
ENDROOT
BRANCH  13  14
ATOM      5  N   UNL     1       3.634   0.529  -0.373  0.00  0.00    -0.259 N 
ATOM      6  N   UNL     1       3.940   1.815  -0.613  0.00  0.00    -0.176 NA
ATOM     14  C   UNL     1       2.696   0.358   0.603  0.00  0.00    +0.124 A 
ATOM     15  C   UNL     1       2.366   1.621   1.032  0.00  0.00    +0.057 A 
ATOM     17  C   UNL     1       3.163   2.478   0.248  0.00  0.00    +0.061 A 
ATOM     20  C   UNL     1       3.210   3.949   0.293  0.00  0.00    +0.067 C 
BRANCH   5  16
ATOM     16  C   UNL     1       4.293  -0.508  -1.133  0.00  0.00    +0.141 C 
ATOM     19  C   UNL     1       3.720  -0.632  -2.536  0.00  0.00    +0.029 C 
ENDBRANCH   5  16
ENDBRANCH  13  14
BRANCH   9   2
ATOM      2  O   UNL     1      -2.076   0.242  -0.954  0.00  0.00    -0.483 OA
BRANCH   2  18
ATOM      7  N   UNL     1      -5.603   0.088  -0.006  0.00  0.00    -0.260 NA
ATOM     18  C   UNL     1      -3.303   0.643  -0.503  0.00  0.00    +0.139 A 
ATOM     21  C   UNL     1      -3.523   1.953  -0.093  0.00  0.00    +0.049 A 
ATOM     22  C   UNL     1      -4.366  -0.243  -0.440  0.00  0.00    +0.156 A 
ATOM     23  C   UNL     1      -4.781   2.332   0.360  0.00  0.00    +0.023 A 
ATOM     24  C   UNL     1      -5.779   1.371   0.384  0.00  0.00    +0.111 A 
ENDBRANCH   2  18
ENDBRANCH   9   2
TORSDOF 4
