REMARK  Name = 51137020
REMARK  8 active torsions:
REMARK  status: ('A' for Active; 'I' for Inactive)
REMARK    1  A    between atoms: O_2  and  C_17
REMARK    2  A    between atoms: O_2  and  C_22
REMARK    3  A    between atoms: O_3  and  C_20
REMARK    4  A    between atoms: O_3  and  C_23
REMARK    5  A    between atoms: O_4  and  C_24
REMARK    6  A    between atoms: C_9  and  C_13
REMARK    7  A    between atoms: C_14  and  C_17
REMARK    8  A    between atoms: C_22  and  C_24
REMARK                            x       y       z     vdW  Elec       q    Type
REMARK                         _______ _______ _______ _____ _____    ______ ____
ROOT
ATOM      1  O   UNL     1      -3.121  -0.756  -1.697  0.00  0.00    -0.273 OA
ATOM      6  N   UNL     1      -1.626  -1.483  -0.092  0.00  0.00    -0.299 N 
ATOM      9  C   UNL     1       0.590  -2.337  -0.201  0.00  0.00    +0.074 C 
ATOM     10  C   UNL     1       0.009  -2.591   1.200  0.00  0.00    +0.032 C 
ATOM     11  C   UNL     1      -0.675  -2.073  -1.026  0.00  0.00    +0.119 C 
ATOM     12  C   UNL     1      -1.175  -1.636   1.286  0.00  0.00    +0.108 C 
ATOM     14  C   UNL     1      -2.785  -0.860  -0.516  0.00  0.00    +0.241 C 
ENDROOT
BRANCH   9  13
ATOM      7  N   UNL     1       2.953  -1.506   0.041  0.00  0.00    -0.341 N 
ATOM      8  N   UNL     1       1.420   0.052  -0.363  0.00  0.00    -0.232 NA
ATOM     13  C   UNL     1       1.632  -1.232  -0.181  0.00  0.00    +0.113 A 
ATOM     15  C   UNL     1       3.639  -0.319  -0.001  0.00  0.00    +0.070 A 
ATOM     16  C   UNL     1       2.660   0.638  -0.254  0.00  0.00    +0.089 A 
ATOM     18  C   UNL     1       4.990  -0.009   0.157  0.00  0.00    +0.073 A 
ATOM     19  C   UNL     1       3.033   1.988  -0.359  0.00  0.00    +0.033 A 
ATOM     20  C   UNL     1       5.344   1.340   0.049  0.00  0.00    +0.122 A 
ATOM     21  C   UNL     1       4.384   2.323  -0.204  0.00  0.00    +0.048 A 
ATOM     25  H   UNL     1       3.356  -2.418   0.208  0.00  0.00    +0.167 HD
BRANCH  20   3
ATOM      3  O   UNL     1       6.651   1.701   0.195  0.00  0.00    -0.495 OA
ATOM     23  C   UNL     1       7.585   0.655   0.452  0.00  0.00    +0.277 C 
ENDBRANCH  20   3
ENDBRANCH   9  13
BRANCH  14  17
ATOM     17  C   UNL     1      -3.657  -0.296   0.577  0.00  0.00    +0.256 C 
BRANCH  17   2
ATOM      2  O   UNL     1      -4.752   0.319  -0.058  0.00  0.00    -0.359 OA
BRANCH   2  22
ATOM     22  C   UNL     1      -5.660   0.896   0.879  0.00  0.00    +0.280 C 
BRANCH  22  24
ATOM      5  O   UNL     1      -6.943   1.587  -1.065  0.00  0.00    -0.248 OA
ATOM     24  C   UNL     1      -6.807   1.537   0.148  0.00  0.00    +0.331 C 
BRANCH  24   4
ATOM      4  O   UNL     1      -7.691   2.063   1.033  0.00  0.00    -0.479 OA
ATOM     26  H   UNL     1      -8.451   2.488   0.582  0.00  0.00    +0.295 HD
ENDBRANCH  24   4
ENDBRANCH  22  24
ENDBRANCH   2  22
ENDBRANCH  17   2
ENDBRANCH  14  17
TORSDOF 7
