REMARK  Name = 51137056
REMARK  3 active torsions:
REMARK  status: ('A' for Active; 'I' for Inactive)
REMARK    1  A    between atoms: N_3  and  C_9
REMARK    2  A    between atoms: C_5  and  C_10
REMARK    3  A    between atoms: C_9  and  C_11
REMARK                            x       y       z     vdW  Elec       q    Type
REMARK                         _______ _______ _______ _____ _____    ______ ____
ROOT
ATOM      3  N   UNL     1      -1.346  -0.444  -0.117  0.00  0.00    -0.297 NA
ATOM      5  C   UNL     1       0.873  -0.737   0.582  0.00  0.00    +0.090 C 
ATOM      6  C   UNL     1       0.121   0.132   1.605  0.00  0.00    +0.029 C 
ATOM      7  C   UNL     1      -0.018  -0.725  -0.667  0.00  0.00    +0.097 C 
ATOM      8  C   UNL     1      -1.129   0.608   0.876  0.00  0.00    +0.085 C 
ENDROOT
BRANCH   5  10
ATOM      2  O   UNL     1       3.263  -1.216   0.572  0.00  0.00    -0.439 OA
ATOM      4  N   UNL     1       2.712   0.850  -0.179  0.00  0.00    -0.213 NA
ATOM     10  C   UNL     1       2.291  -0.300   0.298  0.00  0.00    +0.201 A 
ATOM     12  C   UNL     1       4.417  -0.571   0.229  0.00  0.00    +0.155 A 
ATOM     13  C   UNL     1       4.075   0.693  -0.230  0.00  0.00    +0.110 A 
ATOM     16  C   UNL     1       5.715  -1.060   0.311  0.00  0.00    +0.048 A 
ATOM     17  C   UNL     1       5.095   1.560  -0.647  0.00  0.00    +0.031 A 
ATOM     20  C   UNL     1       6.720  -0.182  -0.109  0.00  0.00    +0.004 A 
ATOM     21  C   UNL     1       6.419   1.103  -0.579  0.00  0.00    +0.002 A 
ENDBRANCH   5  10
BRANCH   3   9
ATOM      9  C   UNL     1      -2.300  -0.049  -1.143  0.00  0.00    +0.119 C 
BRANCH   9  11
ATOM      1 CL   UNL     1      -6.662   2.218   0.588  0.00  0.00    -0.084 Cl
ATOM     11  C   UNL     1      -3.723  -0.186  -0.670  0.00  0.00    -0.032 A 
ATOM     14  C   UNL     1      -4.448   0.947  -0.303  0.00  0.00    +0.025 A 
ATOM     15  C   UNL     1      -4.315  -1.447  -0.598  0.00  0.00    +0.005 A 
ATOM     18  C   UNL     1      -5.767   0.820   0.135  0.00  0.00    +0.041 A 
ATOM     19  C   UNL     1      -5.633  -1.574  -0.160  0.00  0.00    +0.002 A 
ATOM     22  C   UNL     1      -6.359  -0.441   0.206  0.00  0.00    +0.020 A 
ENDBRANCH   9  11
ENDBRANCH   3   9
TORSDOF 3
