REMARK  Name = 11865859
REMARK  13 active torsions:
REMARK  status: ('A' for Active; 'I' for Inactive)
REMARK    1  A    between atoms: N_6  and  C_12
REMARK    2  A    between atoms: N_7  and  C_19
REMARK    3  A    between atoms: N_8  and  C_29
REMARK    4  A    between atoms: C_11  and  C_16
REMARK    5  A    between atoms: C_15  and  C_17
REMARK    6  A    between atoms: C_17  and  C_18
REMARK    7  A    between atoms: C_18  and  C_20
REMARK    8  A    between atoms: C_18  and  C_21
REMARK    9  A    between atoms: C_18  and  C_22
REMARK   10  A    between atoms: C_19  and  C_24
REMARK   11  A    between atoms: C_19  and  C_26
REMARK   12  A    between atoms: C_24  and  C_25
REMARK   13  A    between atoms: C_29  and  C_33
REMARK                            x       y       z     vdW  Elec       q    Type
REMARK                         _______ _______ _______ _____ _____    ______ ____
ROOT
ATOM      1  O   UNL     1       3.665  -0.213  -1.518  0.00  0.00    -0.276 OA
ATOM      5  N   UNL     1       2.471  -1.142   0.234  0.00  0.00    -0.288 N 
ATOM     11  C   UNL     1       1.165  -0.624  -0.162  0.00  0.00    +0.182 C 
ATOM     12  C   UNL     1       0.156  -1.418   0.667  0.00  0.00    +0.105 C 
ATOM     13  C   UNL     1       0.946  -1.798   1.922  0.00  0.00    +0.043 C 
ATOM     14  C   UNL     1       2.366  -2.002   1.410  0.00  0.00    +0.110 C 
ATOM     15  C   UNL     1       3.611  -0.948  -0.530  0.00  0.00    +0.217 C 
ENDROOT
BRANCH  12   6
ATOM      3  O   UNL     1      -2.362  -2.791   0.988  0.00  0.00    -0.253 OA
ATOM      6  N   UNL     1      -0.292  -2.590  -0.046  0.00  0.00    -0.294 N 
ATOM      8  N   UNL     1      -1.706  -4.301  -0.647  0.00  0.00    -0.296 N 
ATOM     23  C   UNL     1      -1.530  -3.191   0.174  0.00  0.00    +0.300 C 
ATOM     37  H   UNL     1       0.351  -3.041  -0.690  0.00  0.00    +0.151 HD
ATOM     39  H   UNL     1      -0.972  -4.543  -1.305  0.00  0.00    +0.151 HD
BRANCH   8  29
ATOM     29  C   UNL     1      -2.902  -5.110  -0.624  0.00  0.00    +0.132 C 
BRANCH  29  33
ATOM     33  C   UNL     1      -3.881  -4.560  -1.606  0.00  0.00    -0.016 C 
ATOM     36  C   UNL     1      -5.111  -4.145  -1.281  0.00  0.00    +0.005 C 
ENDBRANCH  29  33
ENDBRANCH   8  29
ENDBRANCH  12   6
BRANCH  11  16
ATOM      2  O   UNL     1       1.788   1.262   1.163  0.00  0.00    -0.274 OA
ATOM      7  N   UNL     1       0.347   1.576  -0.638  0.00  0.00    -0.302 N 
ATOM     16  C   UNL     1       1.153   0.830   0.204  0.00  0.00    +0.236 C 
ATOM     38  H   UNL     1      -0.082   1.122  -1.440  0.00  0.00    +0.150 HD
BRANCH   7  19
ATOM     19  C   UNL     1       0.147   2.999  -0.486  0.00  0.00    +0.163 C 
BRANCH  19  26
ATOM      4  O   UNL     1       1.764   3.264  -2.280  0.00  0.00    -0.274 OA
ATOM     10  N   UNL     1       1.653   4.882  -0.654  0.00  0.00    -0.328 N 
ATOM     26  C   UNL     1       1.274   3.692  -1.238  0.00  0.00    +0.231 C 
ATOM     41  H   UNL     1       2.386   5.452  -1.062  0.00  0.00    +0.145 HD
ATOM     42  H   UNL     1       1.223   5.235   0.195  0.00  0.00    +0.145 HD
ENDBRANCH  19  26
BRANCH  19  24
ATOM     24  C   UNL     1      -1.216   3.455  -1.022  0.00  0.00    +0.069 C 
BRANCH  24  25
ATOM      9  N   UNL     1      -3.834   3.423   1.557  0.00  0.00    -0.360 N 
ATOM     25  C   UNL     1      -2.345   3.181  -0.071  0.00  0.00    -0.020 A 
ATOM     27  C   UNL     1      -3.137   2.000  -0.013  0.00  0.00    +0.003 A 
ATOM     28  C   UNL     1      -2.798   4.037   0.906  0.00  0.00    +0.087 A 
ATOM     30  C   UNL     1      -4.064   2.178   1.016  0.00  0.00    +0.047 A 
ATOM     31  C   UNL     1      -3.154   0.793  -0.740  0.00  0.00    +0.010 A 
ATOM     32  C   UNL     1      -5.010   1.205   1.357  0.00  0.00    +0.026 A 
ATOM     34  C   UNL     1      -4.096  -0.189  -0.411  0.00  0.00    +0.001 A 
ATOM     35  C   UNL     1      -5.009   0.016   0.622  0.00  0.00    +0.002 A 
ATOM     40  H   UNL     1      -4.356   3.825   2.324  0.00  0.00    +0.165 HD
ENDBRANCH  24  25
ENDBRANCH  19  24
ENDBRANCH   7  19
ENDBRANCH  11  16
BRANCH  15  17
ATOM     17  C   UNL     1       4.836  -1.699  -0.072  0.00  0.00    +0.102 C 
BRANCH  17  18
ATOM     18  C   UNL     1       5.991  -0.767   0.336  0.00  0.00    -0.029 C 
ATOM     20  C   UNL     1       5.489   0.133   1.481  0.00  0.00    +0.011 C 
ATOM     21  C   UNL     1       7.202  -1.570   0.840  0.00  0.00    +0.011 C 
ATOM     22  C   UNL     1       6.424   0.129  -0.837  0.00  0.00    +0.011 C 
ENDBRANCH  17  18
ENDBRANCH  15  17
TORSDOF 10
