REMARK  Name = 40777990
REMARK  9 active torsions:
REMARK  status: ('A' for Active; 'I' for Inactive)
REMARK    1  A    between atoms: O_2  and  C_10
REMARK    2  A    between atoms: O_3  and  C_11
REMARK    3  A    between atoms: N_7  and  C_20
REMARK    4  A    between atoms: N_8  and  C_14
REMARK    5  A    between atoms: C_9  and  C_13
REMARK    6  A    between atoms: C_12  and  C_14
REMARK    7  A    between atoms: C_13  and  C_15
REMARK    8  A    between atoms: C_21  and  C_24
REMARK    9  A    between atoms: C_32  and  C_33
REMARK                            x       y       z     vdW  Elec       q    Type
REMARK                         _______ _______ _______ _____ _____    ______ ____
ROOT
ATOM      1  O   UNL     1      -3.808   0.830   0.890  0.00  0.00    -0.366 OA
ATOM      9  C   UNL     1      -3.436   1.827  -0.089  0.00  0.00    +0.159 C 
ATOM     10  C   UNL     1      -4.424   1.687  -1.242  0.00  0.00    +0.175 C 
ATOM     11  C   UNL     1      -4.794   0.220  -1.164  0.00  0.00    +0.176 C 
ATOM     12  C   UNL     1      -4.845  -0.001   0.339  0.00  0.00    +0.167 C 
ENDROOT
BRANCH  10   2
ATOM      2  O   UNL     1      -5.561   2.500  -0.953  0.00  0.00    -0.387 OA
ATOM     34  H   UNL     1      -5.271   3.428  -0.990  0.00  0.00    +0.210 HD
ENDBRANCH  10   2
BRANCH  11   3
ATOM      3  O   UNL     1      -6.025  -0.080  -1.786  0.00  0.00    -0.387 OA
ATOM     35  H   UNL     1      -5.960   0.203  -2.713  0.00  0.00    +0.210 HD
ENDBRANCH  11   3
BRANCH   9  13
ATOM     13  C   UNL     1      -1.995   1.559  -0.503  0.00  0.00    +0.130 C 
BRANCH  13  15
ATOM      4  O   UNL     1      -1.506   2.619   1.565  0.00  0.00    -0.276 OA
ATOM      6  N   UNL     1       0.307   1.851   0.332  0.00  0.00    -0.298 N 
ATOM      7  N   UNL     1       3.131   1.278   0.056  0.00  0.00    -0.327 N 
ATOM     15  C   UNL     1      -1.053   2.060   0.564  0.00  0.00    +0.218 C 
ATOM     16  C   UNL     1       0.845   1.186  -0.858  0.00  0.00    +0.126 C 
ATOM     17  C   UNL     1       1.284   2.302   1.321  0.00  0.00    +0.126 C 
ATOM     18  C   UNL     1       2.307   1.543  -1.126  0.00  0.00    +0.124 C 
ATOM     19  C   UNL     1       2.504   1.386   1.376  0.00  0.00    +0.124 C 
BRANCH   7  20
ATOM     20  C   UNL     1       4.484   0.968  -0.066  0.00  0.00    +0.030 A 
ATOM     22  C   UNL     1       5.224   1.480  -1.132  0.00  0.00    +0.023 A 
ATOM     23  C   UNL     1       5.098   0.145   0.878  0.00  0.00    +0.023 A 
ATOM     25  C   UNL     1       6.578   1.169  -1.254  0.00  0.00    +0.002 A 
ATOM     26  C   UNL     1       6.452  -0.166   0.756  0.00  0.00    +0.002 A 
ATOM     27  C   UNL     1       7.192   0.346  -0.310  0.00  0.00    +0.000 A 
ENDBRANCH   7  20
ENDBRANCH  13  15
ENDBRANCH   9  13
BRANCH  12  14
ATOM     14  C   UNL     1      -4.611  -1.446   0.743  0.00  0.00    +0.138 C 
BRANCH  14   8
ATOM      5  O   UNL     1      -2.142  -1.289   2.201  0.00  0.00    -0.270 OA
ATOM      8  N   UNL     1      -3.326  -1.905   0.303  0.00  0.00    -0.309 N 
ATOM     21  C   UNL     1      -2.176  -1.788   1.079  0.00  0.00    +0.244 C 
ATOM     36  H   UNL     1      -3.292  -2.378  -0.594  0.00  0.00    +0.149 HD
BRANCH  21  24
ATOM     24  C   UNL     1      -0.918  -2.289   0.469  0.00  0.00    +0.037 A 
ATOM     28  C   UNL     1       0.121  -2.740   1.283  0.00  0.00    +0.013 A 
ATOM     29  C   UNL     1      -0.774  -2.308  -0.919  0.00  0.00    +0.013 A 
ATOM     30  C   UNL     1       1.303  -3.209   0.710  0.00  0.00    +0.004 A 
ATOM     31  C   UNL     1       0.407  -2.777  -1.492  0.00  0.00    +0.004 A 
ATOM     32  C   UNL     1       1.446  -3.228  -0.677  0.00  0.00    -0.050 A 
ATOM     33  C   UNL     1       2.710  -3.730  -1.290  0.00  0.00    +0.044 C 
ENDBRANCH  21  24
ENDBRANCH  14   8
ENDBRANCH  12  14
TORSDOF 8
