REMARK  Name = 45361700
REMARK  10 active torsions:
REMARK  status: ('A' for Active; 'I' for Inactive)
REMARK    1  A    between atoms: N_7  and  C_21
REMARK    2  A    between atoms: N_9  and  C_37
REMARK    3  A    between atoms: N_9  and  C_38
REMARK    4  A    between atoms: N_9  and  C_39
REMARK    5  A    between atoms: C_10  and  C_14
REMARK    6  A    between atoms: C_13  and  C_22
REMARK    7  A    between atoms: C_14  and  C_21
REMARK    8  A    between atoms: C_17  and  C_29
REMARK    9  A    between atoms: C_21  and  C_30
REMARK   10  A    between atoms: C_31  and  C_32
REMARK                            x       y       z     vdW  Elec       q    Type
REMARK                         _______ _______ _______ _____ _____    ______ ____
ROOT
ATOM      1  O   UNL     1       3.034   0.974   2.211  0.00  0.00    -0.275 OA
ATOM      4  O   UNL     1      -2.848  -2.508   1.880  0.00  0.00    -0.270 OA
ATOM      5  N   UNL     1       0.832   0.718   1.502  0.00  0.00    -0.287 N 
ATOM      6  N   UNL     1      -1.732  -0.455   1.871  0.00  0.00    -0.294 N 
ATOM     17  C   UNL     1       0.725  -0.635   2.069  0.00  0.00    +0.179 C 
ATOM     22  C   UNL     1       2.061   1.383   1.573  0.00  0.00    +0.219 C 
ATOM     26  C   UNL     1      -0.632  -0.915   2.715  0.00  0.00    +0.140 C 
ATOM     27  C   UNL     1      -0.331   1.207   0.739  0.00  0.00    +0.127 C 
ATOM     28  C   UNL     1      -1.638   0.954   1.481  0.00  0.00    +0.127 C 
ATOM     31  C   UNL     1      -2.775  -1.325   1.549  0.00  0.00    +0.247 C 
ENDROOT
BRANCH  22  13
ATOM     13  C   UNL     1       2.171   2.673   0.818  0.00  0.00    +0.075 C 
ATOM     19  C   UNL     1       3.611   2.853   0.335  0.00  0.00    +0.013 C 
ATOM     20  C   UNL     1       1.728   3.835   1.708  0.00  0.00    +0.013 C 
ATOM     23  C   UNL     1       3.806   4.199  -0.358  0.00  0.00    +0.001 C 
ATOM     24  C   UNL     1       1.923   5.179   1.010  0.00  0.00    +0.001 C 
ATOM     25  C   UNL     1       3.361   5.359   0.529  0.00  0.00    +0.000 C 
ENDBRANCH  22  13
BRANCH  31  32
ATOM     32  C   UNL     1      -3.880  -0.809   0.732  0.00  0.00    +0.037 A 
ATOM     33  C   UNL     1      -3.819  -0.895  -0.659  0.00  0.00    +0.015 A 
ATOM     34  C   UNL     1      -4.991  -0.232   1.347  0.00  0.00    +0.015 A 
ATOM     35  C   UNL     1      -4.868  -0.404  -1.435  0.00  0.00    +0.024 A 
ATOM     36  C   UNL     1      -6.041   0.260   0.570  0.00  0.00    +0.024 A 
ATOM     37  C   UNL     1      -5.979   0.174  -0.821  0.00  0.00    +0.029 A 
BRANCH  37   9
ATOM      9  N   UNL     1      -7.041   0.670  -1.605  0.00  0.00    -0.336 N 
ATOM     38  C   UNL     1      -8.203   1.266  -0.975  0.00  0.00    +0.129 C 
ATOM     39  C   UNL     1      -6.988   0.586  -3.050  0.00  0.00    +0.129 C 
ENDBRANCH  37   9
ENDBRANCH  31  32
BRANCH  17  29
ATOM      2  O   UNL     1       0.111  -2.062   0.253  0.00  0.00    -0.274 OA
ATOM      7  N   UNL     1       2.360  -1.865   0.821  0.00  0.00    -0.302 N 
ATOM     29  C   UNL     1       1.009  -1.589   0.945  0.00  0.00    +0.236 C 
ATOM     40  H   UNL     1       3.018  -1.435   1.465  0.00  0.00    +0.150 HD
BRANCH   7  21
ATOM     21  C   UNL     1       2.894  -2.771  -0.170  0.00  0.00    +0.159 C 
BRANCH  21  30
ATOM      3  O   UNL     1       4.127  -3.866   1.615  0.00  0.00    -0.274 OA
ATOM      8  N   UNL     1       3.395  -5.139  -0.151  0.00  0.00    -0.328 N 
ATOM     30  C   UNL     1       3.530  -3.956   0.545  0.00  0.00    +0.231 C 
ATOM     41  H   UNL     1       3.782  -6.003   0.213  0.00  0.00    +0.145 HD
ATOM     42  H   UNL     1       2.917  -5.196  -1.044  0.00  0.00    +0.145 HD
ENDBRANCH  21  30
BRANCH  21  14
ATOM     14  C   UNL     1       3.859  -2.072  -1.133  0.00  0.00    +0.035 C 
BRANCH  14  10
ATOM     10  C   UNL     1       3.264  -0.858  -1.844  0.00  0.00    -0.009 C 
ATOM     11  C   UNL     1       2.018  -1.255  -2.645  0.00  0.00    +0.003 C 
ATOM     12  C   UNL     1       4.309  -0.196  -2.752  0.00  0.00    +0.003 C 
ATOM     15  C   UNL     1       1.435  -0.067  -3.408  0.00  0.00    +0.000 C 
ATOM     16  C   UNL     1       3.723   0.991  -3.514  0.00  0.00    +0.000 C 
ATOM     18  C   UNL     1       2.479   0.594  -4.303  0.00  0.00    +0.000 C 
ENDBRANCH  14  10
ENDBRANCH  21  14
ENDBRANCH   7  21
ENDBRANCH  17  29
TORSDOF 8
