REMARK  Name = 38028932
REMARK  9 active torsions:
REMARK  status: ('A' for Active; 'I' for Inactive)
REMARK    1  A    between atoms: N_4  and  C_16
REMARK    2  A    between atoms: C_8  and  C_12
REMARK    3  A    between atoms: C_9  and  C_16
REMARK    4  A    between atoms: C_11  and  C_15
REMARK    5  A    between atoms: C_12  and  C_17
REMARK    6  A    between atoms: C_12  and  C_18
REMARK    7  A    between atoms: C_13  and  C_19
REMARK    8  A    between atoms: C_15  and  C_20
REMARK    9  A    between atoms: C_25  and  C_27
REMARK                            x       y       z     vdW  Elec       q    Type
REMARK                         _______ _______ _______ _____ _____    ______ ____
ROOT
ATOM      8  C   UNL     1      -3.383   1.246   0.851  0.00  0.00    +0.000 C 
ATOM      9  C   UNL     1      -4.538   0.831  -0.095  0.00  0.00    +0.032 C 
ATOM     10  C   UNL     1      -2.714   2.534   0.348  0.00  0.00    +0.012 C 
ATOM     11  C   UNL     1      -2.147   2.379  -1.075  0.00  0.00    +0.023 C 
ATOM     13  C   UNL     1      -3.144   1.725  -2.010  0.00  0.00    -0.073 C 
ATOM     14  C   UNL     1      -4.213   1.049  -1.555  0.00  0.00    -0.022 C 
ATOM     19  C   UNL     1      -2.908   1.905  -3.484  0.00  0.00    +0.039 C 
ENDROOT
BRANCH   8  12
ATOM     12  C   UNL     1      -3.870   1.441   2.290  0.00  0.00    -0.013 C 
ATOM     17  C   UNL     1      -4.499   2.820   2.457  0.00  0.00    +0.007 C 
ATOM     18  C   UNL     1      -2.718   1.250   3.272  0.00  0.00    +0.007 C 
ENDBRANCH   8  12
BRANCH  11  15
ATOM     15  C   UNL     1      -0.822   1.610  -1.061  0.00  0.00    +0.103 C 
BRANCH  15  20
ATOM      1  O   UNL     1       0.028   3.661  -0.218  0.00  0.00    -0.276 OA
ATOM      3  N   UNL     1       1.551   1.922  -0.462  0.00  0.00    -0.298 N 
ATOM      5  N   UNL     1       4.175   0.769  -0.053  0.00  0.00    -0.312 N 
ATOM      6  N   UNL     1       6.102  -0.321  -0.874  0.00  0.00    -0.240 NA
ATOM     20  C   UNL     1       0.282   2.498  -0.540  0.00  0.00    +0.216 C 
ATOM     21  C   UNL     1       1.849   0.537  -0.834  0.00  0.00    +0.126 C 
ATOM     22  C   UNL     1       2.673   2.719   0.028  0.00  0.00    +0.126 C 
ATOM     23  C   UNL     1       3.326   0.316  -1.159  0.00  0.00    +0.125 C 
ATOM     24  C   UNL     1       3.689   1.868   0.787  0.00  0.00    +0.125 C 
ATOM     26  C   UNL     1       5.425   0.199   0.174  0.00  0.00    +0.121 A 
ATOM     28  C   UNL     1       5.896   0.202   1.477  0.00  0.00    +0.043 A 
ATOM     31  C   UNL     1       7.142  -0.365   1.720  0.00  0.00    +0.005 A 
ATOM     32  C   UNL     1       7.310  -0.863  -0.599  0.00  0.00    +0.113 A 
ATOM     33  C   UNL     1       7.869  -0.909   0.667  0.00  0.00    +0.020 A 
ENDBRANCH  15  20
ENDBRANCH  11  15
BRANCH   9  16
ATOM     16  C   UNL     1      -4.937  -0.632   0.126  0.00  0.00    +0.112 C 
BRANCH  16   4
ATOM      2  O   UNL     1      -3.583  -2.509   1.826  0.00  0.00    -0.270 OA
ATOM      4  N   UNL     1      -3.873  -1.510  -0.249  0.00  0.00    -0.311 N 
ATOM     25  C   UNL     1      -3.269  -2.395   0.644  0.00  0.00    +0.244 C 
ATOM     36  H   UNL     1      -3.619  -1.537  -1.231  0.00  0.00    +0.149 HD
BRANCH  25  27
ATOM      7  N   UNL     1      -0.067  -4.776  -0.907  0.00  0.00    -0.263 NA
ATOM     27  C   UNL     1      -2.159  -3.222   0.104  0.00  0.00    +0.040 A 
ATOM     29  C   UNL     1      -1.872  -4.460   0.670  0.00  0.00    +0.033 A 
ATOM     30  C   UNL     1      -1.401  -2.760  -0.966  0.00  0.00    +0.033 A 
ATOM     34  C   UNL     1      -0.825  -5.191   0.132  0.00  0.00    +0.111 A 
ATOM     35  C   UNL     1      -0.375  -3.568  -1.431  0.00  0.00    +0.111 A 
ENDBRANCH  25  27
ENDBRANCH  16   4
ENDBRANCH   9  16
TORSDOF 6
