REMARK  Name = 75536399
REMARK  12 active torsions:
REMARK  status: ('A' for Active; 'I' for Inactive)
REMARK    1  A    between atoms: O_2  and  C_9
REMARK    2  A    between atoms: O_4  and  C_27
REMARK    3  A    between atoms: O_4  and  C_31
REMARK    4  A    between atoms: O_5  and  C_30
REMARK    5  A    between atoms: O_5  and  C_32
REMARK    6  A    between atoms: N_6  and  C_13
REMARK    7  A    between atoms: N_6  and  C_16
REMARK    8  A    between atoms: C_8  and  C_13
REMARK    9  A    between atoms: C_10  and  C_14
REMARK   10  A    between atoms: C_14  and  C_15
REMARK   11  A    between atoms: C_16  and  C_18
REMARK   12  A    between atoms: C_19  and  C_20
REMARK                            x       y       z     vdW  Elec       q    Type
REMARK                         _______ _______ _______ _____ _____    ______ ____
ROOT
ATOM      1  O   UNL     1       3.635  -0.216   0.958  0.00  0.00    -0.369 OA
ATOM      8  C   UNL     1       4.175   1.111   0.923  0.00  0.00    +0.161 C 
ATOM      9  C   UNL     1       5.699   1.089   0.749  0.00  0.00    +0.145 C 
ATOM     10  C   UNL     1       3.959  -1.034  -0.168  0.00  0.00    +0.125 C 
ATOM     11  C   UNL     1       6.139   0.189  -0.403  0.00  0.00    +0.036 C 
ATOM     12  C   UNL     1       5.473  -1.181  -0.310  0.00  0.00    +0.034 C 
ENDROOT
BRANCH   9   2
ATOM      2  O   UNL     1       6.293   0.585   1.948  0.00  0.00    -0.389 OA
ATOM     34  H   UNL     1       7.258   0.623   1.836  0.00  0.00    +0.210 HD
ENDBRANCH   9   2
BRANCH   8  13
ATOM     13  C   UNL     1       3.467   1.967  -0.126  0.00  0.00    +0.115 C 
BRANCH  13   6
ATOM      6  N   UNL     1       2.030   1.975   0.097  0.00  0.00    -0.309 NA
ATOM     33  H   UNL     1       1.724   1.038   0.361  0.00  0.00    +0.122 HD
BRANCH   6  16
ATOM     16  C   UNL     1       1.317   2.379  -1.109  0.00  0.00    +0.116 C 
BRANCH  16  18
ATOM     18  C   UNL     1      -0.173   2.407  -0.896  0.00  0.00    -0.033 A 
ATOM     21  C   UNL     1      -1.007   1.616  -1.687  0.00  0.00    +0.008 A 
ATOM     22  C   UNL     1      -0.720   3.224   0.093  0.00  0.00    +0.008 A 
ATOM     23  C   UNL     1      -2.387   1.643  -1.489  0.00  0.00    +0.046 A 
ATOM     24  C   UNL     1      -2.101   3.251   0.291  0.00  0.00    +0.046 A 
ATOM     27  C   UNL     1      -2.934   2.460  -0.500  0.00  0.00    +0.120 A 
BRANCH  27   4
ATOM      4  O   UNL     1      -4.281   2.486  -0.306  0.00  0.00    -0.495 OA
ATOM     31  C   UNL     1      -4.773   3.344   0.722  0.00  0.00    +0.277 C 
ENDBRANCH  27   4
ENDBRANCH  16  18
ENDBRANCH   6  16
ENDBRANCH  13   6
ENDBRANCH   8  13
BRANCH  10  14
ATOM     14  C   UNL     1       3.300  -2.392   0.047  0.00  0.00    +0.090 C 
BRANCH  14  15
ATOM      3  O   UNL     1       0.018  -2.497  -1.440  0.00  0.00    -0.354 OA
ATOM      7  N   UNL     1       1.401  -2.619  -1.502  0.00  0.00    -0.083 NA
ATOM     15  C   UNL     1       1.828  -2.353  -0.265  0.00  0.00    +0.087 A 
ATOM     17  C   UNL     1       0.771  -2.058   0.613  0.00  0.00    +0.076 A 
ATOM     19  C   UNL     1      -0.345  -2.163  -0.175  0.00  0.00    +0.167 A 
BRANCH  19  20
ATOM     20  C   UNL     1      -1.753  -2.002   0.046  0.00  0.00    +0.020 A 
ATOM     25  C   UNL     1      -2.209  -1.111   1.017  0.00  0.00    +0.015 A 
ATOM     26  C   UNL     1      -2.666  -2.736  -0.711  0.00  0.00    +0.015 A 
ATOM     28  C   UNL     1      -3.579  -0.955   1.232  0.00  0.00    +0.046 A 
ATOM     29  C   UNL     1      -4.035  -2.580  -0.496  0.00  0.00    +0.046 A 
ATOM     30  C   UNL     1      -4.492  -1.689   0.475  0.00  0.00    +0.120 A 
BRANCH  30   5
ATOM      5  O   UNL     1      -5.828  -1.535   0.682  0.00  0.00    -0.495 OA
ATOM     32  C   UNL     1      -6.225  -0.605   1.689  0.00  0.00    +0.277 C 
ENDBRANCH  30   5
ENDBRANCH  19  20
ENDBRANCH  14  15
ENDBRANCH  10  14
TORSDOF 10
