REMARK  Name = 9424612
REMARK  6 active torsions:
REMARK  status: ('A' for Active; 'I' for Inactive)
REMARK    1  A    between atoms: O_4  and  C_29
REMARK    2  A    between atoms: O_4  and  C_34
REMARK    3  A    between atoms: N_5  and  C_14
REMARK    4  A    between atoms: N_8  and  C_21
REMARK    5  A    between atoms: C_25  and  C_26
REMARK    6  A    between atoms: C_27  and  C_28
REMARK                            x       y       z     vdW  Elec       q    Type
REMARK                         _______ _______ _______ _____ _____    ______ ____
ROOT
ATOM      1  O   UNL     1       1.216   4.087  -2.491  0.00  0.00    -0.268 OA
ATOM      5  N   UNL     1       2.268   0.699   1.058  0.00  0.00    -0.298 NA
ATOM      6  N   UNL     1       0.681   2.998  -0.487  0.00  0.00    -0.310 N 
ATOM      9  C   UNL     1       2.177   3.147   1.589  0.00  0.00    +0.024 C 
ATOM     10  C   UNL     1       0.122   1.821   1.663  0.00  0.00    +0.052 C 
ATOM     11  C   UNL     1       0.877   2.955   2.352  0.00  0.00    +0.017 C 
ATOM     12  C   UNL     1       3.004   1.845   1.607  0.00  0.00    +0.090 C 
ATOM     13  C   UNL     1       0.968   0.528   1.723  0.00  0.00    +0.094 C 
ATOM     15  C   UNL     1       1.841   3.616   0.171  0.00  0.00    +0.130 C 
ATOM     16  C   UNL     1      -0.214   2.170   0.214  0.00  0.00    +0.047 A 
ATOM     21  C   UNL     1      -1.313   1.691  -0.411  0.00  0.00    +0.054 A 
ATOM     22  C   UNL     1       0.477   3.355  -1.833  0.00  0.00    +0.252 A 
ATOM     23  C   UNL     1      -1.571   2.030  -1.790  0.00  0.00    +0.030 A 
ATOM     24  C   UNL     1      -0.737   2.806  -2.486  0.00  0.00    +0.072 A 
ENDROOT
BRANCH   5  14
ATOM      2  O   UNL     1       6.159  -3.174  -1.683  0.00  0.00    -0.276 OA
ATOM      7  N   UNL     1       4.489  -2.691  -0.141  0.00  0.00    -0.302 N 
ATOM     14  C   UNL     1       3.064  -0.524   1.144  0.00  0.00    +0.060 C 
ATOM     17  C   UNL     1       2.322  -1.683   0.467  0.00  0.00    +0.038 C 
ATOM     18  C   UNL     1       4.434  -0.308   0.488  0.00  0.00    +0.038 C 
ATOM     19  C   UNL     1       3.175  -2.951   0.461  0.00  0.00    +0.109 C 
ATOM     20  C   UNL     1       5.245  -1.602   0.482  0.00  0.00    +0.109 C 
ATOM     25  C   UNL     1       5.051  -3.412  -1.194  0.00  0.00    +0.212 C 
ATOM     26  C   UNL     1       4.229  -4.546  -1.751  0.00  0.00    +0.109 C 
ENDBRANCH   5  14
BRANCH  21   8
ATOM      3  O   UNL     1      -2.824  -0.353  -1.709  0.00  0.00    -0.270 OA
ATOM      8  N   UNL     1      -2.223   0.859   0.183  0.00  0.00    -0.280 N 
ATOM     27  C   UNL     1      -2.925  -0.116  -0.508  0.00  0.00    +0.252 C 
ATOM     35  H   UNL     1      -2.271   0.888   1.193  0.00  0.00    +0.155 HD
BRANCH  27  28
ATOM     28  C   UNL     1      -3.852  -0.939   0.311  0.00  0.00    +0.079 A 
ATOM     29  C   UNL     1      -4.994  -1.461  -0.261  0.00  0.00    +0.132 A 
ATOM     30  C   UNL     1      -3.531  -1.153   1.637  0.00  0.00    +0.017 A 
ATOM     31  C   UNL     1      -5.852  -2.230   0.525  0.00  0.00    +0.046 A 
ATOM     32  C   UNL     1      -4.389  -1.922   2.423  0.00  0.00    +0.001 A 
ATOM     33  C   UNL     1      -5.550  -2.460   1.867  0.00  0.00    +0.004 A 
BRANCH  29   4
ATOM      4  O   UNL     1      -5.308  -1.246  -1.570  0.00  0.00    -0.494 OA
ATOM     34  C   UNL     1      -6.514  -1.835  -2.052  0.00  0.00    +0.277 C 
ENDBRANCH  29   4
ENDBRANCH  27  28
ENDBRANCH  21   8
TORSDOF 4
