REMARK  Name = 75536060
REMARK  8 active torsions:
REMARK  status: ('A' for Active; 'I' for Inactive)
REMARK    1  A    between atoms: O_1  and  C_9
REMARK    2  A    between atoms: O_2  and  C_11
REMARK    3  A    between atoms: O_4  and  C_21
REMARK    4  A    between atoms: O_4  and  C_25
REMARK    5  A    between atoms: N_5  and  C_8
REMARK    6  A    between atoms: C_7  and  C_12
REMARK    7  A    between atoms: C_13  and  C_17
REMARK    8  A    between atoms: C_15  and  C_20
REMARK                            x       y       z     vdW  Elec       q    Type
REMARK                         _______ _______ _______ _____ _____    ______ ____
ROOT
ATOM      3  O   UNL     1       0.146  -0.232   1.270  0.00  0.00    -0.270 OA
ATOM      5  N   UNL     1       1.418  -1.571  -0.132  0.00  0.00    -0.305 N 
ATOM     15  C   UNL     1       0.233  -1.141   0.449  0.00  0.00    +0.250 C 
ATOM     31  H   UNL     1       1.396  -2.269  -0.869  0.00  0.00    +0.149 HD
ENDROOT
BRANCH  15  20
ATOM      6  N   UNL     1      -3.380  -1.887  -0.351  0.00  0.00    -0.220 NA
ATOM     20  C   UNL     1      -0.995  -1.872   0.043  0.00  0.00    +0.098 A 
ATOM     21  C   UNL     1      -2.238  -1.261   0.011  0.00  0.00    +0.233 A 
ATOM     22  C   UNL     1      -0.919  -3.212  -0.319  0.00  0.00    +0.020 A 
ATOM     23  C   UNL     1      -2.072  -3.891  -0.697  0.00  0.00    +0.021 A 
ATOM     24  C   UNL     1      -3.267  -3.189  -0.696  0.00  0.00    +0.114 A 
BRANCH  21   4
ATOM      4  O   UNL     1      -2.357   0.060   0.359  0.00  0.00    -0.437 OA
BRANCH   4  25
ATOM     25  C   UNL     1      -3.618   0.618   0.307  0.00  0.00    +0.130 A 
ATOM     26  C   UNL     1      -4.444   0.580   1.431  0.00  0.00    +0.046 A 
ATOM     27  C   UNL     1      -4.067   1.220  -0.868  0.00  0.00    +0.046 A 
ATOM     28  C   UNL     1      -5.718   1.144   1.379  0.00  0.00    +0.004 A 
ATOM     29  C   UNL     1      -5.341   1.784  -0.920  0.00  0.00    +0.004 A 
ATOM     30  C   UNL     1      -6.167   1.746   0.204  0.00  0.00    +0.000 A 
ENDBRANCH   4  25
ENDBRANCH  21   4
ENDBRANCH  15  20
BRANCH   5   8
ATOM      7  C   UNL     1       3.068   0.147  -0.812  0.00  0.00    +0.045 C 
ATOM      8  C   UNL     1       2.695  -0.979   0.179  0.00  0.00    +0.112 C 
ATOM      9  C   UNL     1       3.840  -1.979   0.028  0.00  0.00    +0.164 C 
ATOM     10  C   UNL     1       4.602   0.044  -1.010  0.00  0.00    +0.044 C 
ATOM     11  C   UNL     1       5.067  -1.084  -0.092  0.00  0.00    +0.145 C 
BRANCH   7  12
ATOM     12  C   UNL     1       2.586   1.512  -0.366  0.00  0.00    -0.039 A 
ATOM     13  C   UNL     1       1.708   2.256  -1.154  0.00  0.00    -0.047 A 
ATOM     14  C   UNL     1       3.033   2.022   0.853  0.00  0.00    +0.004 A 
ATOM     16  C   UNL     1       1.278   3.511  -0.724  0.00  0.00    +0.003 A 
ATOM     17  C   UNL     1       1.216   1.730  -2.462  0.00  0.00    +0.044 C 
ATOM     18  C   UNL     1       2.603   3.278   1.283  0.00  0.00    +0.000 A 
ATOM     19  C   UNL     1       1.725   4.022   0.495  0.00  0.00    +0.000 A 
ENDBRANCH   7  12
BRANCH   9   1
ATOM      1  O   UNL     1       3.945  -2.846   1.142  0.00  0.00    -0.387 OA
ATOM     32  H   UNL     1       4.746  -3.384   1.018  0.00  0.00    +0.210 HD
ENDBRANCH   9   1
BRANCH  11   2
ATOM      2  O   UNL     1       5.419  -0.529   1.172  0.00  0.00    -0.389 OA
ATOM     33  H   UNL     1       6.180   0.060   1.030  0.00  0.00    +0.210 HD
ENDBRANCH  11   2
ENDBRANCH   5   8
TORSDOF 7
