REMARK  Name = 75536835
REMARK  9 active torsions:
REMARK  status: ('A' for Active; 'I' for Inactive)
REMARK    1  A    between atoms: O_2  and  C_10
REMARK    2  A    between atoms: N_4  and  C_8
REMARK    3  A    between atoms: N_4  and  C_9
REMARK    4  A    between atoms: N_5  and  C_18
REMARK    5  A    between atoms: N_6  and  C_17
REMARK    6  A    between atoms: N_7  and  C_20
REMARK    7  A    between atoms: C_11  and  C_17
REMARK    8  A    between atoms: C_20  and  C_21
REMARK    9  A    between atoms: C_20  and  C_22
REMARK                            x       y       z     vdW  Elec       q    Type
REMARK                         _______ _______ _______ _____ _____    ______ ____
ROOT
ATOM      1  O   UNL     1       0.720   0.165  -1.266  0.00  0.00    -0.371 OA
ATOM      8  C   UNL     1      -1.266  -0.456  -0.120  0.00  0.00    +0.111 C 
ATOM     10  C   UNL     1      -0.161  -1.431   0.240  0.00  0.00    +0.164 C 
ATOM     11  C   UNL     1       1.076  -0.618  -0.115  0.00  0.00    +0.165 C 
ATOM     14  C   UNL     1      -0.713   0.169  -1.391  0.00  0.00    +0.181 C 
ENDROOT
BRANCH  10   2
ATOM      2  O   UNL     1      -0.178  -1.796   1.607  0.00  0.00    -0.388 OA
ATOM     24  H   UNL     1      -0.125  -0.985   2.140  0.00  0.00    +0.210 HD
ENDBRANCH  10   2
BRANCH   8   4
ATOM      4  N   UNL     1      -2.561  -1.087  -0.316  0.00  0.00    -0.306 NA
ATOM     23  H   UNL     1      -2.730  -1.778   0.414  0.00  0.00    +0.123 HD
BRANCH   4   9
ATOM      5  N   UNL     1      -6.343   0.696   0.446  0.00  0.00    -0.305 NA
ATOM      9  C   UNL     1      -3.629  -0.090  -0.317  0.00  0.00    +0.056 C 
ATOM     12  C   UNL     1      -3.995   0.295   1.119  0.00  0.00    +0.034 C 
ATOM     13  C   UNL     1      -4.868  -0.615  -1.048  0.00  0.00    +0.034 C 
ATOM     15  C   UNL     1      -5.181   1.264   1.142  0.00  0.00    +0.085 C 
ATOM     16  C   UNL     1      -6.025   0.383  -0.955  0.00  0.00    +0.085 C 
ATOM     18  C   UNL     1      -7.482   1.611   0.520  0.00  0.00    +0.104 C 
ENDBRANCH   4   9
ENDBRANCH   8   4
BRANCH  11  17
ATOM     17  C   UNL     1       2.288  -1.476  -0.432  0.00  0.00    +0.140 C 
BRANCH  17   6
ATOM      3  O   UNL     1       4.282  -0.451   1.385  0.00  0.00    -0.253 OA
ATOM      6  N   UNL     1       3.426  -0.668  -0.764  0.00  0.00    -0.297 N 
ATOM      7  N   UNL     1       5.354   0.551  -0.413  0.00  0.00    -0.297 N 
ATOM     19  C   UNL     1       4.350  -0.210   0.180  0.00  0.00    +0.300 C 
ATOM     25  H   UNL     1       3.560  -0.403  -1.735  0.00  0.00    +0.150 HD
ATOM     26  H   UNL     1       5.365   0.630  -1.425  0.00  0.00    +0.150 HD
BRANCH   7  20
ATOM     20  C   UNL     1       6.434   1.144   0.340  0.00  0.00    +0.068 C 
ATOM     21  C   UNL     1       7.598   0.168   0.465  0.00  0.00    +0.027 C 
ATOM     22  C   UNL     1       6.876   2.450  -0.307  0.00  0.00    +0.027 C 
ENDBRANCH   7  20
ENDBRANCH  17   6
ENDBRANCH  11  17
TORSDOF 6
