REMARK  Name = 11885339
REMARK  7 active torsions:
REMARK  status: ('A' for Active; 'I' for Inactive)
REMARK    1  A    between atoms: N_2  and  C_12
REMARK    2  A    between atoms: N_4  and  C_25
REMARK    3  A    between atoms: N_4  and  C_30
REMARK    4  A    between atoms: N_4  and  C_31
REMARK    5  A    between atoms: C_12  and  C_17
REMARK    6  A    between atoms: C_15  and  C_18
REMARK    7  A    between atoms: C_21  and  C_25
REMARK                            x       y       z     vdW  Elec       q    Type
REMARK                         _______ _______ _______ _____ _____    ______ ____
ROOT
ATOM      1  O   UNL     1      -1.715  -2.134   1.566  0.00  0.00    -0.267 OA
ATOM      2  N   UNL     1       3.064  -0.926   0.646  0.00  0.00    -0.297 NA
ATOM      3  N   UNL     1       0.162  -2.164   0.183  0.00  0.00    -0.311 N 
ATOM      5  C   UNL     1       2.351  -3.321   0.845  0.00  0.00    +0.024 C 
ATOM      6  C   UNL     1       2.181  -2.190  -1.320  0.00  0.00    +0.050 C 
ATOM      7  C   UNL     1       2.528  -3.519  -0.655  0.00  0.00    +0.017 C 
ATOM      8  C   UNL     1       3.285  -2.198   1.344  0.00  0.00    +0.090 C 
ATOM      9  C   UNL     1       3.144  -1.092  -0.813  0.00  0.00    +0.094 C 
ATOM     10  C   UNL     1       0.872  -3.031   1.135  0.00  0.00    +0.130 C 
ATOM     11  C   UNL     1       0.741  -1.804  -1.036  0.00  0.00    +0.026 A 
ATOM     13  C   UNL     1       0.033  -1.107  -1.939  0.00  0.00    +0.022 A 
ATOM     14  C   UNL     1      -1.159  -1.807   0.516  0.00  0.00    +0.259 A 
ATOM     15  C   UNL     1      -1.916  -0.995  -0.501  0.00  0.00    +0.047 A 
ATOM     16  C   UNL     1      -1.313  -0.694  -1.661  0.00  0.00    +0.015 A 
ENDROOT
BRANCH  15  18
ATOM     18  C   UNL     1      -3.289  -0.529  -0.238  0.00  0.00    -0.008 A 
ATOM     21  C   UNL     1      -3.535   0.700   0.378  0.00  0.00    -0.026 A 
ATOM     22  C   UNL     1      -4.360  -1.342  -0.616  0.00  0.00    +0.009 A 
ATOM     26  C   UNL     1      -4.846   1.115   0.614  0.00  0.00    +0.005 A 
ATOM     28  C   UNL     1      -5.671  -0.927  -0.379  0.00  0.00    +0.001 A 
ATOM     29  C   UNL     1      -5.914   0.301   0.236  0.00  0.00    +0.000 A 
BRANCH  21  25
ATOM     25  C   UNL     1      -2.416   1.598   0.797  0.00  0.00    +0.119 C 
BRANCH  25   4
ATOM      4  N   UNL     1      -2.655   2.992   0.426  0.00  0.00    -0.304 NA
ATOM     30  C   UNL     1      -2.800   3.117  -1.024  0.00  0.00    +0.104 C 
ATOM     31  C   UNL     1      -1.567   3.843   0.906  0.00  0.00    +0.104 C 
ENDBRANCH  25   4
ENDBRANCH  21  25
ENDBRANCH  15  18
BRANCH   2  12
ATOM     12  C   UNL     1       4.001   0.095   1.109  0.00  0.00    +0.119 C 
BRANCH  12  17
ATOM     17  C   UNL     1       3.722   1.437   0.486  0.00  0.00    -0.033 A 
ATOM     19  C   UNL     1       4.339   1.777  -0.710  0.00  0.00    +0.005 A 
ATOM     20  C   UNL     1       2.851   2.315   1.116  0.00  0.00    +0.005 A 
ATOM     23  C   UNL     1       4.081   3.020  -1.287  0.00  0.00    +0.000 A 
ATOM     24  C   UNL     1       2.592   3.558   0.538  0.00  0.00    +0.000 A 
ATOM     27  C   UNL     1       3.207   3.911  -0.663  0.00  0.00    +0.000 A 
ENDBRANCH  12  17
ENDBRANCH   2  12
TORSDOF 5
