REMARK  Name = 45784307
REMARK  5 active torsions:
REMARK  status: ('A' for Active; 'I' for Inactive)
REMARK    1  A    between atoms: O_1  and  C_18
REMARK    2  A    between atoms: O_1  and  C_22
REMARK    3  A    between atoms: N_2  and  C_12
REMARK    4  A    between atoms: C_7  and  C_11
REMARK    5  A    between atoms: C_12  and  C_13
REMARK                            x       y       z     vdW  Elec       q    Type
REMARK                         _______ _______ _______ _____ _____    ______ ____
ROOT
ATOM      2  N   UNL     1      -2.703  -0.245  -0.092  0.00  0.00    -0.295 NA
ATOM      7  C   UNL     1      -0.484  -0.756   0.469  0.00  0.00    +0.070 C 
ATOM      8  C   UNL     1      -1.200  -0.164   1.694  0.00  0.00    +0.028 C 
ATOM      9  C   UNL     1      -1.389  -0.403  -0.719  0.00  0.00    +0.096 C 
ATOM     10  C   UNL     1      -2.446   0.511   1.134  0.00  0.00    +0.085 C 
ENDROOT
BRANCH   7  11
ATOM      3  N   UNL     1       1.983  -1.179   0.275  0.00  0.00    -0.341 N 
ATOM      4  N   UNL     1       1.350   0.945   0.110  0.00  0.00    -0.232 NA
ATOM     11  C   UNL     1       0.942  -0.292   0.281  0.00  0.00    +0.113 A 
ATOM     14  C   UNL     1       3.139  -0.466   0.087  0.00  0.00    +0.070 A 
ATOM     15  C   UNL     1       2.718   0.857  -0.012  0.00  0.00    +0.089 A 
ATOM     16  C   UNL     1       4.477  -0.853  -0.001  0.00  0.00    +0.073 A 
ATOM     17  C   UNL     1       3.674   1.867  -0.212  0.00  0.00    +0.033 A 
ATOM     18  C   UNL     1       5.415   0.166  -0.199  0.00  0.00    +0.122 A 
ATOM     19  C   UNL     1       5.023   1.502  -0.303  0.00  0.00    +0.048 A 
ATOM     23  H   UNL     1       1.916  -2.182   0.388  0.00  0.00    +0.167 HD
BRANCH  18   1
ATOM      1  O   UNL     1       6.737  -0.154  -0.293  0.00  0.00    -0.495 OA
ATOM     22  C   UNL     1       7.078  -1.534  -0.179  0.00  0.00    +0.277 C 
ENDBRANCH  18   1
ENDBRANCH   7  11
BRANCH   2  12
ATOM     12  C   UNL     1      -3.658   0.422  -0.964  0.00  0.00    +0.158 C 
BRANCH  12  13
ATOM      5  N   UNL     1      -5.716  -0.990  -0.742  0.00  0.00    -0.347 N 
ATOM      6  N   UNL     1      -5.851   1.056   0.112  0.00  0.00    -0.239 NA
ATOM     13  C   UNL     1      -5.078   0.198  -0.516  0.00  0.00    +0.121 A 
ATOM     20  C   UNL     1      -6.976  -0.882  -0.225  0.00  0.00    +0.104 A 
ATOM     21  C   UNL     1      -7.036   0.389   0.296  0.00  0.00    +0.130 A 
ATOM     24  H   UNL     1      -5.329  -1.801  -1.205  0.00  0.00    +0.167 HD
ENDBRANCH  12  13
ENDBRANCH   2  12
TORSDOF 4
