REMARK  Name = 28962456
REMARK  11 active torsions:
REMARK  status: ('A' for Active; 'I' for Inactive)
REMARK    1  A    between atoms: O_1  and  C_9
REMARK    2  A    between atoms: N_4  and  C_13
REMARK    3  A    between atoms: N_5  and  C_23
REMARK    4  A    between atoms: C_6  and  C_16
REMARK    5  A    between atoms: C_8  and  C_18
REMARK    6  A    between atoms: C_11  and  C_17
REMARK    7  A    between atoms: C_17  and  C_19
REMARK    8  A    between atoms: C_17  and  C_20
REMARK    9  A    between atoms: C_21  and  C_22
REMARK   10  A    between atoms: C_23  and  C_24
REMARK   11  A    between atoms: C_23  and  C_25
REMARK                            x       y       z     vdW  Elec       q    Type
REMARK                         _______ _______ _______ _____ _____    ______ ____
ROOT
ATOM      6  C   UNL     1      -0.972  -1.490   0.089  0.00  0.00    -0.027 C 
ATOM      7  C   UNL     1      -0.981   0.066  -0.077  0.00  0.00    +0.028 C 
ATOM      8  C   UNL     1      -2.371   0.564  -0.612  0.00  0.00    +0.012 C 
ATOM      9  C   UNL     1       0.259   0.555  -0.881  0.00  0.00    +0.122 C 
ATOM     10  C   UNL     1       0.368  -1.933   0.723  0.00  0.00    +0.007 C 
ATOM     11  C   UNL     1       1.590   0.022  -0.303  0.00  0.00    +0.029 C 
ATOM     12  C   UNL     1      -2.108  -1.900   1.055  0.00  0.00    +0.009 C 
ATOM     13  C   UNL     1      -3.513   0.081   0.327  0.00  0.00    +0.076 C 
ATOM     14  C   UNL     1       1.582  -1.491  -0.083  0.00  0.00    +0.007 C 
ATOM     15  C   UNL     1      -3.479  -1.422   0.601  0.00  0.00    +0.023 C 
ATOM     16  C   UNL     1      -1.155  -2.232  -1.259  0.00  0.00    +0.011 C 
ATOM     18  C   UNL     1      -2.459   2.091  -0.772  0.00  0.00    +0.010 C 
ENDROOT
BRANCH  13   4
ATOM      3  O   UNL     1      -5.908   0.726   1.837  0.00  0.00    -0.276 OA
ATOM      4  N   UNL     1      -4.819   0.422  -0.198  0.00  0.00    -0.312 N 
ATOM     21  C   UNL     1      -5.903   0.715   0.608  0.00  0.00    +0.210 C 
ATOM     22  C   UNL     1      -7.130   1.060  -0.193  0.00  0.00    +0.109 C 
ATOM     26  H   UNL     1      -4.950   0.387  -1.205  0.00  0.00    +0.149 HD
ENDBRANCH  13   4
BRANCH   9   1
ATOM      1  O   UNL     1       0.331   1.980  -0.827  0.00  0.00    -0.391 OA
ATOM     27  H   UNL     1       0.411   2.243   0.106  0.00  0.00    +0.210 HD
ENDBRANCH   9   1
BRANCH  11  17
ATOM     17  C   UNL     1       2.786   0.405  -1.184  0.00  0.00    +0.077 C 
ATOM     19  C   UNL     1       2.608  -0.163  -2.587  0.00  0.00    +0.017 C 
BRANCH  17  20
ATOM      2  O   UNL     1       4.570  -1.187  -0.797  0.00  0.00    -0.276 OA
ATOM      5  N   UNL     1       4.624   0.836   0.336  0.00  0.00    -0.313 N 
ATOM     20  C   UNL     1       4.081  -0.088  -0.545  0.00  0.00    +0.216 C 
ATOM     28  H   UNL     1       4.112   1.690   0.534  0.00  0.00    +0.149 HD
BRANCH   5  23
ATOM     23  C   UNL     1       5.848   0.595   1.065  0.00  0.00    +0.067 C 
ATOM     24  C   UNL     1       5.551  -0.110   2.382  0.00  0.00    +0.027 C 
ATOM     25  C   UNL     1       6.599   1.900   1.294  0.00  0.00    +0.027 C 
ENDBRANCH   5  23
ENDBRANCH  17  20
ENDBRANCH  11  17
TORSDOF 5
