REMARK  Name = 38030412
REMARK  13 active torsions:
REMARK  status: ('A' for Active; 'I' for Inactive)
REMARK    1  A    between atoms: O_2  and  C_23
REMARK    2  A    between atoms: O_2  and  C_31
REMARK    3  A    between atoms: N_3  and  C_14
REMARK    4  A    between atoms: N_3  and  C_20
REMARK    5  A    between atoms: C_7  and  C_11
REMARK    6  A    between atoms: C_8  and  C_14
REMARK    7  A    between atoms: C_10  and  C_15
REMARK    8  A    between atoms: C_11  and  C_16
REMARK    9  A    between atoms: C_11  and  C_17
REMARK   10  A    between atoms: C_12  and  C_18
REMARK   11  A    between atoms: C_15  and  C_19
REMARK   12  A    between atoms: C_20  and  C_21
REMARK   13  A    between atoms: C_22  and  C_25
REMARK                            x       y       z     vdW  Elec       q    Type
REMARK                         _______ _______ _______ _____ _____    ______ ____
ROOT
ATOM      7  C   UNL     1       0.365   1.940  -1.239  0.00  0.00    +0.000 C 
ATOM      8  C   UNL     1       1.730   2.670  -1.198  0.00  0.00    +0.029 C 
ATOM      9  C   UNL     1      -0.672   2.693  -0.393  0.00  0.00    +0.012 C 
ATOM     10  C   UNL     1      -0.236   2.829   1.078  0.00  0.00    +0.024 C 
ATOM     12  C   UNL     1       1.202   3.292   1.198  0.00  0.00    -0.073 C 
ATOM     13  C   UNL     1       2.062   3.226   0.167  0.00  0.00    -0.023 C 
ATOM     18  C   UNL     1       1.617   3.877   2.520  0.00  0.00    +0.039 C 
ENDROOT
BRANCH   7  11
ATOM     11  C   UNL     1      -0.152   1.781  -2.673  0.00  0.00    -0.013 C 
ATOM     16  C   UNL     1      -0.827   3.067  -3.140  0.00  0.00    +0.007 C 
ATOM     17  C   UNL     1      -1.115   0.601  -2.764  0.00  0.00    +0.007 C 
ENDBRANCH   7  11
BRANCH   8  14
ATOM     14  C   UNL     1       2.864   1.750  -1.664  0.00  0.00    +0.089 C 
BRANCH  14   3
ATOM      3  N   UNL     1       3.026   0.632  -0.750  0.00  0.00    -0.311 NA
ATOM     34  H   UNL     1       3.241   0.973   0.187  0.00  0.00    +0.122 HD
BRANCH   3  20
ATOM     20  C   UNL     1       4.096  -0.255  -1.190  0.00  0.00    +0.120 C 
BRANCH  20  21
ATOM     21  C   UNL     1       4.268  -1.429  -0.263  0.00  0.00    +0.008 A 
ATOM     23  C   UNL     1       3.212  -2.307  -0.021  0.00  0.00    +0.124 A 
ATOM     24  C   UNL     1       5.500  -1.633   0.357  0.00  0.00    +0.008 A 
ATOM     26  C   UNL     1       3.388  -3.389   0.841  0.00  0.00    +0.046 A 
ATOM     27  C   UNL     1       5.677  -2.715   1.219  0.00  0.00    +0.001 A 
ATOM     28  C   UNL     1       4.620  -3.594   1.461  0.00  0.00    +0.004 A 
BRANCH  23   2
ATOM      2  O   UNL     1       2.001  -2.122  -0.618  0.00  0.00    -0.495 OA
ATOM     31  C   UNL     1       0.978  -3.068  -0.314  0.00  0.00    +0.277 C 
ENDBRANCH  23   2
ENDBRANCH  20  21
ENDBRANCH   3  20
ENDBRANCH  14   3
ENDBRANCH   8  14
BRANCH  10  15
ATOM     15  C   UNL     1      -0.455   1.519   1.843  0.00  0.00    +0.105 C 
BRANCH  15  19
ATOM      1  O   UNL     1      -2.159   0.042   0.908  0.00  0.00    -0.420 OA
ATOM      4  N   UNL     1      -2.942   1.519   2.394  0.00  0.00    -0.112 NA
ATOM      5  N   UNL     1      -4.005   0.755   1.951  0.00  0.00    -0.107 NA
ATOM     19  C   UNL     1      -1.886   1.068   1.760  0.00  0.00    +0.218 A 
ATOM     22  C   UNL     1      -3.502  -0.093   1.085  0.00  0.00    +0.250 A 
BRANCH  22  25
ATOM      6  N   UNL     1      -6.158  -2.301  -0.290  0.00  0.00    -0.263 NA
ATOM     25  C   UNL     1      -4.136  -1.121   0.311  0.00  0.00    +0.057 A 
ATOM     29  C   UNL     1      -3.402  -1.919  -0.561  0.00  0.00    +0.016 A 
ATOM     30  C   UNL     1      -5.499  -1.351   0.409  0.00  0.00    +0.124 A 
ATOM     32  C   UNL     1      -4.046  -2.907  -1.297  0.00  0.00    +0.020 A 
ATOM     33  C   UNL     1      -5.412  -3.057  -1.127  0.00  0.00    +0.111 A 
ENDBRANCH  22  25
ENDBRANCH  15  19
ENDBRANCH  10  15
TORSDOF 9
