REMARK  Name = 45784399
REMARK  12 active torsions:
REMARK  status: ('A' for Active; 'I' for Inactive)
REMARK    1  A    between atoms: O_1  and  C_12
REMARK    2  A    between atoms: N_5  and  C_16
REMARK    3  A    between atoms: N_6  and  C_26
REMARK    4  A    between atoms: N_7  and  C_27
REMARK    5  A    between atoms: C_9  and  C_19
REMARK    6  A    between atoms: C_11  and  C_21
REMARK    7  A    between atoms: C_15  and  C_20
REMARK    8  A    between atoms: C_20  and  C_22
REMARK    9  A    between atoms: C_20  and  C_23
REMARK   10  A    between atoms: C_24  and  C_25
REMARK   11  A    between atoms: C_26  and  C_27
REMARK   12  A    between atoms: C_34  and  C_37
REMARK                            x       y       z     vdW  Elec       q    Type
REMARK                         _______ _______ _______ _____ _____    ______ ____
ROOT
ATOM      9  C   UNL     1       0.166  -0.207  -1.716  0.00  0.00    -0.027 C 
ATOM     10  C   UNL     1       0.362  -0.425  -0.178  0.00  0.00    +0.028 C 
ATOM     11  C   UNL     1       1.880  -0.635   0.168  0.00  0.00    +0.012 C 
ATOM     12  C   UNL     1      -0.604  -1.518   0.364  0.00  0.00    +0.122 C 
ATOM     13  C   UNL     1      -1.320   0.108  -2.007  0.00  0.00    +0.007 C 
ATOM     14  C   UNL     1       1.003   1.014  -2.162  0.00  0.00    +0.009 C 
ATOM     15  C   UNL     1      -2.079  -1.251  -0.020  0.00  0.00    +0.029 C 
ATOM     16  C   UNL     1       2.721   0.565  -0.352  0.00  0.00    +0.076 C 
ATOM     17  C   UNL     1      -2.266  -0.979  -1.513  0.00  0.00    +0.007 C 
ATOM     18  C   UNL     1       2.481   0.880  -1.828  0.00  0.00    +0.023 C 
ATOM     19  C   UNL     1       0.586  -1.445  -2.549  0.00  0.00    +0.011 C 
ATOM     21  C   UNL     1       2.148  -0.827   1.670  0.00  0.00    +0.010 C 
ENDROOT
BRANCH  16   5
ATOM      3  O   UNL     1       4.702   2.577   0.170  0.00  0.00    -0.270 OA
ATOM      5  N   UNL     1       4.139   0.351  -0.153  0.00  0.00    -0.308 N 
ATOM     24  C   UNL     1       5.017   1.392   0.094  0.00  0.00    +0.244 C 
ATOM     38  H   UNL     1       4.488  -0.588  -0.317  0.00  0.00    +0.149 HD
BRANCH  24  25
ATOM     25  C   UNL     1       6.445   1.010   0.249  0.00  0.00    +0.037 A 
ATOM     28  C   UNL     1       7.450   1.927  -0.057  0.00  0.00    +0.014 A 
ATOM     29  C   UNL     1       6.779  -0.266   0.702  0.00  0.00    +0.014 A 
ATOM     30  C   UNL     1       8.790   1.569   0.090  0.00  0.00    +0.019 A 
ATOM     31  C   UNL     1       8.119  -0.625   0.849  0.00  0.00    +0.019 A 
ATOM     34  C   UNL     1       9.124   0.293   0.543  0.00  0.00    +0.052 A 
BRANCH  34  37
ATOM      8  N   UNL     1      11.612  -0.373   0.815  0.00  0.00    -0.191 NA
ATOM     37  C   UNL     1      10.497  -0.075   0.693  0.00  0.00    +0.099 C 
ENDBRANCH  34  37
ENDBRANCH  24  25
ENDBRANCH  16   5
BRANCH  12   1
ATOM      1  O   UNL     1      -0.551  -1.536   1.791  0.00  0.00    -0.391 OA
ATOM     39  H   UNL     1      -0.820  -0.659   2.115  0.00  0.00    +0.210 HD
ENDBRANCH  12   1
BRANCH  15  20
ATOM     20  C   UNL     1      -2.995  -2.403   0.409  0.00  0.00    +0.077 C 
ATOM     22  C   UNL     1      -2.551  -3.703  -0.254  0.00  0.00    +0.017 C 
BRANCH  20  23
ATOM      2  O   UNL     1      -4.964  -2.390  -1.002  0.00  0.00    -0.276 OA
ATOM      6  N   UNL     1      -5.086  -1.378   1.081  0.00  0.00    -0.314 N 
ATOM     23  C   UNL     1      -4.444  -2.071   0.065  0.00  0.00    +0.216 C 
ATOM     40  H   UNL     1      -4.573  -1.138   1.924  0.00  0.00    +0.149 HD
BRANCH   6  26
ATOM     26  C   UNL     1      -6.463  -0.952   0.987  0.00  0.00    +0.119 C 
BRANCH  26  27
ATOM     27  C   UNL     1      -6.568   0.440   0.380  0.00  0.00    +0.103 C 
BRANCH  27   7
ATOM      4  O   UNL     1     -10.048   2.777   0.587  0.00  0.00    -0.377 OA
ATOM      7  N   UNL     1      -7.967   0.856   0.303  0.00  0.00    -0.297 NA
ATOM     32  C   UNL     1      -8.464   1.260   1.626  0.00  0.00    +0.112 C 
ATOM     33  C   UNL     1      -8.132   1.957  -0.655  0.00  0.00    +0.112 C 
ATOM     35  C   UNL     1      -9.921   1.701   1.518  0.00  0.00    +0.175 C 
ATOM     36  C   UNL     1      -9.597   2.382  -0.709  0.00  0.00    +0.175 C 
ENDBRANCH  27   7
ENDBRANCH  26  27
ENDBRANCH   6  26
ENDBRANCH  20  23
ENDBRANCH  15  20
TORSDOF 9
