REMARK  Name = 7674051
REMARK  7 active torsions:
REMARK  status: ('A' for Active; 'I' for Inactive)
REMARK    1  A    between atoms: S_1  and  N_8
REMARK    2  A    between atoms: S_1  and  C_22
REMARK    3  A    between atoms: N_10  and  C_18
REMARK    4  A    between atoms: N_12  and  C_25
REMARK    5  A    between atoms: C_13  and  C_17
REMARK    6  A    between atoms: C_25  and  C_28
REMARK    7  A    between atoms: C_25  and  C_29
REMARK                            x       y       z     vdW  Elec       q    Type
REMARK                         _______ _______ _______ _____ _____    ______ ____
ROOT
ATOM      6  O   UNL     1      -1.424   3.611   0.210  0.00  0.00    -0.253 OA
ATOM      8  N   UNL     1      -0.044  -0.860  -1.706  0.00  0.00    -0.162 NA
ATOM      9  N   UNL     1      -1.437   1.569  -0.894  0.00  0.00    -0.282 N 
ATOM     12  N   UNL     1      -3.441   2.565  -0.154  0.00  0.00    -0.297 N 
ATOM     13  C   UNL     1       0.568   0.150  -0.794  0.00  0.00    +0.183 C 
ATOM     14  C   UNL     1       0.018   1.549  -1.046  0.00  0.00    +0.139 C 
ATOM     15  C   UNL     1      -1.291  -0.412  -2.389  0.00  0.00    +0.129 C 
ATOM     16  C   UNL     1      -2.158   0.416  -1.449  0.00  0.00    +0.126 C 
ATOM     21  C   UNL     1      -2.055   2.654  -0.247  0.00  0.00    +0.303 C 
ATOM     35  H   UNL     1      -3.913   1.709  -0.421  0.00  0.00    +0.150 HD
ENDROOT
BRANCH  13  17
ATOM      3  O   UNL     1       2.461  -0.116  -2.213  0.00  0.00    -0.274 OA
ATOM     10  N   UNL     1       2.797   0.334   0.046  0.00  0.00    -0.303 N 
ATOM     17  C   UNL     1       2.031   0.111  -1.085  0.00  0.00    +0.234 C 
ATOM     33  H   UNL     1       2.330   0.542   0.925  0.00  0.00    +0.149 HD
BRANCH  10  18
ATOM      7  O   UNL     1       4.091  -1.173   1.923  0.00  0.00    -0.274 OA
ATOM     11  N   UNL     1       5.933   0.173   1.820  0.00  0.00    -0.314 N 
ATOM     18  C   UNL     1       4.237   0.326   0.037  0.00  0.00    +0.159 C 
ATOM     19  C   UNL     1       4.785   1.715  -0.257  0.00  0.00    +0.033 C 
ATOM     20  C   UNL     1       6.295   1.714  -0.087  0.00  0.00    +0.021 C 
ATOM     23  C   UNL     1       4.711  -0.271   1.357  0.00  0.00    +0.233 C 
ATOM     24  C   UNL     1       6.633   1.353   1.347  0.00  0.00    +0.104 C 
ATOM     34  H   UNL     1       6.287  -0.259   2.668  0.00  0.00    +0.149 HD
ENDBRANCH  10  18
ENDBRANCH  13  17
BRANCH   8   1
ATOM      1  S   UNL     1       0.001  -2.491  -1.190  0.00  0.00    +0.062 S 
ATOM      4  O   UNL     1       1.200  -2.697  -0.411  0.00  0.00    -0.153 OA
ATOM      5  O   UNL     1      -0.322  -3.338  -2.314  0.00  0.00    -0.153 OA
BRANCH   1  22
ATOM      2  F   UNL     1      -4.595  -2.495   2.498  0.00  0.00    -0.205 F 
ATOM     22  C   UNL     1      -1.374  -2.493  -0.086  0.00  0.00    +0.106 A 
ATOM     26  C   UNL     1      -2.649  -2.801  -0.561  0.00  0.00    +0.031 A 
ATOM     27  C   UNL     1      -1.187  -2.185   1.262  0.00  0.00    +0.031 A 
ATOM     30  C   UNL     1      -3.737  -2.802   0.312  0.00  0.00    +0.040 A 
ATOM     31  C   UNL     1      -2.275  -2.186   2.134  0.00  0.00    +0.040 A 
ATOM     32  C   UNL     1      -3.550  -2.494   1.660  0.00  0.00    +0.124 A 
ENDBRANCH   1  22
ENDBRANCH   8   1
BRANCH  12  25
ATOM     25  C   UNL     1      -4.241   3.586   0.483  0.00  0.00    +0.068 C 
ATOM     28  C   UNL     1      -5.608   3.687  -0.181  0.00  0.00    +0.027 C 
ATOM     29  C   UNL     1      -4.372   3.302   1.974  0.00  0.00    +0.027 C 
ENDBRANCH  12  25
TORSDOF 5
