REMARK  Name = 75536499
REMARK  6 active torsions:
REMARK  status: ('A' for Active; 'I' for Inactive)
REMARK    1  A    between atoms: O_4  and  C_10
REMARK    2  A    between atoms: N_6  and  C_8
REMARK    3  A    between atoms: N_6  and  C_9
REMARK    4  A    between atoms: N_7  and  C_18
REMARK    5  A    between atoms: C_13  and  C_18
REMARK    6  A    between atoms: C_19  and  C_20
REMARK                            x       y       z     vdW  Elec       q    Type
REMARK                         _______ _______ _______ _____ _____    ______ ____
ROOT
ATOM      3  O   UNL     1       2.085   1.332   0.159  0.00  0.00    -0.371 OA
ATOM      9  C   UNL     1       0.135   0.049  -0.277  0.00  0.00    +0.111 C 
ATOM     10  C   UNL     1       1.316  -0.593  -0.980  0.00  0.00    +0.164 C 
ATOM     13  C   UNL     1       2.480  -0.004  -0.194  0.00  0.00    +0.165 C 
ATOM     14  C   UNL     1       0.663   1.451  -0.019  0.00  0.00    +0.181 C 
ENDROOT
BRANCH  10   4
ATOM      4  O   UNL     1       1.293  -2.005  -0.909  0.00  0.00    -0.388 OA
ATOM     22  H   UNL     1       1.252  -2.264   0.027  0.00  0.00    +0.210 HD
ENDBRANCH  10   4
BRANCH   9   6
ATOM      6  N   UNL     1      -1.088   0.041  -1.064  0.00  0.00    -0.306 NA
ATOM     21  H   UNL     1      -1.211  -0.866  -1.513  0.00  0.00    +0.123 HD
BRANCH   6   8
ATOM      1  F   UNL     1      -5.490  -1.034  -0.347  0.00  0.00    -0.206 F 
ATOM      2  F   UNL     1      -6.115   0.222   1.315  0.00  0.00    -0.206 F 
ATOM      8  C   UNL     1      -2.246   0.345  -0.226  0.00  0.00    +0.054 C 
ATOM     11  C   UNL     1      -3.387   0.891  -1.093  0.00  0.00    +0.024 C 
ATOM     12  C   UNL     1      -2.681  -0.913   0.536  0.00  0.00    +0.024 C 
ATOM     15  C   UNL     1      -4.640   1.153  -0.260  0.00  0.00    +0.077 C 
ATOM     16  C   UNL     1      -3.934  -0.652   1.370  0.00  0.00    +0.077 C 
ATOM     17  C   UNL     1      -5.058  -0.082   0.521  0.00  0.00    +0.249 C 
ENDBRANCH   6   8
ENDBRANCH   9   6
BRANCH  13  18
ATOM     18  C   UNL     1       3.778   0.036  -0.982  0.00  0.00    +0.138 C 
BRANCH  18   7
ATOM      5  O   UNL     1       5.628  -1.370   0.758  0.00  0.00    -0.276 OA
ATOM      7  N   UNL     1       4.843   0.600  -0.205  0.00  0.00    -0.313 N 
ATOM     19  C   UNL     1       5.685  -0.153   0.606  0.00  0.00    +0.210 C 
ATOM     20  C   UNL     1       6.731   0.686   1.290  0.00  0.00    +0.109 C 
ATOM     23  H   UNL     1       4.980   1.606  -0.254  0.00  0.00    +0.149 HD
ENDBRANCH  18   7
ENDBRANCH  13  18
TORSDOF 5
