REMARK  Name = 26763461
REMARK  5 active torsions:
REMARK  status: ('A' for Active; 'I' for Inactive)
REMARK    1  A    between atoms: N_4  and  C_11
REMARK    2  A    between atoms: N_5  and  C_12
REMARK    3  A    between atoms: N_8  and  C_25
REMARK    4  A    between atoms: C_15  and  C_18
REMARK    5  A    between atoms: C_18  and  C_22
REMARK                            x       y       z     vdW  Elec       q    Type
REMARK                         _______ _______ _______ _____ _____    ______ ____
ROOT
ATOM      1  O   UNL     1      -0.524  -3.202   1.124  0.00  0.00    -0.370 OA
ATOM      2  O   UNL     1      -0.458  -2.795  -1.972  0.00  0.00    -0.370 OA
ATOM      9  C   UNL     1       0.108  -2.064  -0.869  0.00  0.00    +0.175 C 
ATOM     10  C   UNL     1      -0.899  -2.114   0.264  0.00  0.00    +0.171 C 
ATOM     11  C   UNL     1       1.326  -2.795  -0.330  0.00  0.00    +0.166 C 
ATOM     12  C   UNL     1      -2.212  -2.416  -0.422  0.00  0.00    +0.131 C 
ATOM     13  C   UNL     1       0.696  -3.785   0.645  0.00  0.00    +0.190 C 
ATOM     14  C   UNL     1      -1.773  -3.244  -1.615  0.00  0.00    +0.185 C 
ENDROOT
BRANCH  12   5
ATOM      3  O   UNL     1      -4.214  -0.967   1.027  0.00  0.00    -0.252 OA
ATOM      5  N   UNL     1      -2.873  -1.204  -0.841  0.00  0.00    -0.292 N 
ATOM      8  N   UNL     1      -4.305   0.589  -0.728  0.00  0.00    -0.269 N 
ATOM     24  C   UNL     1      -3.845  -0.555  -0.070  0.00  0.00    +0.304 C 
ATOM     31  H   UNL     1      -2.573  -0.764  -1.706  0.00  0.00    +0.151 HD
ATOM     32  H   UNL     1      -3.894   0.789  -1.637  0.00  0.00    +0.156 HD
BRANCH   8  25
ATOM     25  C   UNL     1      -5.282   1.511  -0.285  0.00  0.00    +0.035 A 
ATOM     26  C   UNL     1      -5.619   2.605  -1.082  0.00  0.00    +0.023 A 
ATOM     27  C   UNL     1      -5.907   1.327   0.948  0.00  0.00    +0.023 A 
ATOM     28  C   UNL     1      -6.582   3.515  -0.646  0.00  0.00    +0.002 A 
ATOM     29  C   UNL     1      -6.870   2.237   1.384  0.00  0.00    +0.002 A 
ATOM     30  C   UNL     1      -7.207   3.331   0.587  0.00  0.00    +0.000 A 
ENDBRANCH   8  25
ENDBRANCH  12   5
BRANCH  11   4
ATOM      4  N   UNL     1       2.328  -1.829   0.274  0.00  0.00    -0.244 N 
ATOM      6  N   UNL     1       1.975  -1.014   1.281  0.00  0.00    -0.065 NA
ATOM      7  N   UNL     1       3.043  -0.289   1.595  0.00  0.00    -0.134 NA
ATOM     19  C   UNL     1       3.629  -1.649  -0.085  0.00  0.00    +0.134 A 
ATOM     22  C   UNL     1       4.065  -0.666   0.768  0.00  0.00    +0.083 A 
BRANCH  22  18
ATOM     18  C   UNL     1       5.424  -0.029   0.865  0.00  0.00    +0.062 C 
BRANCH  18  15
ATOM     15  C   UNL     1       5.536   1.197  -0.038  0.00  0.00    -0.005 C 
ATOM     16  C   UNL     1       4.845   2.408   0.604  0.00  0.00    +0.004 C 
ATOM     17  C   UNL     1       7.006   1.509  -0.349  0.00  0.00    +0.004 C 
ATOM     20  C   UNL     1       4.989   3.661  -0.256  0.00  0.00    +0.000 C 
ATOM     21  C   UNL     1       7.147   2.764  -1.207  0.00  0.00    +0.000 C 
ATOM     23  C   UNL     1       6.452   3.963  -0.570  0.00  0.00    +0.000 C 
ENDBRANCH  18  15
ENDBRANCH  22  18
ENDBRANCH  11   4
TORSDOF 5
