REMARK  Name = 7049356
REMARK  13 active torsions:
REMARK  status: ('A' for Active; 'I' for Inactive)
REMARK    1  A    between atoms: O_1  and  C_10
REMARK    2  A    between atoms: O_2  and  C_12
REMARK    3  A    between atoms: N_6  and  C_11
REMARK    4  A    between atoms: N_7  and  C_16
REMARK    5  A    between atoms: N_9  and  C_25
REMARK    6  A    between atoms: C_14  and  C_17
REMARK    7  A    between atoms: C_16  and  C_18
REMARK    8  A    between atoms: C_16  and  C_23
REMARK    9  A    between atoms: C_18  and  C_19
REMARK   10  A    between atoms: C_19  and  C_21
REMARK   11  A    between atoms: C_19  and  C_22
REMARK   12  A    between atoms: C_20  and  C_24
REMARK   13  A    between atoms: C_24  and  C_25
REMARK                            x       y       z     vdW  Elec       q    Type
REMARK                         _______ _______ _______ _____ _____    ______ ____
ROOT
ATOM     10  C   UNL     1      -2.192   2.163   0.483  0.00  0.00    +0.167 C 
ATOM     11  C   UNL     1      -1.957   0.929  -0.408  0.00  0.00    +0.127 C 
ATOM     12  C   UNL     1      -1.265   3.322   0.095  0.00  0.00    +0.149 C 
ATOM     13  C   UNL     1       0.218   2.914   0.130  0.00  0.00    +0.074 C 
ATOM     14  C   UNL     1       0.465   1.522  -0.378  0.00  0.00    +0.015 C 
ATOM     15  C   UNL     1      -0.500   0.625  -0.631  0.00  0.00    +0.006 C 
ENDROOT
BRANCH  14  17
ATOM      3  O   UNL     1       2.541   1.731  -1.441  0.00  0.00    -0.271 OA
ATOM      7  N   UNL     1       2.235   0.017   0.110  0.00  0.00    -0.300 N 
ATOM     17  C   UNL     1       1.850   1.117  -0.635  0.00  0.00    +0.241 C 
ATOM     27  H   UNL     1       1.594  -0.366   0.800  0.00  0.00    +0.150 HD
BRANCH   7  16
ATOM     16  C   UNL     1       3.549  -0.566   0.026  0.00  0.00    +0.159 C 
BRANCH  16  23
ATOM      5  O   UNL     1       4.047   0.648   2.073  0.00  0.00    -0.274 OA
ATOM      8  N   UNL     1       5.747   0.285   0.572  0.00  0.00    -0.328 N 
ATOM     23  C   UNL     1       4.438   0.197   1.000  0.00  0.00    +0.231 C 
ATOM     30  H   UNL     1       6.447   0.756   1.135  0.00  0.00    +0.145 HD
ATOM     31  H   UNL     1       6.061  -0.113  -0.307  0.00  0.00    +0.145 HD
ENDBRANCH  16  23
BRANCH  16  18
ATOM     18  C   UNL     1       3.546  -2.060   0.369  0.00  0.00    +0.034 C 
BRANCH  18  19
ATOM     19  C   UNL     1       2.620  -2.924  -0.511  0.00  0.00    -0.015 C 
ATOM     21  C   UNL     1       2.662  -4.378  -0.034  0.00  0.00    +0.007 C 
ATOM     22  C   UNL     1       2.994  -2.857  -1.992  0.00  0.00    +0.007 C 
ENDBRANCH  18  19
ENDBRANCH  16  18
ENDBRANCH   7  16
ENDBRANCH  14  17
BRANCH  11   6
ATOM      4  O   UNL     1      -4.637   0.065  -0.940  0.00  0.00    -0.276 OA
ATOM      6  N   UNL     1      -2.601  -0.245   0.129  0.00  0.00    -0.306 N 
ATOM     20  C   UNL     1      -3.909  -0.580  -0.190  0.00  0.00    +0.215 C 
ATOM     26  H   UNL     1      -2.091  -0.820   0.795  0.00  0.00    +0.149 HD
BRANCH  20  24
ATOM     24  C   UNL     1      -4.347  -1.858   0.503  0.00  0.00    +0.110 C 
BRANCH  24  25
ATOM     25  C   UNL     1      -5.783  -2.239   0.161  0.00  0.00    +0.087 C 
BRANCH  25   9
ATOM      9  N   UNL     1      -6.164  -3.461   0.858  0.00  0.00    -0.330 NA
ATOM     32  H   UNL     1      -7.107  -3.730   0.579  0.00  0.00    +0.118 HD
ATOM     33  H   UNL     1      -5.553  -4.224   0.571  0.00  0.00    +0.118 HD
ENDBRANCH  25   9
ENDBRANCH  24  25
ENDBRANCH  20  24
ENDBRANCH  11   6
BRANCH  10   1
ATOM      1  O   UNL     1      -1.951   1.822   1.850  0.00  0.00    -0.387 OA
ATOM     28  H   UNL     1      -2.136   2.611   2.386  0.00  0.00    +0.210 HD
ENDBRANCH  10   1
BRANCH  12   2
ATOM      2  O   UNL     1      -1.607   3.811  -1.200  0.00  0.00    -0.389 OA
ATOM     29  H   UNL     1      -1.030   4.570  -1.390  0.00  0.00    +0.210 HD
ENDBRANCH  12   2
TORSDOF 11
