REMARK  Name = 25318005
REMARK  15 active torsions:
REMARK  status: ('A' for Active; 'I' for Inactive)
REMARK    1  A    between atoms: O_1  and  C_14
REMARK    2  A    between atoms: N_3  and  C_10
REMARK    3  A    between atoms: N_3  and  C_21
REMARK    4  A    between atoms: N_4  and  C_26
REMARK    5  A    between atoms: N_5  and  C_29
REMARK    6  A    between atoms: N_5  and  C_33
REMARK    7  A    between atoms: N_5  and  C_34
REMARK    8  A    between atoms: C_7  and  C_15
REMARK    9  A    between atoms: C_9  and  C_17
REMARK   10  A    between atoms: C_9  and  C_18
REMARK   11  A    between atoms: C_14  and  C_20
REMARK   12  A    between atoms: C_15  and  C_19
REMARK   13  A    between atoms: C_19  and  C_22
REMARK   14  A    between atoms: C_21  and  C_23
REMARK   15  A    between atoms: C_26  and  C_30
REMARK                            x       y       z     vdW  Elec       q    Type
REMARK                         _______ _______ _______ _____ _____    ______ ____
ROOT
ATOM      7  C   UNL     1      -0.114  -1.715  -0.247  0.00  0.00    -0.010 C 
ATOM      8  C   UNL     1      -1.080  -2.573   0.636  0.00  0.00    +0.005 C 
ATOM      9  C   UNL     1      -0.856  -2.059   2.111  0.00  0.00    -0.030 C 
ATOM     10  C   UNL     1       1.115  -1.622   0.684  0.00  0.00    +0.061 C 
ATOM     11  C   UNL     1       0.518  -1.338   2.071  0.00  0.00    +0.026 C 
ATOM     12  C   UNL     1       0.195  -2.338  -1.629  0.00  0.00    +0.011 C 
ATOM     13  C   UNL     1      -0.830  -4.097   0.499  0.00  0.00    +0.039 C 
ATOM     14  C   UNL     1      -0.717  -4.585  -0.946  0.00  0.00    +0.064 C 
ATOM     16  C   UNL     1       0.428  -3.843  -1.635  0.00  0.00    +0.035 C 
ATOM     17  C   UNL     1      -1.980  -1.084   2.519  0.00  0.00    +0.011 C 
ATOM     18  C   UNL     1      -0.832  -3.152   3.199  0.00  0.00    +0.011 C 
ATOM     20  C   UNL     1      -0.481  -6.097  -0.984  0.00  0.00    +0.041 C 
ENDROOT
BRANCH  14   1
ATOM      1  O   UNL     1      -1.949  -4.317  -1.616  0.00  0.00    -0.389 OA
ATOM     38  H   UNL     1      -2.659  -4.781  -1.141  0.00  0.00    +0.210 HD
ENDBRANCH  14   1
BRANCH  10   3
ATOM      3  N   UNL     1       2.087  -0.632   0.303  0.00  0.00    -0.309 NA
ATOM     37  H   UNL     1       2.218  -0.644  -0.707  0.00  0.00    +0.123 HD
BRANCH   3  21
ATOM     21  C   UNL     1       3.369  -0.887   0.946  0.00  0.00    +0.116 C 
BRANCH  21  23
ATOM     23  C   UNL     1       4.398   0.140   0.571  0.00  0.00    -0.033 A 
ATOM     24  C   UNL     1       4.998   0.100  -0.688  0.00  0.00    +0.007 A 
ATOM     25  C   UNL     1       4.756   1.133   1.483  0.00  0.00    +0.007 A 
ATOM     27  C   UNL     1       5.955   1.054  -1.035  0.00  0.00    +0.023 A 
ATOM     28  C   UNL     1       5.713   2.087   1.136  0.00  0.00    +0.023 A 
ATOM     29  C   UNL     1       6.312   2.047  -0.123  0.00  0.00    +0.029 A 
BRANCH  29   5
ATOM      5  N   UNL     1       7.279   3.012  -0.474  0.00  0.00    -0.336 N 
ATOM     33  C   UNL     1       7.652   4.053   0.463  0.00  0.00    +0.129 C 
ATOM     34  C   UNL     1       7.908   2.979  -1.780  0.00  0.00    +0.129 C 
ENDBRANCH  29   5
ENDBRANCH  21  23
ENDBRANCH   3  21
ENDBRANCH  10   3
BRANCH   7  15
ATOM     15  C   UNL     1      -0.698  -0.309  -0.543  0.00  0.00    +0.018 C 
BRANCH  15  19
ATOM     19  C   UNL     1      -2.147  -0.418  -0.970  0.00  0.00    +0.096 C 
BRANCH  19  22
ATOM      2  O   UNL     1      -2.112   1.996  -1.146  0.00  0.00    -0.276 OA
ATOM      4  N   UNL     1      -4.071   0.856  -1.646  0.00  0.00    -0.311 N 
ATOM     22  C   UNL     1      -2.743   0.949  -1.255  0.00  0.00    +0.213 C 
ATOM     39  H   UNL     1      -4.518  -0.056  -1.692  0.00  0.00    +0.149 HD
BRANCH   4  26
ATOM     26  C   UNL     1      -4.862   2.019  -1.973  0.00  0.00    +0.141 C 
BRANCH  26  30
ATOM      6  N   UNL     1      -5.708   4.277   0.940  0.00  0.00    -0.263 NA
ATOM     30  C   UNL     1      -5.568   2.573  -0.770  0.00  0.00    -0.012 A 
ATOM     31  C   UNL     1      -6.692   1.945  -0.245  0.00  0.00    +0.008 A 
ATOM     32  C   UNL     1      -5.120   3.727  -0.146  0.00  0.00    +0.115 A 
ATOM     35  C   UNL     1      -7.325   2.481   0.871  0.00  0.00    +0.020 A 
ATOM     36  C   UNL     1      -6.798   3.638   1.421  0.00  0.00    +0.111 A 
ENDBRANCH  26  30
ENDBRANCH   4  26
ENDBRANCH  19  22
ENDBRANCH  15  19
ENDBRANCH   7  15
TORSDOF 10
