REMARK  Name = 7673840
REMARK  6 active torsions:
REMARK  status: ('A' for Active; 'I' for Inactive)
REMARK    1  A    between atoms: O_2  and  C_26
REMARK    2  A    between atoms: O_2  and  C_31
REMARK    3  A    between atoms: N_3  and  C_13
REMARK    4  A    between atoms: C_13  and  C_18
REMARK    5  A    between atoms: C_16  and  C_19
REMARK    6  A    between atoms: C_27  and  C_30
REMARK                            x       y       z     vdW  Elec       q    Type
REMARK                         _______ _______ _______ _____ _____    ______ ____
ROOT
ATOM      1  O   UNL     1      -2.214  -2.089   1.381  0.00  0.00    -0.267 OA
ATOM      3  N   UNL     1       2.728  -1.494   0.771  0.00  0.00    -0.297 NA
ATOM      4  N   UNL     1      -0.279  -2.320   0.100  0.00  0.00    -0.311 N 
ATOM      6  C   UNL     1       1.697  -3.779   0.829  0.00  0.00    +0.024 C 
ATOM      7  C   UNL     1       1.804  -2.560  -1.291  0.00  0.00    +0.050 C 
ATOM      8  C   UNL     1       1.935  -3.946  -0.666  0.00  0.00    +0.017 C 
ATOM      9  C   UNL     1       2.739  -2.808   1.425  0.00  0.00    +0.090 C 
ATOM     10  C   UNL     1       2.871  -1.619  -0.687  0.00  0.00    +0.094 C 
ATOM     11  C   UNL     1       0.255  -3.305   1.051  0.00  0.00    +0.130 C 
ATOM     12  C   UNL     1       0.413  -1.997  -1.069  0.00  0.00    +0.026 A 
ATOM     14  C   UNL     1      -0.144  -1.181  -1.978  0.00  0.00    +0.022 A 
ATOM     15  C   UNL     1      -1.560  -1.801   0.377  0.00  0.00    +0.259 A 
ATOM     16  C   UNL     1      -2.143  -0.862  -0.644  0.00  0.00    +0.047 A 
ATOM     17  C   UNL     1      -1.438  -0.602  -1.755  0.00  0.00    +0.015 A 
ENDROOT
BRANCH  16  19
ATOM     19  C   UNL     1      -3.456  -0.227  -0.435  0.00  0.00    -0.011 A 
ATOM     22  C   UNL     1      -3.543   1.002   0.221  0.00  0.00    +0.027 A 
ATOM     23  C   UNL     1      -4.615  -0.855  -0.893  0.00  0.00    +0.009 A 
ATOM     27  C   UNL     1      -4.787   1.602   0.418  0.00  0.00    +0.052 A 
ATOM     28  C   UNL     1      -5.859  -0.254  -0.696  0.00  0.00    +0.002 A 
ATOM     29  C   UNL     1      -5.945   0.974  -0.040  0.00  0.00    +0.019 A 
BRANCH  27  30
ATOM      5  N   UNL     1      -4.947   3.882   1.638  0.00  0.00    -0.191 NA
ATOM     30  C   UNL     1      -4.875   2.859   1.091  0.00  0.00    +0.099 C 
ENDBRANCH  27  30
ENDBRANCH  16  19
BRANCH   3  13
ATOM     13  C   UNL     1       3.761  -0.624   1.326  0.00  0.00    +0.119 C 
BRANCH  13  18
ATOM     18  C   UNL     1       3.699   0.761   0.750  0.00  0.00    -0.033 A 
ATOM     20  C   UNL     1       2.470   1.399   0.627  0.00  0.00    +0.008 A 
ATOM     21  C   UNL     1       4.869   1.391   0.345  0.00  0.00    +0.008 A 
ATOM     24  C   UNL     1       2.412   2.686   0.092  0.00  0.00    +0.046 A 
ATOM     25  C   UNL     1       4.811   2.678  -0.190  0.00  0.00    +0.046 A 
ATOM     26  C   UNL     1       3.582   3.325  -0.317  0.00  0.00    +0.120 A 
BRANCH  26   2
ATOM      2  O   UNL     1       3.525   4.581  -0.840  0.00  0.00    -0.495 OA
ATOM     31  C   UNL     1       2.236   5.184  -0.941  0.00  0.00    +0.277 C 
ENDBRANCH  26   2
ENDBRANCH  13  18
ENDBRANCH   3  13
TORSDOF 5
