REMARK  Name = 75536179
REMARK  6 active torsions:
REMARK  status: ('A' for Active; 'I' for Inactive)
REMARK    1  A    between atoms: O_2  and  C_9
REMARK    2  A    between atoms: N_5  and  C_14
REMARK    3  A    between atoms: N_6  and  C_19
REMARK    4  A    between atoms: C_8  and  C_9
REMARK    5  A    between atoms: C_9  and  C_11
REMARK    6  A    between atoms: C_20  and  C_21
REMARK                            x       y       z     vdW  Elec       q    Type
REMARK                         _______ _______ _______ _____ _____    ______ ____
ROOT
ATOM     11  C   UNL     1      -1.498   0.512   0.491  0.00  0.00    -0.017 A 
ATOM     15  C   UNL     1      -0.730  -0.465   1.125  0.00  0.00    +0.008 A 
ATOM     16  C   UNL     1      -0.883   1.459  -0.329  0.00  0.00    +0.008 A 
ATOM     17  C   UNL     1       0.652  -0.495   0.940  0.00  0.00    +0.023 A 
ATOM     18  C   UNL     1       0.499   1.429  -0.514  0.00  0.00    +0.023 A 
ATOM     19  C   UNL     1       1.267   0.452   0.120  0.00  0.00    +0.034 A 
ENDROOT
BRANCH  19   6
ATOM      4  O   UNL     1       3.332  -1.411   1.239  0.00  0.00    -0.270 OA
ATOM      6  N   UNL     1       2.649   0.423  -0.065  0.00  0.00    -0.281 N 
ATOM     20  C   UNL     1       3.575  -0.475   0.485  0.00  0.00    +0.250 C 
ATOM     27  H   UNL     1       2.993   1.128  -0.710  0.00  0.00    +0.155 HD
BRANCH  20  21
ATOM      7  N   UNL     1       6.715   1.247  -0.686  0.00  0.00    -0.263 NA
ATOM     21  C   UNL     1       4.987  -0.265   0.074  0.00  0.00    +0.055 A 
ATOM     22  C   UNL     1       5.893  -1.319   0.057  0.00  0.00    +0.016 A 
ATOM     23  C   UNL     1       5.444   0.988  -0.303  0.00  0.00    +0.123 A 
ATOM     24  C   UNL     1       7.209  -1.093  -0.331  0.00  0.00    +0.020 A 
ATOM     25  C   UNL     1       7.566   0.197  -0.690  0.00  0.00    +0.111 A 
ENDBRANCH  20  21
ENDBRANCH  19   6
BRANCH  11   9
ATOM      9  C   UNL     1      -2.991   0.544   0.692  0.00  0.00    +0.167 C 
BRANCH   9   8
ATOM      1  O   UNL     1      -3.852  -1.978  -0.535  0.00  0.00    -0.369 OA
ATOM      3  O   UNL     1      -7.134  -0.659   0.193  0.00  0.00    -0.273 OA
ATOM      5  N   UNL     1      -5.197   0.479  -0.411  0.00  0.00    -0.295 N 
ATOM      8  C   UNL     1      -3.747   0.408  -0.633  0.00  0.00    +0.134 C 
ATOM     10  C   UNL     1      -3.391  -0.897  -1.336  0.00  0.00    +0.185 C 
ATOM     12  C   UNL     1      -5.956  -0.664  -0.168  0.00  0.00    +0.241 C 
ATOM     13  C   UNL     1      -5.260  -1.988  -0.462  0.00  0.00    +0.255 C 
ATOM     14  C   UNL     1      -5.792   1.801  -0.271  0.00  0.00    +0.132 C 
ENDBRANCH   9   8
BRANCH   9   2
ATOM      2  O   UNL     1      -3.360   1.768   1.320  0.00  0.00    -0.385 OA
ATOM     26  H   UNL     1      -3.192   2.498   0.701  0.00  0.00    +0.210 HD
ENDBRANCH   9   2
ENDBRANCH  11   9
TORSDOF 5
