REMARK  Name = 86769009
REMARK  7 active torsions:
REMARK  status: ('A' for Active; 'I' for Inactive)
REMARK    1  A    between atoms: O_2  and  C_10
REMARK    2  A    between atoms: N_4  and  C_9
REMARK    3  A    between atoms: N_4  and  C_14
REMARK    4  A    between atoms: N_5  and  C_13
REMARK    5  A    between atoms: C_11  and  C_13
REMARK    6  A    between atoms: C_14  and  C_15
REMARK    7  A    between atoms: C_16  and  C_18
REMARK                            x       y       z     vdW  Elec       q    Type
REMARK                         _______ _______ _______ _____ _____    ______ ____
ROOT
ATOM      1  O   UNL     1       0.082  -0.898   0.206  0.00  0.00    -0.371 OA
ATOM      9  C   UNL     1      -1.978   0.163  -0.317  0.00  0.00    +0.111 C 
ATOM     10  C   UNL     1      -1.073   1.158   0.387  0.00  0.00    +0.164 C 
ATOM     11  C   UNL     1       0.293   0.523   0.161  0.00  0.00    +0.165 C 
ATOM     12  C   UNL     1      -1.326  -1.156   0.062  0.00  0.00    +0.181 C 
ENDROOT
BRANCH  10   2
ATOM      2  O   UNL     1      -1.149   2.455  -0.171  0.00  0.00    -0.388 OA
ATOM     25  H   UNL     1      -0.940   2.393  -1.119  0.00  0.00    +0.210 HD
ENDBRANCH  10   2
BRANCH   9   4
ATOM      4  N   UNL     1      -3.369   0.247   0.097  0.00  0.00    -0.304 NA
ATOM     24  H   UNL     1      -3.650   1.228   0.120  0.00  0.00    +0.123 HD
BRANCH   4  14
ATOM     14  C   UNL     1      -4.236  -0.473  -0.828  0.00  0.00    +0.136 C 
BRANCH  14  15
ATOM      6  N   UNL     1      -6.423  -1.529  -0.149  0.00  0.00    -0.347 N 
ATOM      7  N   UNL     1      -7.781   0.196   0.188  0.00  0.00    -0.244 NA
ATOM     15  C   UNL     1      -5.680  -0.412  -0.407  0.00  0.00    +0.049 A 
ATOM     17  C   UNL     1      -6.539   0.640  -0.192  0.00  0.00    +0.134 A 
ATOM     19  C   UNL     1      -7.677  -1.115   0.204  0.00  0.00    +0.196 A 
ATOM     27  H   UNL     1      -6.107  -2.488  -0.208  0.00  0.00    +0.167 HD
ENDBRANCH  14  15
ENDBRANCH   4  14
ENDBRANCH   9   4
BRANCH  11  13
ATOM     13  C   UNL     1       1.321   0.922   1.204  0.00  0.00    +0.138 C 
BRANCH  13   5
ATOM      3  O   UNL     1       3.461   1.969  -0.398  0.00  0.00    -0.270 OA
ATOM      5  N   UNL     1       2.588   0.298   0.954  0.00  0.00    -0.309 N 
ATOM     16  C   UNL     1       3.571   0.881   0.161  0.00  0.00    +0.244 C 
ATOM     26  H   UNL     1       2.718  -0.634   1.332  0.00  0.00    +0.149 HD
BRANCH  16  18
ATOM      8  N   UNL     1       7.162  -1.389  -0.367  0.00  0.00    -0.263 NA
ATOM     18  C   UNL     1       4.818   0.094  -0.022  0.00  0.00    +0.040 A 
ATOM     20  C   UNL     1       5.589   0.264  -1.166  0.00  0.00    +0.033 A 
ATOM     21  C   UNL     1       5.218  -0.816   0.950  0.00  0.00    +0.033 A 
ATOM     22  C   UNL     1       6.742  -0.495  -1.290  0.00  0.00    +0.111 A 
ATOM     23  C   UNL     1       6.387  -1.527   0.732  0.00  0.00    +0.111 A 
ENDBRANCH  16  18
ENDBRANCH  13   5
ENDBRANCH  11  13
TORSDOF 7
