REMARK  Name = 7672465
REMARK  4 active torsions:
REMARK  status: ('A' for Active; 'I' for Inactive)
REMARK    1  A    between atoms: O_4  and  C_25
REMARK    2  A    between atoms: O_4  and  C_34
REMARK    3  A    between atoms: N_7  and  C_21
REMARK    4  A    between atoms: C_18  and  C_20
REMARK                            x       y       z     vdW  Elec       q    Type
REMARK                         _______ _______ _______ _____ _____    ______ ____
ROOT
ATOM      2  O   UNL     1      -1.335   2.089  -1.632  0.00  0.00    -0.267 OA
ATOM      3  O   UNL     1       2.944  -0.086  -2.229  0.00  0.00    -0.252 OA
ATOM      5  N   UNL     1       0.471   2.463  -0.202  0.00  0.00    -0.311 N 
ATOM      6  N   UNL     1       3.359   1.331  -0.452  0.00  0.00    -0.284 N 
ATOM      7  N   UNL     1       2.630  -0.879  -0.070  0.00  0.00    -0.266 N 
ATOM      8  C   UNL     1       2.616   3.635  -0.975  0.00  0.00    +0.027 C 
ATOM      9  C   UNL     1       2.445   2.777   1.332  0.00  0.00    +0.054 C 
ATOM     10  C   UNL     1       2.766   4.017   0.496  0.00  0.00    +0.018 C 
ATOM     11  C   UNL     1       1.147   3.271  -1.231  0.00  0.00    +0.130 C 
ATOM     12  C   UNL     1       3.573   2.479  -1.336  0.00  0.00    +0.114 C 
ATOM     13  C   UNL     1       3.450   1.661   0.980  0.00  0.00    +0.119 C 
ATOM     14  C   UNL     1       1.032   2.292   1.068  0.00  0.00    +0.027 A 
ATOM     15  C   UNL     1       0.350   1.646   2.028  0.00  0.00    +0.022 A 
ATOM     16  C   UNL     1      -0.800   1.951  -0.530  0.00  0.00    +0.260 A 
ATOM     17  C   UNL     1       2.988   0.088  -1.009  0.00  0.00    +0.307 C 
ATOM     18  C   UNL     1      -1.515   1.194   0.554  0.00  0.00    +0.053 A 
ATOM     19  C   UNL     1      -0.945   1.086   1.763  0.00  0.00    +0.016 A 
ATOM     35  H   UNL     1       2.260  -0.564   0.820  0.00  0.00    +0.156 HD
ENDROOT
BRANCH  18  20
ATOM      1  S   UNL     1      -2.880  -1.006  -0.265  0.00  0.00    -0.088 S 
ATOM     20  C   UNL     1      -2.790   0.601   0.307  0.00  0.00    +0.026 A 
ATOM     22  C   UNL     1      -4.044   1.153   0.468  0.00  0.00    +0.024 A 
ATOM     23  C   UNL     1      -5.106   0.252   0.118  0.00  0.00    -0.010 A 
ATOM     24  C   UNL     1      -4.603  -0.982  -0.305  0.00  0.00    +0.020 A 
ATOM     27  C   UNL     1      -6.510   0.431   0.142  0.00  0.00    +0.009 A 
ATOM     28  C   UNL     1      -5.459  -2.029  -0.700  0.00  0.00    +0.015 A 
ATOM     31  C   UNL     1      -7.362  -0.606  -0.249  0.00  0.00    +0.001 A 
ATOM     32  C   UNL     1      -6.839  -1.822  -0.666  0.00  0.00    +0.001 A 
ENDBRANCH  18  20
BRANCH   7  21
ATOM     21  C   UNL     1       2.668  -2.287  -0.223  0.00  0.00    +0.077 A 
ATOM     25  C   UNL     1       2.166  -3.120   0.773  0.00  0.00    +0.141 A 
ATOM     26  C   UNL     1       3.213  -2.829  -1.384  0.00  0.00    +0.027 A 
ATOM     29  C   UNL     1       2.210  -4.505   0.607  0.00  0.00    +0.047 A 
ATOM     30  C   UNL     1       3.257  -4.214  -1.550  0.00  0.00    +0.002 A 
ATOM     33  C   UNL     1       2.756  -5.051  -0.554  0.00  0.00    +0.004 A 
BRANCH  25   4
ATOM      4  O   UNL     1       1.628  -2.607   1.916  0.00  0.00    -0.493 OA
ATOM     34  C   UNL     1       2.517  -2.393   3.010  0.00  0.00    +0.277 C 
ENDBRANCH  25   4
ENDBRANCH   7  21
TORSDOF 3
