REMARK  Name = 38031161
REMARK  14 active torsions:
REMARK  status: ('A' for Active; 'I' for Inactive)
REMARK    1  A    between atoms: O_2  and  C_23
REMARK    2  A    between atoms: N_3  and  C_11
REMARK    3  A    between atoms: C_6  and  C_10
REMARK    4  A    between atoms: C_7  and  C_11
REMARK    5  A    between atoms: C_9  and  C_17
REMARK    6  A    between atoms: C_10  and  C_20
REMARK    7  A    between atoms: C_10  and  C_21
REMARK    8  A    between atoms: C_13  and  C_22
REMARK    9  A    between atoms: C_16  and  C_23
REMARK   10  A    between atoms: C_17  and  C_24
REMARK   11  A    between atoms: C_25  and  C_26
REMARK   12  A    between atoms: C_26  and  C_27
REMARK   13  A    between atoms: C_26  and  C_28
REMARK   14  A    between atoms: C_26  and  C_29
REMARK                            x       y       z     vdW  Elec       q    Type
REMARK                         _______ _______ _______ _____ _____    ______ ____
ROOT
ATOM      6  C   UNL     1      -0.968  -0.344  -0.744  0.00  0.00    +0.000 C 
ATOM      7  C   UNL     1      -1.699  -1.645  -0.341  0.00  0.00    +0.029 C 
ATOM      8  C   UNL     1       0.210  -0.073   0.203  0.00  0.00    +0.012 C 
ATOM      9  C   UNL     1       1.224  -1.235   0.264  0.00  0.00    +0.024 C 
ATOM     12  C   UNL     1      -0.747  -2.766  -0.009  0.00  0.00    -0.023 C 
ATOM     13  C   UNL     1       0.563  -2.605   0.253  0.00  0.00    -0.073 C 
ATOM     22  C   UNL     1       1.442  -3.803   0.487  0.00  0.00    +0.039 C 
ENDROOT
BRANCH   6  10
ATOM     10  C   UNL     1      -0.504  -0.393  -2.207  0.00  0.00    -0.013 C 
ATOM     20  C   UNL     1      -1.681  -0.698  -3.128  0.00  0.00    +0.007 C 
ATOM     21  C   UNL     1       0.163   0.921  -2.598  0.00  0.00    +0.007 C 
ENDBRANCH   6  10
BRANCH   7  11
ATOM     11  C   UNL     1      -2.644  -1.420   0.844  0.00  0.00    +0.092 C 
BRANCH  11   3
ATOM      3  N   UNL     1      -3.600  -0.353   0.546  0.00  0.00    -0.302 NA
ATOM     14  C   UNL     1      -4.182   0.176   1.787  0.00  0.00    +0.085 C 
ATOM     15  C   UNL     1      -4.645  -0.839  -0.365  0.00  0.00    +0.085 C 
ATOM     16  C   UNL     1      -6.249   0.903   0.523  0.00  0.00    +0.017 C 
ATOM     18  C   UNL     1      -5.145   1.330   1.496  0.00  0.00    +0.021 C 
ATOM     19  C   UNL     1      -5.623   0.280  -0.729  0.00  0.00    +0.021 C 
BRANCH  16  23
ATOM     23  C   UNL     1      -7.146   2.083   0.160  0.00  0.00    +0.159 C 
BRANCH  23   2
ATOM      2  O   UNL     1      -6.349   3.087  -0.440  0.00  0.00    -0.395 OA
ATOM     30  H   UNL     1      -6.938   3.827  -0.662  0.00  0.00    +0.209 HD
ENDBRANCH  23   2
ENDBRANCH  16  23
ENDBRANCH  11   3
ENDBRANCH   7  11
BRANCH   9  17
ATOM     17  C   UNL     1       2.137  -1.024   1.479  0.00  0.00    +0.105 C 
BRANCH  17  24
ATOM      1  O   UNL     1       4.186  -0.208   0.435  0.00  0.00    -0.424 OA
ATOM      4  N   UNL     1       3.129   1.314   1.687  0.00  0.00    -0.112 NA
ATOM      5  N   UNL     1       4.261   1.906   1.161  0.00  0.00    -0.112 NA
ATOM     24  C   UNL     1       3.126   0.081   1.237  0.00  0.00    +0.218 A 
ATOM     25  C   UNL     1       4.848   0.981   0.437  0.00  0.00    +0.223 A 
BRANCH  25  26
ATOM     26  C   UNL     1       6.084   1.054  -0.352  0.00  0.00    +0.040 C 
ATOM     27  C   UNL     1       6.749   2.473  -0.274  0.00  0.00    +0.020 C 
ATOM     28  C   UNL     1       5.831   0.758  -1.871  0.00  0.00    +0.020 C 
ATOM     29  C   UNL     1       7.231   0.057   0.060  0.00  0.00    +0.020 C 
ENDBRANCH  25  26
ENDBRANCH  17  24
ENDBRANCH   9  17
TORSDOF 8
