REMARK  Name = 25389016
REMARK  8 active torsions:
REMARK  status: ('A' for Active; 'I' for Inactive)
REMARK    1  A    between atoms: O_3  and  C_22
REMARK    2  A    between atoms: O_3  and  C_28
REMARK    3  A    between atoms: N_5  and  C_19
REMARK    4  A    between atoms: N_6  and  C_16
REMARK    5  A    between atoms: C_9  and  C_15
REMARK    6  A    between atoms: C_10  and  C_16
REMARK    7  A    between atoms: C_18  and  C_21
REMARK    8  A    between atoms: C_20  and  C_22
REMARK                            x       y       z     vdW  Elec       q    Type
REMARK                         _______ _______ _______ _____ _____    ______ ____
ROOT
ATOM      4  N   UNL     1      -2.497   2.465  -0.665  0.00  0.00    -0.297 NA
ATOM      8  C   UNL     1      -1.082   2.077   1.486  0.00  0.00    +0.002 C 
ATOM      9  C   UNL     1      -0.176   2.559   0.319  0.00  0.00    +0.055 C 
ATOM     10  C   UNL     1      -2.799   1.127  -0.093  0.00  0.00    +0.074 C 
ATOM     11  C   UNL     1      -1.825   0.794   1.058  0.00  0.00    +0.024 C 
ATOM     12  C   UNL     1      -2.150   3.170   1.702  0.00  0.00    +0.019 C 
ATOM     13  C   UNL     1      -1.048   2.573  -0.969  0.00  0.00    +0.094 C 
ATOM     14  C   UNL     1      -2.833   3.483   0.359  0.00  0.00    +0.085 C 
ENDROOT
BRANCH   9  15
ATOM      5  N   UNL     1       2.254   2.484  -0.406  0.00  0.00    -0.270 N 
ATOM      7  N   UNL     1       3.332   1.689  -0.516  0.00  0.00    -0.171 NA
ATOM     15  C   UNL     1       1.157   1.857   0.106  0.00  0.00    +0.044 A 
ATOM     17  C   UNL     1       1.544   0.561   0.347  0.00  0.00    +0.053 A 
ATOM     18  C   UNL     1       2.892   0.516  -0.054  0.00  0.00    +0.093 A 
ATOM     19  C   UNL     1       2.350   3.864  -0.823  0.00  0.00    +0.172 C 
BRANCH  18  21
ATOM      1  F   UNL     1       6.275  -3.904   0.131  0.00  0.00    -0.205 F 
ATOM     21  C   UNL     1       3.767  -0.627  -0.006  0.00  0.00    +0.002 A 
ATOM     23  C   UNL     1       3.243  -1.913  -0.143  0.00  0.00    +0.013 A 
ATOM     24  C   UNL     1       5.138  -0.449   0.177  0.00  0.00    +0.013 A 
ATOM     25  C   UNL     1       4.090  -3.019  -0.097  0.00  0.00    +0.039 A 
ATOM     26  C   UNL     1       5.985  -1.556   0.223  0.00  0.00    +0.039 A 
ATOM     27  C   UNL     1       5.461  -2.841   0.086  0.00  0.00    +0.123 A 
ENDBRANCH  18  21
ENDBRANCH   9  15
BRANCH  10  16
ATOM     16  C   UNL     1      -2.820   0.028  -1.158  0.00  0.00    +0.123 C 
BRANCH  16   6
ATOM      2  O   UNL     1      -5.516  -0.997  -0.945  0.00  0.00    -0.273 OA
ATOM      6  N   UNL     1      -3.226  -1.222  -0.595  0.00  0.00    -0.312 N 
ATOM     20  C   UNL     1      -4.554  -1.640  -0.532  0.00  0.00    +0.239 C 
ATOM     29  H   UNL     1      -2.504  -1.831  -0.220  0.00  0.00    +0.149 HD
BRANCH  20  22
ATOM     22  C   UNL     1      -4.696  -3.002   0.113  0.00  0.00    +0.255 C 
BRANCH  22   3
ATOM      3  O   UNL     1      -6.050  -3.399   0.147  0.00  0.00    -0.374 OA
ATOM     28  C   UNL     1      -6.213  -4.679   0.750  0.00  0.00    +0.194 C 
ENDBRANCH  22   3
ENDBRANCH  20  22
ENDBRANCH  16   6
ENDBRANCH  10  16
TORSDOF 6
