REMARK  Name = 75367635
REMARK  6 active torsions:
REMARK  status: ('A' for Active; 'I' for Inactive)
REMARK    1  A    between atoms: O_2  and  C_7
REMARK    2  A    between atoms: O_2  and  C_14
REMARK    3  A    between atoms: O_3  and  C_13
REMARK    4  A    between atoms: O_3  and  C_17
REMARK    5  A    between atoms: C_12  and  C_13
REMARK    6  A    between atoms: C_16  and  C_20
REMARK                            x       y       z     vdW  Elec       q    Type
REMARK                         _______ _______ _______ _____ _____    ______ ____
ROOT
ATOM      1  O   UNL     1       1.931  -3.416   1.257  0.00  0.00    -0.375 OA
ATOM      4  O   UNL     1      -2.076  -2.403  -1.393  0.00  0.00    -0.272 OA
ATOM      5  N   UNL     1      -0.050  -1.690  -0.486  0.00  0.00    -0.293 N 
ATOM      7  C   UNL     1       2.045  -1.016   0.818  0.00  0.00    +0.218 C 
ATOM      8  C   UNL     1       0.731  -0.618   0.140  0.00  0.00    +0.154 C 
ATOM      9  C   UNL     1       0.605  -2.973  -0.749  0.00  0.00    +0.136 C 
ATOM     10  C   UNL     1       1.874  -2.124   1.853  0.00  0.00    +0.206 C 
ATOM     11  C   UNL     1       0.765  -3.786   0.529  0.00  0.00    +0.179 C 
ATOM     12  C   UNL     1      -1.393  -1.529  -0.854  0.00  0.00    +0.253 C 
ENDROOT
BRANCH   7   2
ATOM      2  O   UNL     1       2.554   0.136   1.493  0.00  0.00    -0.469 OA
BRANCH   2  14
ATOM      6  N   UNL     1       3.610   0.607  -0.515  0.00  0.00    -0.218 NA
ATOM     14  C   UNL     1       3.366   0.961   0.766  0.00  0.00    +0.215 A 
ATOM     15  C   UNL     1       3.888   2.094   1.371  0.00  0.00    +0.067 A 
ATOM     16  C   UNL     1       4.417   1.431  -1.222  0.00  0.00    +0.042 A 
ATOM     18  C   UNL     1       4.713   2.916   0.612  0.00  0.00    +0.007 A 
ATOM     19  C   UNL     1       4.987   2.585  -0.711  0.00  0.00    +0.023 A 
ATOM     20  C   UNL     1       4.692   1.043  -2.637  0.00  0.00    +0.066 C 
ENDBRANCH   2  14
ENDBRANCH   7   2
BRANCH  12  13
ATOM     13  C   UNL     1      -2.018  -0.188  -0.549  0.00  0.00    +0.324 C 
BRANCH  13   3
ATOM      3  O   UNL     1      -3.337  -0.242  -1.031  0.00  0.00    -0.483 OA
BRANCH   3  17
ATOM     17  C   UNL     1      -4.271   0.558  -0.411  0.00  0.00    +0.121 A 
ATOM     21  C   UNL     1      -3.882   1.769   0.163  0.00  0.00    +0.045 A 
ATOM     22  C   UNL     1      -5.606   0.158  -0.355  0.00  0.00    +0.045 A 
ATOM     23  C   UNL     1      -4.828   2.579   0.791  0.00  0.00    +0.004 A 
ATOM     24  C   UNL     1      -6.552   0.968   0.273  0.00  0.00    +0.004 A 
ATOM     25  C   UNL     1      -6.163   2.179   0.847  0.00  0.00    +0.000 A 
ENDBRANCH   3  17
ENDBRANCH  13   3
ENDBRANCH  12  13
TORSDOF 5
