REMARK  Name = 9424316
REMARK  4 active torsions:
REMARK  status: ('A' for Active; 'I' for Inactive)
REMARK    1  A    between atoms: N_6  and  C_10
REMARK    2  A    between atoms: N_8  and  C_24
REMARK    3  A    between atoms: C_21  and  C_23
REMARK    4  A    between atoms: C_24  and  C_27
REMARK                            x       y       z     vdW  Elec       q    Type
REMARK                         _______ _______ _______ _____ _____    ______ ____
ROOT
ATOM      2  O   UNL     1       2.264   2.050  -1.291  0.00  0.00    -0.273 OA
ATOM      3  O   UNL     1      -1.200  -1.788  -1.980  0.00  0.00    -0.270 OA
ATOM      5  N   UNL     1       0.705  -0.810  -1.084  0.00  0.00    -0.286 N 
ATOM      7  N   UNL     1      -0.010   2.061  -1.052  0.00  0.00    -0.283 N 
ATOM      9  C   UNL     1       1.271   0.164  -0.159  0.00  0.00    +0.164 C 
ATOM     10  C   UNL     1       3.589  -0.834  -0.630  0.00  0.00    +0.078 C 
ATOM     11  C   UNL     1       2.649  -0.209   0.400  0.00  0.00    +0.054 C 
ATOM     12  C   UNL     1       2.885  -1.999  -1.316  0.00  0.00    +0.041 C 
ATOM     13  C   UNL     1       1.608  -1.525  -1.989  0.00  0.00    +0.111 C 
ATOM     14  C   UNL     1       1.239   1.487  -0.902  0.00  0.00    +0.238 C 
ATOM     15  C   UNL     1      -0.671  -0.916  -1.290  0.00  0.00    +0.249 C 
ATOM     16  C   UNL     1      -1.561   0.123  -0.706  0.00  0.00    +0.059 A 
ATOM     17  C   UNL     1      -1.264   1.498  -0.720  0.00  0.00    +0.046 A 
ATOM     19  C   UNL     1      -2.841  -0.307  -0.316  0.00  0.00    +0.023 A 
ATOM     20  C   UNL     1      -2.281   2.415  -0.406  0.00  0.00    +0.024 A 
ATOM     21  C   UNL     1      -3.822   0.616   0.041  0.00  0.00    -0.017 A 
ATOM     22  C   UNL     1      -3.547   1.977  -0.017  0.00  0.00    +0.010 A 
ATOM     33  H   UNL     1      -0.018   3.036  -1.341  0.00  0.00    +0.155 HD
ENDROOT
BRANCH  21  23
ATOM      1 CL   UNL     1      -9.223  -1.264   1.712  0.00  0.00    -0.084 Cl
ATOM     23  C   UNL     1      -5.134   0.159   0.446  0.00  0.00    -0.018 A 
ATOM     25  C   UNL     1      -6.257   0.943   0.184  0.00  0.00    +0.010 A 
ATOM     26  C   UNL     1      -5.276  -1.066   1.099  0.00  0.00    +0.010 A 
ATOM     28  C   UNL     1      -7.522   0.503   0.576  0.00  0.00    +0.020 A 
ATOM     29  C   UNL     1      -6.540  -1.506   1.490  0.00  0.00    +0.020 A 
ATOM     30  C   UNL     1      -7.663  -0.722   1.228  0.00  0.00    +0.041 A 
ENDBRANCH  21  23
BRANCH  10   6
ATOM      4  O   UNL     1       5.996   0.714  -0.252  0.00  0.00    -0.253 OA
ATOM      6  N   UNL     1       4.815  -1.270  -0.005  0.00  0.00    -0.296 N 
ATOM      8  N   UNL     1       6.976  -1.123   0.772  0.00  0.00    -0.296 N 
ATOM     18  C   UNL     1       5.934  -0.452   0.136  0.00  0.00    +0.300 C 
ATOM     32  H   UNL     1       4.842  -2.195   0.414  0.00  0.00    +0.151 HD
ATOM     34  H   UNL     1       6.826  -2.081   1.074  0.00  0.00    +0.151 HD
BRANCH   8  24
ATOM     24  C   UNL     1       8.252  -0.507   1.045  0.00  0.00    +0.132 C 
BRANCH  24  27
ATOM     27  C   UNL     1       8.204   0.143   2.388  0.00  0.00    -0.016 C 
ATOM     31  C   UNL     1       8.425   1.446   2.594  0.00  0.00    +0.005 C 
ENDBRANCH  24  27
ENDBRANCH   8  24
ENDBRANCH  10   6
TORSDOF 4
