REMARK  Name = 7142734
REMARK  5 active torsions:
REMARK  status: ('A' for Active; 'I' for Inactive)
REMARK    1  A    between atoms: O_4  and  C_22
REMARK    2  A    between atoms: O_4  and  C_24
REMARK    3  A    between atoms: N_8  and  C_20
REMARK    4  A    between atoms: N_9  and  C_27
REMARK    5  A    between atoms: C_19  and  C_22
REMARK                            x       y       z     vdW  Elec       q    Type
REMARK                         _______ _______ _______ _____ _____    ______ ____
ROOT
ATOM      2  O   UNL     1       0.102   3.013   1.738  0.00  0.00    -0.266 OA
ATOM      3  O   UNL     1      -3.989  -0.418   2.152  0.00  0.00    -0.272 OA
ATOM      6  N   UNL     1      -4.207   0.900   0.252  0.00  0.00    -0.298 N 
ATOM      7  N   UNL     1      -1.589   2.733   0.150  0.00  0.00    -0.310 N 
ATOM     10  C   UNL     1      -4.028   3.368   0.597  0.00  0.00    +0.027 C 
ATOM     11  C   UNL     1      -3.398   2.391  -1.570  0.00  0.00    +0.054 C 
ATOM     12  C   UNL     1      -4.105   3.574  -0.911  0.00  0.00    +0.018 C 
ATOM     13  C   UNL     1      -4.717   2.052   0.998  0.00  0.00    +0.113 C 
ATOM     14  C   UNL     1      -2.557   3.403   1.028  0.00  0.00    +0.130 C 
ATOM     15  C   UNL     1      -4.130   1.084  -1.205  0.00  0.00    +0.117 C 
ATOM     16  C   UNL     1      -1.948   2.308  -1.133  0.00  0.00    +0.027 A 
ATOM     17  C   UNL     1      -1.019   1.804  -1.963  0.00  0.00    +0.024 A 
ATOM     18  C   UNL     1      -0.265   2.636   0.624  0.00  0.00    +0.273 A 
ATOM     19  C   UNL     1      -3.918  -0.285   0.928  0.00  0.00    +0.253 C 
ATOM     20  C   UNL     1       0.735   2.046  -0.322  0.00  0.00    +0.100 A 
ATOM     21  C   UNL     1       0.348   1.670  -1.546  0.00  0.00    +0.030 A 
ENDROOT
BRANCH  20   8
ATOM      5  O   UNL     1       2.596   0.067  -1.163  0.00  0.00    -0.252 OA
ATOM      8  N   UNL     1       2.025   1.923   0.104  0.00  0.00    -0.265 N 
ATOM      9  N   UNL     1       4.149   1.072   0.282  0.00  0.00    -0.269 N 
ATOM     23  C   UNL     1       2.905   0.928  -0.341  0.00  0.00    +0.308 C 
ATOM     36  H   UNL     1       2.277   2.418   0.955  0.00  0.00    +0.157 HD
ATOM     37  H   UNL     1       4.242   1.843   0.939  0.00  0.00    +0.156 HD
BRANCH   9  27
ATOM      1  F   UNL     1       8.722   0.067   1.338  0.00  0.00    -0.205 F 
ATOM     27  C   UNL     1       5.305   0.276   0.110  0.00  0.00    +0.037 A 
ATOM     31  C   UNL     1       6.467   0.570   0.823  0.00  0.00    +0.061 A 
ATOM     32  C   UNL     1       5.282  -0.804  -0.772  0.00  0.00    +0.023 A 
ATOM     33  C   UNL     1       7.607  -0.216   0.653  0.00  0.00    +0.125 A 
ATOM     34  C   UNL     1       6.422  -1.590  -0.942  0.00  0.00    +0.005 A 
ATOM     35  C   UNL     1       7.584  -1.296  -0.229  0.00  0.00    +0.038 A 
ENDBRANCH   9  27
ENDBRANCH  20   8
BRANCH  19  22
ATOM     22  C   UNL     1      -3.487  -1.457   0.083  0.00  0.00    +0.324 C 
BRANCH  22   4
ATOM      4  O   UNL     1      -3.217  -2.515   0.970  0.00  0.00    -0.483 OA
BRANCH   4  24
ATOM     24  C   UNL     1      -2.751  -3.692   0.427  0.00  0.00    +0.121 A 
ATOM     25  C   UNL     1      -2.564  -3.799  -0.951  0.00  0.00    +0.045 A 
ATOM     26  C   UNL     1      -2.467  -4.777   1.256  0.00  0.00    +0.045 A 
ATOM     28  C   UNL     1      -2.092  -4.991  -1.500  0.00  0.00    +0.004 A 
ATOM     29  C   UNL     1      -1.995  -5.969   0.706  0.00  0.00    +0.004 A 
ATOM     30  C   UNL     1      -1.807  -6.076  -0.672  0.00  0.00    +0.000 A 
ENDBRANCH   4  24
ENDBRANCH  22   4
ENDBRANCH  19  22
TORSDOF 5
