REMARK  Name = 40779367
REMARK  9 active torsions:
REMARK  status: ('A' for Active; 'I' for Inactive)
REMARK    1  A    between atoms: N_4  and  C_19
REMARK    2  A    between atoms: N_5  and  C_16
REMARK    3  A    between atoms: N_7  and  C_30
REMARK    4  A    between atoms: N_7  and  C_31
REMARK    5  A    between atoms: N_7  and  C_32
REMARK    6  A    between atoms: C_9  and  C_15
REMARK    7  A    between atoms: C_10  and  C_16
REMARK    8  A    between atoms: C_18  and  C_21
REMARK    9  A    between atoms: C_20  and  C_22
REMARK                            x       y       z     vdW  Elec       q    Type
REMARK                         _______ _______ _______ _____ _____    ______ ____
ROOT
ATOM      3  N   UNL     1       1.549  -3.479   1.323  0.00  0.00    -0.297 NA
ATOM      8  C   UNL     1       1.917  -2.677  -1.128  0.00  0.00    +0.002 C 
ATOM      9  C   UNL     1       3.031  -2.118  -0.200  0.00  0.00    +0.055 C 
ATOM     10  C   UNL     1       0.288  -2.907   0.780  0.00  0.00    +0.074 C 
ATOM     11  C   UNL     1       0.538  -2.241  -0.591  0.00  0.00    +0.024 C 
ATOM     12  C   UNL     1       1.980  -4.216  -1.021  0.00  0.00    +0.019 C 
ATOM     13  C   UNL     1       2.633  -2.467   1.263  0.00  0.00    +0.094 C 
ATOM     14  C   UNL     1       1.936  -4.623   0.463  0.00  0.00    +0.085 C 
ENDROOT
BRANCH   9  15
ATOM      4  N   UNL     1       4.411  -0.242  -1.210  0.00  0.00    -0.270 N 
ATOM      6  N   UNL     1       4.613   1.086  -1.199  0.00  0.00    -0.171 NA
ATOM     15  C   UNL     1       3.431  -0.658  -0.356  0.00  0.00    +0.044 A 
ATOM     17  C   UNL     1       2.960   0.478   0.255  0.00  0.00    +0.053 A 
ATOM     18  C   UNL     1       3.723   1.521  -0.302  0.00  0.00    +0.100 A 
ATOM     19  C   UNL     1       5.210  -1.070  -2.082  0.00  0.00    +0.172 C 
BRANCH  18  21
ATOM      1  S   UNL     1       2.470   3.559   1.172  0.00  0.00    -0.095 S 
ATOM     21  C   UNL     1       3.594   2.951   0.032  0.00  0.00    +0.039 A 
ATOM     23  C   UNL     1       4.355   3.953  -0.529  0.00  0.00    +0.018 A 
ATOM     26  C   UNL     1       4.011   5.237  -0.016  0.00  0.00    +0.008 A 
ATOM     27  C   UNL     1       3.000   5.167   0.917  0.00  0.00    +0.046 A 
ENDBRANCH  18  21
ENDBRANCH   9  15
BRANCH  10  16
ATOM     16  C   UNL     1      -0.389  -1.950   1.764  0.00  0.00    +0.123 C 
BRANCH  16   5
ATOM      2  O   UNL     1      -1.167   0.759   1.218  0.00  0.00    -0.270 OA
ATOM      5  N   UNL     1      -1.653  -1.510   1.259  0.00  0.00    -0.310 N 
ATOM     20  C   UNL     1      -1.948  -0.168   1.022  0.00  0.00    +0.244 C 
ATOM     33  H   UNL     1      -2.374  -2.216   1.158  0.00  0.00    +0.149 HD
BRANCH  20  22
ATOM     22  C   UNL     1      -3.315   0.128   0.523  0.00  0.00    +0.037 A 
ATOM     24  C   UNL     1      -3.899   1.368   0.780  0.00  0.00    +0.015 A 
ATOM     25  C   UNL     1      -4.017  -0.835  -0.203  0.00  0.00    +0.015 A 
ATOM     28  C   UNL     1      -5.183   1.646   0.312  0.00  0.00    +0.024 A 
ATOM     29  C   UNL     1      -5.301  -0.558  -0.671  0.00  0.00    +0.024 A 
ATOM     30  C   UNL     1      -5.884   0.683  -0.413  0.00  0.00    +0.029 A 
BRANCH  30   7
ATOM      7  N   UNL     1      -7.182   0.963  -0.887  0.00  0.00    -0.336 N 
ATOM     31  C   UNL     1      -7.798   2.249  -0.625  0.00  0.00    +0.129 C 
ATOM     32  C   UNL     1      -7.916  -0.029  -1.649  0.00  0.00    +0.129 C 
ENDBRANCH  30   7
ENDBRANCH  20  22
ENDBRANCH  16   5
ENDBRANCH  10  16
TORSDOF 6
