REMARK  Name = 11886639
REMARK  12 active torsions:
REMARK  status: ('A' for Active; 'I' for Inactive)
REMARK    1  A    between atoms: O_3  and  C_13
REMARK    2  A    between atoms: O_3  and  C_18
REMARK    3  A    between atoms: N_5  and  C_12
REMARK    4  A    between atoms: N_8  and  C_21
REMARK    5  A    between atoms: N_9  and  C_19
REMARK    6  A    between atoms: N_9  and  C_30
REMARK    7  A    between atoms: N_9  and  C_31
REMARK    8  A    between atoms: C_17  and  C_19
REMARK    9  A    between atoms: C_20  and  C_22
REMARK   10  A    between atoms: C_20  and  C_23
REMARK   11  A    between atoms: C_20  and  C_24
REMARK   12  A    between atoms: C_20  and  C_25
REMARK                            x       y       z     vdW  Elec       q    Type
REMARK                         _______ _______ _______ _____ _____    ______ ____
ROOT
ATOM      1  O   UNL     1      -1.109  -1.351  -1.137  0.00  0.00    -0.368 OA
ATOM      2  O   UNL     1      -2.600  -3.367   0.670  0.00  0.00    -0.368 OA
ATOM     10  C   UNL     1      -2.704  -1.934   0.525  0.00  0.00    +0.177 C 
ATOM     11  C   UNL     1      -1.300  -1.415   0.285  0.00  0.00    +0.192 C 
ATOM     12  C   UNL     1      -3.454  -1.606  -0.752  0.00  0.00    +0.166 C 
ATOM     13  C   UNL     1      -0.438  -2.483   0.916  0.00  0.00    +0.235 C 
ATOM     14  C   UNL     1      -2.349  -1.624  -1.804  0.00  0.00    +0.190 C 
ATOM     15  C   UNL     1      -1.217  -3.741   0.609  0.00  0.00    +0.207 C 
ENDROOT
BRANCH  12   5
ATOM      5  N   UNL     1      -4.207  -0.354  -0.654  0.00  0.00    -0.244 N 
ATOM      6  N   UNL     1      -3.581   0.793  -0.358  0.00  0.00    -0.065 NA
ATOM      7  N   UNL     1      -4.506   1.747  -0.334  0.00  0.00    -0.133 NA
ATOM     16  C   UNL     1      -5.541  -0.176  -0.828  0.00  0.00    +0.135 A 
ATOM     17  C   UNL     1      -5.712   1.169  -0.620  0.00  0.00    +0.097 A 
BRANCH  17  19
ATOM     19  C   UNL     1      -6.945   1.965  -0.671  0.00  0.00    +0.142 C 
BRANCH  19   9
ATOM      9  N   UNL     1      -7.009   2.876   0.479  0.00  0.00    -0.303 NA
ATOM     30  C   UNL     1      -8.206   3.709   0.398  0.00  0.00    +0.105 C 
ATOM     31  C   UNL     1      -6.992   2.117   1.727  0.00  0.00    +0.105 C 
ENDBRANCH  19   9
ENDBRANCH  17  19
ENDBRANCH  12   5
BRANCH  13   3
ATOM      3  O   UNL     1       0.872  -2.529   0.399  0.00  0.00    -0.442 OA
BRANCH   3  18
ATOM      4  O   UNL     1       1.257  -0.413   1.176  0.00  0.00    -0.226 OA
ATOM      8  N   UNL     1       2.902  -1.619   0.027  0.00  0.00    -0.251 N 
ATOM     18  C   UNL     1       1.657  -1.411   0.589  0.00  0.00    +0.405 C 
ATOM     32  H   UNL     1       3.047  -2.521  -0.421  0.00  0.00    +0.158 HD
BRANCH   8  21
ATOM     21  C   UNL     1       4.003  -0.733  -0.004  0.00  0.00    +0.036 A 
ATOM     22  C   UNL     1       6.161   1.004  -0.063  0.00  0.00    -0.042 A 
ATOM     26  C   UNL     1       5.178  -1.131  -0.622  0.00  0.00    +0.024 A 
ATOM     27  C   UNL     1       3.886   0.516   0.585  0.00  0.00    +0.024 A 
ATOM     28  C   UNL     1       6.264  -0.256  -0.652  0.00  0.00    +0.006 A 
ATOM     29  C   UNL     1       4.972   1.391   0.555  0.00  0.00    +0.006 A 
BRANCH  22  20
ATOM     20  C   UNL     1       7.322   1.940  -0.096  0.00  0.00    -0.013 C 
ATOM     23  C   UNL     1       7.739   2.274  -1.561  0.00  0.00    +0.015 C 
ATOM     24  C   UNL     1       7.090   3.323   0.597  0.00  0.00    +0.015 C 
ATOM     25  C   UNL     1       8.566   1.323   0.618  0.00  0.00    +0.015 C 
ENDBRANCH  22  20
ENDBRANCH   8  21
ENDBRANCH   3  18
ENDBRANCH  13   3
TORSDOF 7
