REMARK  Name = 7142358
REMARK  6 active torsions:
REMARK  status: ('A' for Active; 'I' for Inactive)
REMARK    1  A    between atoms: C_13  and  C_14
REMARK    2  A    between atoms: C_13  and  C_19
REMARK    3  A    between atoms: C_13  and  C_20
REMARK    4  A    between atoms: C_13  and  C_21
REMARK    5  A    between atoms: C_14  and  C_15
REMARK    6  A    between atoms: C_25  and  C_27
REMARK                            x       y       z     vdW  Elec       q    Type
REMARK                         _______ _______ _______ _____ _____    ______ ____
ROOT
ATOM      1  O   UNL     1      -5.879  -0.237  -2.037  0.00  0.00    -0.276 OA
ATOM      2  O   UNL     1      -3.152  -1.796   0.352  0.00  0.00    -0.273 OA
ATOM      3  O   UNL     1       0.420   2.063   0.884  0.00  0.00    -0.270 OA
ATOM      6  N   UNL     1      -4.157   0.761  -0.835  0.00  0.00    -0.298 N 
ATOM      7  N   UNL     1      -1.362   0.939  -0.071  0.00  0.00    -0.283 N 
ATOM      8  N   UNL     1      -0.895  -1.898   0.628  0.00  0.00    -0.283 N 
ATOM      9  C   UNL     1      -1.838  -0.181  -0.870  0.00  0.00    +0.180 C 
ATOM     10  C   UNL     1      -3.109   0.154  -1.661  0.00  0.00    +0.139 C 
ATOM     11  C   UNL     1      -3.715   1.629   0.260  0.00  0.00    +0.127 C 
ATOM     12  C   UNL     1      -2.269   2.075   0.101  0.00  0.00    +0.128 C 
ATOM     15  C   UNL     1      -5.497   0.492  -1.118  0.00  0.00    +0.216 C 
ATOM     16  C   UNL     1      -2.038  -1.331   0.104  0.00  0.00    +0.239 C 
ATOM     17  C   UNL     1      -0.047   1.044   0.374  0.00  0.00    +0.249 C 
ATOM     18  C   UNL     1       0.847  -0.139   0.262  0.00  0.00    +0.059 A 
ATOM     22  C   UNL     1       0.439  -1.464   0.484  0.00  0.00    +0.046 A 
ATOM     23  C   UNL     1       2.216   0.141   0.098  0.00  0.00    +0.023 A 
ATOM     24  C   UNL     1       1.417  -2.466   0.607  0.00  0.00    +0.024 A 
ATOM     25  C   UNL     1       3.170  -0.873   0.173  0.00  0.00    -0.017 A 
ATOM     26  C   UNL     1       2.771  -2.176   0.442  0.00  0.00    +0.010 A 
ATOM     34  H   UNL     1      -1.026  -2.793   1.093  0.00  0.00    +0.155 HD
ENDROOT
BRANCH  25  27
ATOM      4  O   UNL     1       7.044   2.111   0.439  0.00  0.00    -0.453 OA
ATOM      5  O   UNL     1       8.528   0.436  -0.456  0.00  0.00    -0.453 OA
ATOM     27  C   UNL     1       4.572  -0.566  -0.003  0.00  0.00    -0.014 A 
ATOM     28  C   UNL     1       5.055   0.698   0.346  0.00  0.00    +0.058 A 
ATOM     29  C   UNL     1       5.439  -1.542  -0.525  0.00  0.00    +0.012 A 
ATOM     30  C   UNL     1       6.400   0.945   0.159  0.00  0.00    +0.167 A 
ATOM     31  C   UNL     1       7.247  -0.011  -0.351  0.00  0.00    +0.166 A 
ATOM     32  C   UNL     1       6.797  -1.267  -0.704  0.00  0.00    +0.050 A 
ATOM     33  C   UNL     1       8.392   1.781   0.047  0.00  0.00    +0.466 C 
ENDBRANCH  25  27
BRANCH  15  14
ATOM     14  C   UNL     1      -6.512   1.157  -0.222  0.00  0.00    +0.102 C 
BRANCH  14  13
ATOM     13  C   UNL     1      -7.368   0.147   0.563  0.00  0.00    -0.029 C 
ATOM     19  C   UNL     1      -8.143  -0.781  -0.387  0.00  0.00    +0.011 C 
ATOM     20  C   UNL     1      -8.358   0.865   1.497  0.00  0.00    +0.011 C 
ATOM     21  C   UNL     1      -6.417  -0.710   1.420  0.00  0.00    +0.011 C 
ENDBRANCH  14  13
ENDBRANCH  15  14
TORSDOF 3
