REMARK  Name = 7050317
REMARK  4 active torsions:
REMARK  status: ('A' for Active; 'I' for Inactive)
REMARK    1  A    between atoms: N_6  and  C_16
REMARK    2  A    between atoms: N_7  and  C_11
REMARK    3  A    between atoms: C_16  and  C_18
REMARK    4  A    between atoms: C_17  and  C_19
REMARK                            x       y       z     vdW  Elec       q    Type
REMARK                         _______ _______ _______ _____ _____    ______ ____
ROOT
ATOM      2  O   UNL     1      -2.462  -2.301   0.267  0.00  0.00    -0.273 OA
ATOM      3  O   UNL     1      -3.761   1.856  -1.237  0.00  0.00    -0.252 OA
ATOM      5  N   UNL     1      -1.695   0.975  -0.570  0.00  0.00    -0.273 N 
ATOM      6  N   UNL     1      -3.469  -0.367  -0.576  0.00  0.00    -0.223 N 
ATOM      9  C   UNL     1      -1.162  -0.288  -0.113  0.00  0.00    +0.166 C 
ATOM     10  C   UNL     1      -0.522  -0.137   1.263  0.00  0.00    +0.054 C 
ATOM     11  C   UNL     1       0.474   1.036   1.292  0.00  0.00    +0.077 C 
ATOM     12  C   UNL     1      -0.177   2.332   0.773  0.00  0.00    +0.041 C 
ATOM     13  C   UNL     1      -0.837   2.145  -0.595  0.00  0.00    +0.112 C 
ATOM     14  C   UNL     1      -2.425  -1.135  -0.103  0.00  0.00    +0.244 C 
ATOM     15  C   UNL     1      -3.061   0.928  -0.850  0.00  0.00    +0.312 C 
ENDROOT
BRANCH  11   7
ATOM      4  O   UNL     1       2.764  -0.259   2.309  0.00  0.00    -0.270 OA
ATOM      7  N   UNL     1       1.670   0.721   0.543  0.00  0.00    -0.308 N 
ATOM     17  C   UNL     1       2.760   0.077   1.123  0.00  0.00    +0.244 C 
ATOM     24  H   UNL     1       1.695   1.002  -0.431  0.00  0.00    +0.149 HD
BRANCH  17  19
ATOM      8  N   UNL     1       6.022  -0.737  -1.476  0.00  0.00    -0.263 NA
ATOM     19  C   UNL     1       3.889  -0.204   0.224  0.00  0.00    +0.040 A 
ATOM     20  C   UNL     1       5.167  -0.302   0.743  0.00  0.00    +0.033 A 
ATOM     21  C   UNL     1       3.658  -0.368  -1.129  0.00  0.00    +0.033 A 
ATOM     22  C   UNL     1       6.196  -0.569  -0.146  0.00  0.00    +0.111 A 
ATOM     23  C   UNL     1       4.755  -0.631  -1.934  0.00  0.00    +0.111 A 
ENDBRANCH  17  19
ENDBRANCH  11   7
BRANCH   6  16
ATOM     16  C   UNL     1      -4.833  -0.835  -0.718  0.00  0.00    +0.134 C 
BRANCH  16  18
ATOM      1 CL   UNL     1      -7.309  -1.262   0.349  0.00  0.00    -0.124 Cl
ATOM     18  C   UNL     1      -5.641  -0.672   0.559  0.00  0.00    +0.128 C 
ENDBRANCH  16  18
ENDBRANCH   6  16
TORSDOF 4
