REMARK  Name = 75368519
REMARK  7 active torsions:
REMARK  status: ('A' for Active; 'I' for Inactive)
REMARK    1  A    between atoms: O_3  and  C_24
REMARK    2  A    between atoms: N_6  and  C_14
REMARK    3  A    between atoms: C_14  and  C_16
REMARK    4  A    between atoms: C_15  and  C_17
REMARK    5  A    between atoms: C_17  and  C_18
REMARK    6  A    between atoms: C_18  and  C_24
REMARK    7  A    between atoms: C_23  and  C_25
REMARK                            x       y       z     vdW  Elec       q    Type
REMARK                         _______ _______ _______ _____ _____    ______ ____
ROOT
ATOM      1  O   UNL     1       2.159  -2.945   0.320  0.00  0.00    -0.252 OA
ATOM      2  O   UNL     1      -4.407  -1.412  -1.408  0.00  0.00    -0.276 OA
ATOM      5  N   UNL     1       0.094  -1.824   0.301  0.00  0.00    -0.278 N 
ATOM      6  N   UNL     1       1.834  -0.835   1.322  0.00  0.00    -0.279 N 
ATOM      7  N   UNL     1      -2.259  -0.798  -0.773  0.00  0.00    -0.298 N 
ATOM      8  C   UNL     1      -0.466  -0.625   0.898  0.00  0.00    +0.112 C 
ATOM      9  C   UNL     1       0.758   0.138   1.399  0.00  0.00    +0.133 C 
ATOM     10  C   UNL     1      -1.316   0.130  -0.121  0.00  0.00    +0.132 C 
ATOM     11  C   UNL     1      -0.768  -2.737  -0.427  0.00  0.00    +0.128 C 
ATOM     12  C   UNL     1      -1.629  -1.959  -1.419  0.00  0.00    +0.127 C 
ATOM     13  C   UNL     1       1.450  -1.991   0.614  0.00  0.00    +0.306 C 
ATOM     15  C   UNL     1      -3.642  -0.633  -0.834  0.00  0.00    +0.216 C 
ENDROOT
BRANCH   6  14
ATOM     14  C   UNL     1       3.164  -0.545   1.809  0.00  0.00    +0.144 C 
BRANCH  14  16
ATOM     16  C   UNL     1       3.967   0.245   0.816  0.00  0.00    -0.030 A 
ATOM     19  C   UNL     1       4.494  -0.383  -0.312  0.00  0.00    +0.005 A 
ATOM     20  C   UNL     1       4.187   1.607   1.024  0.00  0.00    +0.005 A 
ATOM     21  C   UNL     1       5.242   0.351  -1.232  0.00  0.00    +0.003 A 
ATOM     22  C   UNL     1       4.935   2.341   0.103  0.00  0.00    +0.003 A 
ATOM     23  C   UNL     1       5.462   1.713  -1.025  0.00  0.00    -0.050 A 
ATOM     25  C   UNL     1       6.263   2.496  -2.010  0.00  0.00    +0.044 C 
ENDBRANCH  14  16
ENDBRANCH   6  14
BRANCH  15  17
ATOM     17  C   UNL     1      -4.206   0.582  -0.143  0.00  0.00    +0.107 C 
BRANCH  17  18
ATOM     18  C   UNL     1      -5.713   0.612  -0.303  0.00  0.00    +0.129 C 
BRANCH  18  24
ATOM      4  O   UNL     1      -5.645   2.709   0.896  0.00  0.00    -0.251 OA
ATOM     24  C   UNL     1      -6.303   1.853   0.318  0.00  0.00    +0.305 C 
BRANCH  24   3
ATOM      3  O   UNL     1      -7.652   1.911   0.189  0.00  0.00    -0.481 OA
ATOM     26  H   UNL     1      -8.026   2.716   0.606  0.00  0.00    +0.295 HD
ENDBRANCH  24   3
ENDBRANCH  18  24
ENDBRANCH  17  18
ENDBRANCH  15  17
TORSDOF 6
