REMARK  Name = 45783947
REMARK  13 active torsions:
REMARK  status: ('A' for Active; 'I' for Inactive)
REMARK    1  A    between atoms: S_1  and  N_6
REMARK    2  A    between atoms: S_1  and  C_22
REMARK    3  A    between atoms: N_6  and  C_16
REMARK    4  A    between atoms: C_9  and  C_13
REMARK    5  A    between atoms: C_10  and  C_16
REMARK    6  A    between atoms: C_12  and  C_17
REMARK    7  A    between atoms: C_13  and  C_18
REMARK    8  A    between atoms: C_13  and  C_19
REMARK    9  A    between atoms: C_14  and  C_20
REMARK   10  A    between atoms: C_17  and  C_21
REMARK   11  A    between atoms: C_22  and  C_23
REMARK   12  A    between atoms: C_23  and  C_25
REMARK   13  A    between atoms: C_24  and  C_26
REMARK                            x       y       z     vdW  Elec       q    Type
REMARK                         _______ _______ _______ _____ _____    ______ ____
ROOT
ATOM      9  C   UNL     1       1.121   0.890  -1.251  0.00  0.00    +0.000 C 
ATOM     10  C   UNL     1       2.529   1.535  -1.205  0.00  0.00    +0.030 C 
ATOM     11  C   UNL     1       0.033   1.972  -1.184  0.00  0.00    +0.012 C 
ATOM     12  C   UNL     1       0.137   2.825   0.094  0.00  0.00    +0.024 C 
ATOM     14  C   UNL     1       1.559   3.278   0.354  0.00  0.00    -0.073 C 
ATOM     15  C   UNL     1       2.614   2.699  -0.246  0.00  0.00    -0.023 C 
ATOM     20  C   UNL     1       1.738   4.445   1.285  0.00  0.00    +0.039 C 
ENDROOT
BRANCH   9  13
ATOM     13  C   UNL     1       0.927   0.037  -2.509  0.00  0.00    -0.013 C 
ATOM     18  C   UNL     1       0.561   0.918  -3.699  0.00  0.00    +0.007 C 
ATOM     19  C   UNL     1      -0.143  -1.025  -2.272  0.00  0.00    +0.007 C 
ENDBRANCH   9  13
BRANCH  10  16
ATOM     16  C   UNL     1       3.600   0.499  -0.848  0.00  0.00    +0.113 C 
BRANCH  16   6
ATOM      6  N   UNL     1       3.373   0.026   0.526  0.00  0.00    -0.194 NA
ATOM     32  H   UNL     1       3.546   0.741   1.245  0.00  0.00    +0.148 HD
BRANCH   6   1
ATOM      1  S   UNL     1       3.827  -1.566   0.948  0.00  0.00    +0.029 S 
ATOM      4  O   UNL     1       3.111  -2.516   0.120  0.00  0.00    -0.158 OA
ATOM      5  O   UNL     1       3.813  -1.683   2.394  0.00  0.00    -0.158 OA
BRANCH   1  22
ATOM     22  C   UNL     1       5.529  -1.566   0.433  0.00  0.00    +0.185 C 
BRANCH  22  23
ATOM     23  C   UNL     1       6.190  -2.907   0.704  0.00  0.00    +0.021 C 
ATOM     25  C   UNL     1       7.650  -2.904   0.282  0.00  0.00    +0.005 C 
ENDBRANCH  22  23
ENDBRANCH   1  22
ENDBRANCH   6   1
ENDBRANCH  16   6
ENDBRANCH  10  16
BRANCH  12  17
ATOM     17  C   UNL     1      -0.430   2.076   1.305  0.00  0.00    +0.105 C 
BRANCH  17  21
ATOM      3  O   UNL     1      -2.063   0.339   0.783  0.00  0.00    -0.420 OA
ATOM      7  N   UNL     1      -2.953   2.367   1.103  0.00  0.00    -0.112 NA
ATOM      8  N   UNL     1      -3.982   1.489   0.818  0.00  0.00    -0.107 NA
ATOM     21  C   UNL     1      -1.852   1.652   1.072  0.00  0.00    +0.218 A 
ATOM     24  C   UNL     1      -3.416   0.318   0.638  0.00  0.00    +0.251 A 
BRANCH  24  26
ATOM      2  F   UNL     1      -6.177  -0.015   0.286  0.00  0.00    -0.205 F 
ATOM     26  C   UNL     1      -3.993  -0.956   0.320  0.00  0.00    +0.074 A 
ATOM     27  C   UNL     1      -5.372  -1.080   0.153  0.00  0.00    +0.136 A 
ATOM     28  C   UNL     1      -3.170  -2.073   0.178  0.00  0.00    +0.016 A 
ATOM     29  C   UNL     1      -5.929  -2.321  -0.156  0.00  0.00    +0.039 A 
ATOM     30  C   UNL     1      -3.727  -3.315  -0.131  0.00  0.00    +0.001 A 
ATOM     31  C   UNL     1      -5.106  -3.438  -0.298  0.00  0.00    +0.003 A 
ENDBRANCH  24  26
ENDBRANCH  17  21
ENDBRANCH  12  17
TORSDOF 9
