REMARK  Name = 11866346
REMARK  8 active torsions:
REMARK  status: ('A' for Active; 'I' for Inactive)
REMARK    1  A    between atoms: O_2  and  C_11
REMARK    2  A    between atoms: O_3  and  C_13
REMARK    3  A    between atoms: N_7  and  C_12
REMARK    4  A    between atoms: N_8  and  C_19
REMARK    5  A    between atoms: N_9  and  C_21
REMARK    6  A    between atoms: C_15  and  C_17
REMARK    7  A    between atoms: C_19  and  C_20
REMARK    8  A    between atoms: C_20  and  C_22
REMARK                            x       y       z     vdW  Elec       q    Type
REMARK                         _______ _______ _______ _____ _____    ______ ____
ROOT
ATOM     11  C   UNL     1       0.686   2.783   0.585  0.00  0.00    +0.167 C 
ATOM     12  C   UNL     1       0.553   1.534  -0.307  0.00  0.00    +0.129 C 
ATOM     13  C   UNL     1       2.014   3.510   0.341  0.00  0.00    +0.149 C 
ATOM     14  C   UNL     1       3.226   2.584   0.538  0.00  0.00    +0.074 C 
ATOM     15  C   UNL     1       3.001   1.190   0.024  0.00  0.00    +0.015 C 
ATOM     16  C   UNL     1       1.811   0.710  -0.367  0.00  0.00    +0.006 C 
ENDROOT
BRANCH  12   7
ATOM      5  O   UNL     1      -2.174   1.701  -1.165  0.00  0.00    -0.252 OA
ATOM      7  N   UNL     1      -0.537   0.690   0.117  0.00  0.00    -0.290 N 
ATOM      9  N   UNL     1      -2.685  -0.116   0.231  0.00  0.00    -0.269 N 
ATOM     18  C   UNL     1      -1.847   0.839  -0.353  0.00  0.00    +0.304 C 
ATOM     28  H   UNL     1      -0.360  -0.013   0.829  0.00  0.00    +0.151 HD
ATOM     32  H   UNL     1      -2.253  -0.761   0.887  0.00  0.00    +0.156 HD
BRANCH   9  21
ATOM      1  F   UNL     1      -6.772  -2.464   1.141  0.00  0.00    -0.205 F 
ATOM     21  C   UNL     1      -4.071  -0.299   0.021  0.00  0.00    +0.037 A 
ATOM     23  C   UNL     1      -4.751  -1.312   0.697  0.00  0.00    +0.061 A 
ATOM     24  C   UNL     1      -4.759   0.533  -0.862  0.00  0.00    +0.023 A 
ATOM     25  C   UNL     1      -6.119  -1.492   0.491  0.00  0.00    +0.125 A 
ATOM     26  C   UNL     1      -6.127   0.353  -1.069  0.00  0.00    +0.005 A 
ATOM     27  C   UNL     1      -6.807  -0.660  -0.392  0.00  0.00    +0.038 A 
ENDBRANCH   9  21
ENDBRANCH  12   7
BRANCH  15  17
ATOM      4  O   UNL     1       5.125   0.594  -0.784  0.00  0.00    -0.271 OA
ATOM      8  N   UNL     1       4.022  -0.855   0.671  0.00  0.00    -0.311 N 
ATOM     17  C   UNL     1       4.159   0.298  -0.082  0.00  0.00    +0.240 C 
ATOM     31  H   UNL     1       3.183  -0.998   1.226  0.00  0.00    +0.149 HD
BRANCH   8  19
ATOM     19  C   UNL     1       5.033  -1.887   0.725  0.00  0.00    +0.113 C 
BRANCH  19  20
ATOM     20  C   UNL     1       4.835  -2.945  -0.352  0.00  0.00    +0.114 C 
BRANCH  20  22
ATOM      6  O   UNL     1       2.672  -3.455   0.629  0.00  0.00    -0.276 OA
ATOM     10  N   UNL     1       3.352  -4.626  -1.228  0.00  0.00    -0.329 N 
ATOM     22  C   UNL     1       3.508  -3.675  -0.242  0.00  0.00    +0.212 C 
ATOM     33  H   UNL     1       2.514  -5.195  -1.276  0.00  0.00    +0.145 HD
ATOM     34  H   UNL     1       4.059  -4.794  -1.937  0.00  0.00    +0.145 HD
ENDBRANCH  20  22
ENDBRANCH  19  20
ENDBRANCH   8  19
ENDBRANCH  15  17
BRANCH  11   2
ATOM      2  O   UNL     1       0.618   2.399   1.960  0.00  0.00    -0.387 OA
ATOM     29  H   UNL     1       0.675   3.211   2.493  0.00  0.00    +0.210 HD
ENDBRANCH  11   2
BRANCH  13   3
ATOM      3  O   UNL     1       2.034   4.069  -0.971  0.00  0.00    -0.389 OA
ATOM     30  H   UNL     1       2.868   4.558  -1.070  0.00  0.00    +0.210 HD
ENDBRANCH  13   3
TORSDOF 8
