REMARK  Name = 75536759
REMARK  6 active torsions:
REMARK  status: ('A' for Active; 'I' for Inactive)
REMARK    1  A    between atoms: O_2  and  C_11
REMARK    2  A    between atoms: N_5  and  C_10
REMARK    3  A    between atoms: N_5  and  C_15
REMARK    4  A    between atoms: N_6  and  C_14
REMARK    5  A    between atoms: C_12  and  C_14
REMARK    6  A    between atoms: C_15  and  C_19
REMARK                            x       y       z     vdW  Elec       q    Type
REMARK                         _______ _______ _______ _____ _____    ______ ____
ROOT
ATOM      1  O   UNL     1      -0.035   0.984   0.014  0.00  0.00    -0.371 OA
ATOM     10  C   UNL     1       2.010  -0.172  -0.334  0.00  0.00    +0.111 C 
ATOM     11  C   UNL     1       1.065  -1.063   0.451  0.00  0.00    +0.164 C 
ATOM     12  C   UNL     1      -0.279  -0.428   0.121  0.00  0.00    +0.165 C 
ATOM     13  C   UNL     1       1.381   1.195  -0.120  0.00  0.00    +0.181 C 
ENDROOT
BRANCH  11   2
ATOM      2  O   UNL     1       1.124  -2.416   0.042  0.00  0.00    -0.388 OA
ATOM     26  H   UNL     1       0.939  -2.455  -0.912  0.00  0.00    +0.210 HD
ENDBRANCH  11   2
BRANCH  10   5
ATOM      5  N   UNL     1       3.389  -0.239   0.122  0.00  0.00    -0.304 NA
ATOM     24  H   UNL     1       3.646  -1.217   0.261  0.00  0.00    +0.123 HD
BRANCH   5  15
ATOM     15  C   UNL     1       4.294   0.356  -0.853  0.00  0.00    +0.136 C 
BRANCH  15  19
ATOM      8  N   UNL     1       6.489   1.434  -0.237  0.00  0.00    -0.347 N 
ATOM      9  N   UNL     1       7.797  -0.271   0.324  0.00  0.00    -0.244 NA
ATOM     19  C   UNL     1       5.726   0.311  -0.390  0.00  0.00    +0.049 A 
ATOM     22  C   UNL     1       6.555  -0.728  -0.038  0.00  0.00    +0.134 A 
ATOM     23  C   UNL     1       7.724   1.035   0.192  0.00  0.00    +0.196 A 
ATOM     27  H   UNL     1       6.198   2.387  -0.410  0.00  0.00    +0.167 HD
ENDBRANCH  15  19
ENDBRANCH   5  15
ENDBRANCH  10   5
BRANCH  12  14
ATOM     14  C   UNL     1      -1.341  -0.688   1.174  0.00  0.00    +0.140 C 
BRANCH  14   6
ATOM      3  O   UNL     1      -7.329   1.127  -0.253  0.00  0.00    -0.377 OA
ATOM      4  O   UNL     1      -3.400  -1.879  -0.329  0.00  0.00    -0.253 OA
ATOM      6  N   UNL     1      -2.598  -0.065   0.824  0.00  0.00    -0.297 N 
ATOM      7  N   UNL     1      -4.732   0.015  -0.190  0.00  0.00    -0.281 N 
ATOM     16  C   UNL     1      -3.566  -0.724   0.076  0.00  0.00    +0.302 C 
ATOM     17  C   UNL     1      -4.947   1.436   0.120  0.00  0.00    +0.137 C 
ATOM     18  C   UNL     1      -5.802  -0.599  -0.978  0.00  0.00    +0.137 C 
ATOM     20  C   UNL     1      -6.360   1.668   0.645  0.00  0.00    +0.179 C 
ATOM     21  C   UNL     1      -7.166  -0.286  -0.383  0.00  0.00    +0.179 C 
ATOM     25  H   UNL     1      -2.724   0.886   1.140  0.00  0.00    +0.150 HD
ENDBRANCH  14   6
ENDBRANCH  12  14
TORSDOF 6
