REMARK  Name = 11912967
REMARK  3 active torsions:
REMARK  status: ('A' for Active; 'I' for Inactive)
REMARK    1  A    between atoms: N_6  and  C_13
REMARK    2  A    between atoms: N_7  and  C_14
REMARK    3  A    between atoms: C_23  and  C_26
REMARK                            x       y       z     vdW  Elec       q    Type
REMARK                         _______ _______ _______ _____ _____    ______ ____
ROOT
ATOM      1  O   UNL     1       0.211  -1.030   1.774  0.00  0.00    -0.370 OA
ATOM      2  O   UNL     1       0.646  -3.511  -0.034  0.00  0.00    -0.370 OA
ATOM     11  C   UNL     1       1.018  -2.128  -0.172  0.00  0.00    +0.171 C 
ATOM     12  C   UNL     1      -0.117  -1.300   0.400  0.00  0.00    +0.171 C 
ATOM     13  C   UNL     1       2.196  -1.810   0.721  0.00  0.00    +0.131 C 
ATOM     14  C   UNL     1      -1.316  -2.216   0.321  0.00  0.00    +0.130 C 
ATOM     15  C   UNL     1       1.516  -1.558   2.058  0.00  0.00    +0.185 C 
ATOM     16  C   UNL     1      -0.694  -3.592   0.475  0.00  0.00    +0.185 C 
ENDROOT
BRANCH  13   6
ATOM      3  O   UNL     1       4.881  -1.133   1.225  0.00  0.00    -0.253 OA
ATOM      4  O   UNL     1       6.046   2.928  -1.317  0.00  0.00    -0.377 OA
ATOM      6  N   UNL     1       2.860  -0.605   0.276  0.00  0.00    -0.292 N 
ATOM      8  N   UNL     1       4.695   0.871   0.073  0.00  0.00    -0.281 N 
ATOM     17  C   UNL     1       4.194  -0.344   0.568  0.00  0.00    +0.303 C 
ATOM     19  C   UNL     1       6.034   1.308   0.475  0.00  0.00    +0.137 C 
ATOM     20  C   UNL     1       3.946   1.862  -0.714  0.00  0.00    +0.137 C 
ATOM     21  C   UNL     1       6.800   1.878  -0.708  0.00  0.00    +0.179 C 
ATOM     22  C   UNL     1       4.811   2.430  -1.833  0.00  0.00    +0.179 C 
ATOM     30  H   UNL     1       2.272   0.120  -0.112  0.00  0.00    +0.151 HD
ENDBRANCH  13   6
BRANCH  14   7
ATOM      7  N   UNL     1      -1.947  -2.093  -0.975  0.00  0.00    -0.306 N 
ATOM      9  N   UNL     1      -3.222  -0.241  -0.302  0.00  0.00    -0.211 NA
ATOM     10  N   UNL     1      -3.399  -1.118  -2.539  0.00  0.00    -0.223 NA
ATOM     18  C   UNL     1      -2.884  -1.122  -1.281  0.00  0.00    +0.216 A 
ATOM     23  C   UNL     1      -4.137   0.692  -0.635  0.00  0.00    +0.111 A 
ATOM     24  C   UNL     1      -4.309  -0.158  -2.804  0.00  0.00    +0.116 A 
ATOM     25  C   UNL     1      -4.720   0.783  -1.883  0.00  0.00    +0.051 A 
ATOM     31  H   UNL     1      -1.665  -2.711  -1.727  0.00  0.00    +0.149 HD
BRANCH  23  26
ATOM      5  O   UNL     1      -3.827   1.403   1.596  0.00  0.00    -0.461 OA
ATOM     26  C   UNL     1      -4.475   1.609   0.421  0.00  0.00    +0.153 A 
ATOM     27  C   UNL     1      -5.331   2.678   0.517  0.00  0.00    +0.051 A 
ATOM     28  C   UNL     1      -5.202   3.164   1.840  0.00  0.00    +0.042 A 
ATOM     29  C   UNL     1      -4.275   2.355   2.456  0.00  0.00    +0.196 A 
ENDBRANCH  23  26
ENDBRANCH  14   7
TORSDOF 3
