REMARK  Name = 28991371
REMARK  7 active torsions:
REMARK  status: ('A' for Active; 'I' for Inactive)
REMARK    1  A    between atoms: O_3  and  C_20
REMARK    2  A    between atoms: O_3  and  C_32
REMARK    3  A    between atoms: N_7  and  C_11
REMARK    4  A    between atoms: N_7  and  C_21
REMARK    5  A    between atoms: C_9  and  C_17
REMARK    6  A    between atoms: C_13  and  C_20
REMARK    7  A    between atoms: C_21  and  C_29
REMARK                            x       y       z     vdW  Elec       q    Type
REMARK                         _______ _______ _______ _____ _____    ______ ____
ROOT
ATOM      5  N   UNL     1      -0.558  -0.612   0.044  0.00  0.00    -0.274 NA
ATOM      6  N   UNL     1      -2.132   2.795  -0.103  0.00  0.00    -0.356 N 
ATOM      8  C   UNL     1      -0.588   0.788  -0.480  0.00  0.00    +0.106 C 
ATOM      9  C   UNL     1       0.670  -1.335  -0.373  0.00  0.00    +0.090 C 
ATOM     10  C   UNL     1       0.645   1.573  -0.004  0.00  0.00    +0.044 C 
ATOM     11  C   UNL     1       1.929   0.880  -0.460  0.00  0.00    +0.058 C 
ATOM     12  C   UNL     1       1.942  -0.561   0.050  0.00  0.00    +0.042 C 
ATOM     13  C   UNL     1      -1.829  -1.349  -0.199  0.00  0.00    +0.172 C 
ATOM     14  C   UNL     1      -1.864   1.455  -0.062  0.00  0.00    +0.038 A 
ATOM     15  C   UNL     1      -3.045  -0.679   0.490  0.00  0.00    +0.068 C 
ATOM     16  C   UNL     1      -3.000   0.804   0.365  0.00  0.00    -0.016 A 
ATOM     18  C   UNL     1      -3.991   1.787   0.630  0.00  0.00    +0.003 A 
ATOM     19  C   UNL     1      -3.420   3.028   0.329  0.00  0.00    +0.047 A 
ATOM     24  C   UNL     1      -5.322   1.748   1.092  0.00  0.00    +0.010 A 
ATOM     25  C   UNL     1      -4.118   4.233   0.471  0.00  0.00    +0.026 A 
ATOM     26  C   UNL     1      -6.030   2.946   1.240  0.00  0.00    +0.001 A 
ATOM     30  C   UNL     1      -5.435   4.169   0.933  0.00  0.00    +0.002 A 
ATOM     36  H   UNL     1      -1.487   3.514  -0.401  0.00  0.00    +0.166 HD
ENDROOT
BRANCH   9  17
ATOM      2  F   UNL     1       1.086  -6.576   1.712  0.00  0.00    -0.205 F 
ATOM     17  C   UNL     1       0.782  -2.750   0.190  0.00  0.00    -0.030 A 
ATOM     22  C   UNL     1       1.388  -3.754  -0.565  0.00  0.00    +0.008 A 
ATOM     23  C   UNL     1       0.279  -3.038   1.459  0.00  0.00    +0.008 A 
ATOM     27  C   UNL     1       1.491  -5.047  -0.051  0.00  0.00    +0.038 A 
ATOM     28  C   UNL     1       0.381  -4.331   1.972  0.00  0.00    +0.038 A 
ATOM     31  C   UNL     1       0.987  -5.335   1.218  0.00  0.00    +0.123 A 
ENDBRANCH   9  17
BRANCH  13  20
ATOM      4  O   UNL     1      -1.319  -1.084  -2.541  0.00  0.00    -0.249 OA
ATOM     20  C   UNL     1      -2.069  -1.511  -1.673  0.00  0.00    +0.325 C 
BRANCH  20   3
ATOM      3  O   UNL     1      -3.231  -2.196  -1.873  0.00  0.00    -0.467 OA
ATOM     32  C   UNL     1      -3.583  -2.423  -3.241  0.00  0.00    +0.280 C 
ENDBRANCH  20   3
ENDBRANCH  13  20
BRANCH  11   7
ATOM      7  N   UNL     1       3.096   1.615   0.025  0.00  0.00    -0.309 NA
ATOM     37  H   UNL     1       2.917   2.617  -0.047  0.00  0.00    +0.123 HD
BRANCH   7  21
ATOM     21  C   UNL     1       4.272   1.296  -0.769  0.00  0.00    +0.123 C 
BRANCH  21  29
ATOM      1  S   UNL     1       6.325   3.075  -1.365  0.00  0.00    -0.100 S 
ATOM     29  C   UNL     1       5.491   2.038  -0.288  0.00  0.00    +0.004 A 
ATOM     33  C   UNL     1       6.076   2.010   0.959  0.00  0.00    +0.012 A 
ATOM     34  C   UNL     1       7.223   2.851   1.031  0.00  0.00    +0.008 A 
ATOM     35  C   UNL     1       7.472   3.490  -0.164  0.00  0.00    +0.045 A 
ENDBRANCH  21  29
ENDBRANCH   7  21
ENDBRANCH  11   7
TORSDOF 6
