REMARK  Name = 40777964
REMARK  8 active torsions:
REMARK  status: ('A' for Active; 'I' for Inactive)
REMARK    1  A    between atoms: O_2  and  C_9
REMARK    2  A    between atoms: O_3  and  C_10
REMARK    3  A    between atoms: N_7  and  C_14
REMARK    4  A    between atoms: N_8  and  C_17
REMARK    5  A    between atoms: C_11  and  C_13
REMARK    6  A    between atoms: C_12  and  C_14
REMARK    7  A    between atoms: C_13  and  C_15
REMARK    8  A    between atoms: C_16  and  C_18
REMARK                            x       y       z     vdW  Elec       q    Type
REMARK                         _______ _______ _______ _____ _____    ______ ____
ROOT
ATOM      1  O   UNL     1      -2.292   1.009   0.913  0.00  0.00    -0.366 OA
ATOM      9  C   UNL     1      -3.471   1.538  -1.084  0.00  0.00    +0.175 C 
ATOM     10  C   UNL     1      -3.813   0.126  -0.658  0.00  0.00    +0.176 C 
ATOM     11  C   UNL     1      -2.201   1.812  -0.286  0.00  0.00    +0.159 C 
ATOM     12  C   UNL     1      -3.446   0.155   0.816  0.00  0.00    +0.167 C 
ENDROOT
BRANCH   9   2
ATOM      2  O   UNL     1      -4.478   2.447  -0.640  0.00  0.00    -0.387 OA
ATOM     27  H   UNL     1      -4.198   3.341  -0.901  0.00  0.00    +0.210 HD
ENDBRANCH   9   2
BRANCH  10   3
ATOM      3  O   UNL     1      -5.170  -0.207  -0.860  0.00  0.00    -0.387 OA
ATOM     28  H   UNL     1      -5.364  -0.082  -1.804  0.00  0.00    +0.210 HD
ENDBRANCH  10   3
BRANCH  11  13
ATOM     13  C   UNL     1      -0.933   1.405  -1.025  0.00  0.00    +0.130 C 
BRANCH  13  15
ATOM      4  O   UNL     1       0.277   2.002   0.970  0.00  0.00    -0.275 OA
ATOM      8  N   UNL     1       1.444   1.149  -0.882  0.00  0.00    -0.285 N 
ATOM     15  C   UNL     1       0.319   1.563  -0.175  0.00  0.00    +0.220 C 
ATOM     30  H   UNL     1       1.302   0.807  -1.830  0.00  0.00    +0.155 HD
BRANCH   8  17
ATOM     17  C   UNL     1       2.788   1.142  -0.438  0.00  0.00    +0.033 A 
ATOM     19  C   UNL     1       3.800   0.690  -1.285  0.00  0.00    +0.023 A 
ATOM     20  C   UNL     1       3.100   1.587   0.846  0.00  0.00    +0.023 A 
ATOM     22  C   UNL     1       5.124   0.682  -0.847  0.00  0.00    +0.002 A 
ATOM     23  C   UNL     1       4.424   1.580   1.284  0.00  0.00    +0.002 A 
ATOM     26  C   UNL     1       5.436   1.127   0.437  0.00  0.00    +0.000 A 
ENDBRANCH   8  17
ENDBRANCH  13  15
ENDBRANCH  11  13
BRANCH  12  14
ATOM     14  C   UNL     1      -3.117  -1.215   1.382  0.00  0.00    +0.138 C 
BRANCH  14   7
ATOM      5  O   UNL     1      -0.340  -0.953   2.063  0.00  0.00    -0.267 OA
ATOM      7  N   UNL     1      -2.008  -1.807   0.694  0.00  0.00    -0.306 N 
ATOM     16  C   UNL     1      -0.687  -1.626   1.095  0.00  0.00    +0.279 C 
ATOM     29  H   UNL     1      -2.199  -2.382  -0.121  0.00  0.00    +0.149 HD
BRANCH  16  18
ATOM      6  O   UNL     1      -0.064  -3.003  -0.817  0.00  0.00    -0.458 OA
ATOM     18  C   UNL     1       0.350  -2.285   0.260  0.00  0.00    +0.189 A 
ATOM     21  C   UNL     1       1.721  -2.316   0.364  0.00  0.00    +0.054 A 
ATOM     24  C   UNL     1       2.180  -3.103  -0.720  0.00  0.00    +0.042 A 
ATOM     25  C   UNL     1       1.056  -3.497  -1.408  0.00  0.00    +0.196 A 
ENDBRANCH  16  18
ENDBRANCH  14   7
ENDBRANCH  12  14
TORSDOF 8
