REMARK  Name = 51137898
REMARK  5 active torsions:
REMARK  status: ('A' for Active; 'I' for Inactive)
REMARK    1  A    between atoms: N_1  and  C_10
REMARK    2  A    between atoms: N_2  and  C_14
REMARK    3  A    between atoms: C_5  and  C_9
REMARK    4  A    between atoms: C_10  and  C_12
REMARK    5  A    between atoms: C_23  and  C_24
REMARK                            x       y       z     vdW  Elec       q    Type
REMARK                         _______ _______ _______ _____ _____    ______ ____
ROOT
ATOM      1  N   UNL     1       0.246  -0.183  -0.264  0.00  0.00    -0.297 NA
ATOM      5  C   UNL     1       2.395  -0.623   0.566  0.00  0.00    +0.070 C 
ATOM      6  C   UNL     1       1.620   0.240   1.576  0.00  0.00    +0.028 C 
ATOM      7  C   UNL     1       1.593  -0.510  -0.738  0.00  0.00    +0.096 C 
ATOM      8  C   UNL     1       0.448   0.812   0.788  0.00  0.00    +0.085 C 
ENDROOT
BRANCH   5   9
ATOM      2  N   UNL     1       4.803  -1.171   0.061  0.00  0.00    -0.330 N 
ATOM      3  N   UNL     1       4.359   0.952   0.544  0.00  0.00    -0.232 NA
ATOM      9  C   UNL     1       3.850  -0.250   0.397  0.00  0.00    +0.115 A 
ATOM     11  C   UNL     1       6.007  -0.519  -0.013  0.00  0.00    +0.069 A 
ATOM     13  C   UNL     1       5.704   0.804   0.293  0.00  0.00    +0.089 A 
ATOM     14  C   UNL     1       4.585  -2.581  -0.174  0.00  0.00    +0.150 C 
ATOM     15  C   UNL     1       7.297  -0.961  -0.311  0.00  0.00    +0.028 A 
ATOM     18  C   UNL     1       6.735   1.758   0.306  0.00  0.00    +0.030 A 
ATOM     19  C   UNL     1       8.312   0.002  -0.293  0.00  0.00    +0.002 A 
ATOM     20  C   UNL     1       8.038   1.338   0.009  0.00  0.00    +0.002 A 
ENDBRANCH   5   9
BRANCH   1  10
ATOM     10  C   UNL     1      -0.614   0.305  -1.332  0.00  0.00    +0.119 C 
BRANCH  10  12
ATOM     12  C   UNL     1      -2.071   0.223  -0.960  0.00  0.00    -0.033 A 
ATOM     16  C   UNL     1      -2.728  -1.007  -0.986  0.00  0.00    +0.005 A 
ATOM     17  C   UNL     1      -2.762   1.376  -0.589  0.00  0.00    +0.005 A 
ATOM     21  C   UNL     1      -4.078  -1.083  -0.641  0.00  0.00    +0.010 A 
ATOM     22  C   UNL     1      -4.111   1.300  -0.245  0.00  0.00    +0.010 A 
ATOM     23  C   UNL     1      -4.769   0.070  -0.270  0.00  0.00    +0.000 A 
BRANCH  23  24
ATOM      4  N   UNL     1      -6.998   0.730  -0.685  0.00  0.00    -0.255 NA
ATOM     24  C   UNL     1      -6.169  -0.009   0.087  0.00  0.00    +0.071 A 
ATOM     25  C   UNL     1      -6.591  -0.793   1.148  0.00  0.00    +0.028 A 
ATOM     26  C   UNL     1      -7.952  -0.822   1.435  0.00  0.00    +0.004 A 
ATOM     27  C   UNL     1      -8.313   0.677  -0.375  0.00  0.00    +0.111 A 
ATOM     28  C   UNL     1      -8.835  -0.076   0.664  0.00  0.00    +0.020 A 
ENDBRANCH  23  24
ENDBRANCH  10  12
ENDBRANCH   1  10
TORSDOF 4
