REMARK  Name = 45783789
REMARK  6 active torsions:
REMARK  status: ('A' for Active; 'I' for Inactive)
REMARK    1  A    between atoms: N_3  and  C_12
REMARK    2  A    between atoms: N_7  and  C_27
REMARK    3  A    between atoms: N_7  and  C_28
REMARK    4  A    between atoms: C_8  and  C_13
REMARK    5  A    between atoms: C_12  and  C_14
REMARK    6  A    between atoms: C_17  and  C_19
REMARK                            x       y       z     vdW  Elec       q    Type
REMARK                         _______ _______ _______ _____ _____    ______ ____
ROOT
ATOM      3  N   UNL     1      -3.609  -0.334  -0.650  0.00  0.00    -0.284 NA
ATOM      8  C   UNL     1      -3.286  -1.349   0.372  0.00  0.00    +0.146 C 
ATOM      9  C   UNL     1      -3.882  -2.659  -0.175  0.00  0.00    +0.030 C 
ATOM     10  C   UNL     1      -4.571  -2.270  -1.475  0.00  0.00    +0.017 C 
ATOM     11  C   UNL     1      -4.834  -0.787  -1.310  0.00  0.00    +0.085 C 
ENDROOT
BRANCH   8  13
ATOM      1  O   UNL     1      -1.436  -1.877   1.880  0.00  0.00    -0.336 OA
ATOM      4  N   UNL     1      -0.792  -1.185  -0.150  0.00  0.00    -0.190 NA
ATOM      5  N   UNL     1      -0.036  -1.890   1.891  0.00  0.00    -0.056 NA
ATOM     13  C   UNL     1      -1.799  -1.451   0.642  0.00  0.00    +0.245 A 
ATOM     17  C   UNL     1       0.269  -1.469   0.659  0.00  0.00    +0.204 A 
BRANCH  17  19
ATOM      6  N   UNL     1       3.988  -1.498   0.677  0.00  0.00    -0.240 NA
ATOM     19  C   UNL     1       1.623  -1.323   0.207  0.00  0.00    +0.041 A 
ATOM     24  C   UNL     1       1.904  -0.883  -1.082  0.00  0.00    +0.016 A 
ATOM     25  C   UNL     1       2.691  -1.614   1.040  0.00  0.00    +0.124 A 
ATOM     26  C   UNL     1       3.226  -0.751  -1.493  0.00  0.00    +0.044 A 
ATOM     27  C   UNL     1       4.222  -1.068  -0.583  0.00  0.00    +0.118 A 
BRANCH  27   7
ATOM      7  N   UNL     1       5.564  -0.930  -1.017  0.00  0.00    -0.332 N 
ATOM     28  C   UNL     1       6.679  -1.224  -0.177  0.00  0.00    +0.127 C 
ATOM     29  H   UNL     1       5.723  -0.396  -1.865  0.00  0.00    +0.147 HD
ENDBRANCH  27   7
ENDBRANCH  17  19
ENDBRANCH   8  13
BRANCH   3  12
ATOM     12  C   UNL     1      -3.745   1.010  -0.103  0.00  0.00    +0.159 C 
BRANCH  12  14
ATOM      2  O   UNL     1      -1.603   1.786  -0.955  0.00  0.00    -0.458 OA
ATOM     14  C   UNL     1      -2.407   1.658   0.133  0.00  0.00    +0.120 A 
ATOM     15  C   UNL     1      -1.795   2.169   1.254  0.00  0.00    +0.054 A 
ATOM     16  C   UNL     1      -0.526   2.647   0.835  0.00  0.00    +0.020 A 
ATOM     18  C   UNL     1      -0.456   2.389  -0.530  0.00  0.00    +0.135 A 
ATOM     20  C   UNL     1       0.571   3.268   1.457  0.00  0.00    +0.011 A 
ATOM     21  C   UNL     1       0.638   2.708  -1.331  0.00  0.00    +0.047 A 
ATOM     22  C   UNL     1       1.687   3.601   0.678  0.00  0.00    +0.001 A 
ATOM     23  C   UNL     1       1.718   3.325  -0.692  0.00  0.00    +0.004 A 
ENDBRANCH  12  14
ENDBRANCH   3  12
TORSDOF 5
