REMARK  Name = 11879578
REMARK  11 active torsions:
REMARK  status: ('A' for Active; 'I' for Inactive)
REMARK    1  A    between atoms: S_1  and  N_8
REMARK    2  A    between atoms: S_1  and  C_22
REMARK    3  A    between atoms: O_4  and  C_21
REMARK    4  A    between atoms: O_4  and  C_25
REMARK    5  A    between atoms: N_8  and  C_17
REMARK    6  A    between atoms: N_9  and  C_18
REMARK    7  A    between atoms: N_13  and  C_28
REMARK    8  A    between atoms: N_14  and  C_31
REMARK    9  A    between atoms: N_14  and  C_35
REMARK   10  A    between atoms: N_14  and  C_36
REMARK   11  A    between atoms: C_34  and  C_37
REMARK                            x       y       z     vdW  Elec       q    Type
REMARK                         _______ _______ _______ _____ _____    ______ ____
ROOT
ATOM      2  O   UNL     1       3.709   2.708  -0.040  0.00  0.00    -0.370 OA
ATOM      3  O   UNL     1       1.534   1.238  -1.794  0.00  0.00    -0.370 OA
ATOM     15  C   UNL     1       1.707   1.468  -0.388  0.00  0.00    +0.170 C 
ATOM     16  C   UNL     1       3.189   1.367  -0.082  0.00  0.00    +0.175 C 
ATOM     17  C   UNL     1       1.349   2.895  -0.046  0.00  0.00    +0.133 C 
ATOM     18  C   UNL     1       3.778   0.623  -1.266  0.00  0.00    +0.171 C 
ATOM     19  C   UNL     1       2.646   3.637  -0.294  0.00  0.00    +0.183 C 
ATOM     20  C   UNL     1       2.804   0.946  -2.393  0.00  0.00    +0.190 C 
ENDROOT
BRANCH  18   9
ATOM      9  N   UNL     1       3.963  -0.805  -0.996  0.00  0.00    -0.187 N 
ATOM     10  N   UNL     1       5.171  -1.378  -1.086  0.00  0.00    -0.041 NA
ATOM     11  N   UNL     1       3.644  -2.892  -0.500  0.00  0.00    -0.071 NA
ATOM     12  N   UNL     1       4.970  -2.654  -0.781  0.00  0.00    -0.020 NA
ATOM     21  C   UNL     1       3.039  -1.735  -0.638  0.00  0.00    +0.342 A 
BRANCH  21   4
ATOM      4  O   UNL     1       1.753  -1.491  -0.467  0.00  0.00    -0.423 OA
BRANCH   4  25
ATOM     25  C   UNL     1       0.969  -2.209   0.426  0.00  0.00    +0.134 A 
ATOM     29  C   UNL     1      -0.293  -2.660   0.039  0.00  0.00    +0.069 A 
ATOM     30  C   UNL     1       1.442  -2.478   1.710  0.00  0.00    +0.046 A 
ATOM     31  C   UNL     1      -1.081  -3.381   0.936  0.00  0.00    +0.033 A 
ATOM     32  C   UNL     1       0.654  -3.199   2.607  0.00  0.00    +0.005 A 
ATOM     33  C   UNL     1      -0.608  -3.650   2.220  0.00  0.00    +0.023 A 
BRANCH  31  14
ATOM     14  N   UNL     1      -2.358  -3.836   0.545  0.00  0.00    -0.336 N 
ATOM     35  C   UNL     1      -2.864  -3.550  -0.782  0.00  0.00    +0.129 C 
ATOM     36  C   UNL     1      -3.185  -4.584   1.470  0.00  0.00    +0.129 C 
ENDBRANCH  31  14
ENDBRANCH   4  25
ENDBRANCH  21   4
ENDBRANCH  18   9
BRANCH  17   8
ATOM      8  N   UNL     1       0.984   2.995   1.387  0.00  0.00    -0.182 NA
ATOM     38  H   UNL     1       1.529   2.439   2.058  0.00  0.00    +0.148 HD
BRANCH   8   1
ATOM      1  S   UNL     1      -0.510   3.666   1.833  0.00  0.00    +0.059 S 
ATOM      5  O   UNL     1      -0.646   4.981   1.236  0.00  0.00    -0.153 OA
ATOM      6  O   UNL     1      -0.693   3.490   3.261  0.00  0.00    -0.153 OA
BRANCH   1  22
ATOM     22  C   UNL     1      -1.652   2.582   1.030  0.00  0.00    +0.105 A 
ATOM     23  C   UNL     1      -2.079   2.857  -0.269  0.00  0.00    +0.030 A 
ATOM     24  C   UNL     1      -2.125   1.451   1.695  0.00  0.00    +0.030 A 
ATOM     26  C   UNL     1      -2.980   2.001  -0.903  0.00  0.00    +0.025 A 
ATOM     27  C   UNL     1      -3.026   0.595   1.061  0.00  0.00    +0.025 A 
ATOM     28  C   UNL     1      -3.454   0.870  -0.238  0.00  0.00    +0.033 A 
BRANCH  28  13
ATOM      7  O   UNL     1      -4.670   1.002  -2.989  0.00  0.00    -0.276 OA
ATOM     13  N   UNL     1      -4.354   0.014  -0.872  0.00  0.00    -0.286 N 
ATOM     34  C   UNL     1      -4.892   0.125  -2.161  0.00  0.00    +0.214 C 
ATOM     37  C   UNL     1      -5.835  -1.010  -2.474  0.00  0.00    +0.109 C 
ATOM     39  H   UNL     1      -4.653  -0.787  -0.320  0.00  0.00    +0.155 HD
ENDBRANCH  28  13
ENDBRANCH   1  22
ENDBRANCH   8   1
ENDBRANCH  17   8
TORSDOF 8
