REMARK  Name = 56775456
REMARK  9 active torsions:
REMARK  status: ('A' for Active; 'I' for Inactive)
REMARK    1  A    between atoms: N_4  and  C_6
REMARK    2  A    between atoms: N_4  and  C_11
REMARK    3  A    between atoms: C_6  and  C_9
REMARK    4  A    between atoms: C_9  and  C_10
REMARK    5  A    between atoms: C_11  and  C_15
REMARK    6  A    between atoms: C_12  and  C_14
REMARK    7  A    between atoms: C_12  and  C_16
REMARK    8  A    between atoms: C_12  and  C_17
REMARK    9  A    between atoms: C_12  and  C_18
REMARK                            x       y       z     vdW  Elec       q    Type
REMARK                         _______ _______ _______ _____ _____    ______ ____
ROOT
ATOM      2  O   UNL     1       0.880   3.939  -1.013  0.00  0.00    -0.376 OA
ATOM      6  C   UNL     1       0.410   2.129   0.015  0.00  0.00    +0.072 C 
ATOM      7  C   UNL     1      -0.051   2.857  -1.242  0.00  0.00    +0.184 C 
ATOM      8  C   UNL     1       1.429   3.256   0.137  0.00  0.00    +0.184 C 
ENDROOT
BRANCH   6   4
ATOM      4  N   UNL     1       1.104   0.910  -0.377  0.00  0.00    -0.302 NA
ATOM     24  H   UNL     1       0.520   0.207  -0.829  0.00  0.00    +0.123 HD
BRANCH   4  11
ATOM     11  C   UNL     1       1.771   0.326   0.784  0.00  0.00    +0.118 C 
BRANCH  11  15
ATOM      1 CL   UNL     1       1.193  -2.481  -0.366  0.00  0.00    -0.083 Cl
ATOM     15  C   UNL     1       2.942  -0.531   0.385  0.00  0.00    -0.015 A 
ATOM     19  C   UNL     1       2.768  -1.811  -0.142  0.00  0.00    +0.045 A 
ATOM     20  C   UNL     1       4.228  -0.016   0.554  0.00  0.00    +0.006 A 
ATOM     21  C   UNL     1       3.878  -2.575  -0.500  0.00  0.00    +0.020 A 
ATOM     22  C   UNL     1       5.338  -0.781   0.196  0.00  0.00    +0.000 A 
ATOM     23  C   UNL     1       5.163  -2.060  -0.331  0.00  0.00    +0.001 A 
ENDBRANCH  11  15
ENDBRANCH   4  11
ENDBRANCH   6   4
BRANCH   6   9
ATOM      9  C   UNL     1      -0.592   1.906   1.156  0.00  0.00    +0.085 C 
BRANCH   9  10
ATOM      3  O   UNL     1      -3.725   0.771  -0.129  0.00  0.00    -0.359 OA
ATOM      5  N   UNL     1      -2.826   1.776   0.207  0.00  0.00    -0.083 NA
ATOM     10  C   UNL     1      -1.759   1.137   0.696  0.00  0.00    +0.086 A 
ATOM     13  C   UNL     1      -1.926  -0.259   0.693  0.00  0.00    +0.071 A 
ATOM     14  C   UNL     1      -3.177  -0.436   0.165  0.00  0.00    +0.143 A 
BRANCH  14  12
ATOM     12  C   UNL     1      -4.037  -1.673  -0.143  0.00  0.00    +0.023 C 
ATOM     16  C   UNL     1      -5.418  -1.339  -0.752  0.00  0.00    +0.019 C 
ATOM     17  C   UNL     1      -3.300  -2.580  -1.153  0.00  0.00    +0.019 C 
ATOM     18  C   UNL     1      -4.292  -2.465   1.158  0.00  0.00    +0.019 C 
ENDBRANCH  14  12
ENDBRANCH   9  10
ENDBRANCH   6   9
TORSDOF 6
