REMARK  Name = 26761934
REMARK  6 active torsions:
REMARK  status: ('A' for Active; 'I' for Inactive)
REMARK    1  A    between atoms: O_4  and  C_29
REMARK    2  A    between atoms: N_6  and  C_16
REMARK    3  A    between atoms: C_11  and  C_17
REMARK    4  A    between atoms: C_16  and  C_18
REMARK    5  A    between atoms: C_22  and  C_26
REMARK    6  A    between atoms: C_25  and  C_29
REMARK                            x       y       z     vdW  Elec       q    Type
REMARK                         _______ _______ _______ _____ _____    ______ ____
ROOT
ATOM      6  N   UNL     1      -1.650  -1.253   0.462  0.00  0.00    -0.281 NA
ATOM      7  N   UNL     1      -4.043  -3.649  -1.150  0.00  0.00    -0.347 N 
ATOM      8  N   UNL     1      -2.209  -4.818  -1.666  0.00  0.00    -0.240 NA
ATOM     11  C   UNL     1      -0.617  -2.311   0.735  0.00  0.00    +0.152 C 
ATOM     12  C   UNL     1      -0.537  -3.382  -0.410  0.00  0.00    +0.086 C 
ATOM     13  C   UNL     1      -3.021  -1.825   0.324  0.00  0.00    +0.140 C 
ATOM     14  C   UNL     1      -3.000  -3.021  -0.542  0.00  0.00    +0.053 A 
ATOM     15  C   UNL     1      -1.891  -3.758  -0.866  0.00  0.00    +0.065 A 
ATOM     19  C   UNL     1      -3.515  -4.728  -1.816  0.00  0.00    +0.197 A 
ATOM     33  H   UNL     1      -5.018  -3.382  -1.117  0.00  0.00    +0.167 HD
ENDROOT
BRANCH  11  17
ATOM      3  O   UNL     1       1.351  -2.011   2.169  0.00  0.00    -0.336 OA
ATOM      9  N   UNL     1       1.547  -1.068   0.147  0.00  0.00    -0.190 NA
ATOM     10  N   UNL     1       2.619  -1.415   2.138  0.00  0.00    -0.056 NA
ATOM     17  C   UNL     1       0.788  -1.760   0.958  0.00  0.00    +0.245 A 
ATOM     22  C   UNL     1       2.659  -0.880   0.914  0.00  0.00    +0.202 A 
BRANCH  22  26
ATOM      1 CL   UNL     1       4.866   1.751  -2.923  0.00  0.00    -0.081 Cl
ATOM      2  F   UNL     1       7.077   1.938  -0.958  0.00  0.00    -0.204 F 
ATOM     26  C   UNL     1       3.796  -0.153   0.427  0.00  0.00    +0.024 A 
ATOM     27  C   UNL     1       3.783   0.383  -0.860  0.00  0.00    +0.034 A 
ATOM     28  C   UNL     1       4.915   0.018   1.242  0.00  0.00    +0.014 A 
ATOM     30  C   UNL     1       4.888   1.090  -1.333  0.00  0.00    +0.077 A 
ATOM     31  C   UNL     1       6.021   0.725   0.770  0.00  0.00    +0.040 A 
ATOM     32  C   UNL     1       6.007   1.261  -0.518  0.00  0.00    +0.142 A 
ENDBRANCH  22  26
ENDBRANCH  11  17
BRANCH   6  16
ATOM     16  C   UNL     1      -1.687  -0.224   1.510  0.00  0.00    +0.120 C 
BRANCH  16  18
ATOM     18  C   UNL     1      -2.240   1.079   0.997  0.00  0.00    -0.033 A 
ATOM     20  C   UNL     1      -3.545   1.456   1.315  0.00  0.00    +0.006 A 
ATOM     21  C   UNL     1      -1.448   1.908   0.203  0.00  0.00    +0.006 A 
ATOM     23  C   UNL     1      -4.057   2.663   0.839  0.00  0.00    +0.015 A 
ATOM     24  C   UNL     1      -1.960   3.115  -0.272  0.00  0.00    +0.015 A 
ATOM     25  C   UNL     1      -3.265   3.493   0.046  0.00  0.00    +0.059 A 
BRANCH  25  29
ATOM      5  O   UNL     1      -4.935   5.184  -0.230  0.00  0.00    -0.245 OA
ATOM     29  C   UNL     1      -3.798   4.752  -0.449  0.00  0.00    +0.337 C 
BRANCH  29   4
ATOM      4  O   UNL     1      -2.898   5.438  -1.205  0.00  0.00    -0.477 OA
ATOM     34  H   UNL     1      -3.267   6.285  -1.534  0.00  0.00    +0.295 HD
ENDBRANCH  29   4
ENDBRANCH  25  29
ENDBRANCH  16  18
ENDBRANCH   6  16
TORSDOF 6
