REMARK  Name = 38027996
REMARK  10 active torsions:
REMARK  status: ('A' for Active; 'I' for Inactive)
REMARK    1  A    between atoms: N_4  and  C_14
REMARK    2  A    between atoms: N_5  and  C_24
REMARK    3  A    between atoms: C_6  and  C_10
REMARK    4  A    between atoms: C_7  and  C_14
REMARK    5  A    between atoms: C_9  and  C_13
REMARK    6  A    between atoms: C_10  and  C_15
REMARK    7  A    between atoms: C_10  and  C_16
REMARK    8  A    between atoms: C_11  and  C_17
REMARK    9  A    between atoms: C_13  and  C_18
REMARK   10  A    between atoms: C_23  and  C_25
REMARK                            x       y       z     vdW  Elec       q    Type
REMARK                         _______ _______ _______ _____ _____    ______ ____
ROOT
ATOM      6  C   UNL     1      -1.703   1.847   0.768  0.00  0.00    +0.000 C 
ATOM      7  C   UNL     1      -2.913   1.809  -0.198  0.00  0.00    +0.032 C 
ATOM      8  C   UNL     1      -0.648   2.845   0.267  0.00  0.00    +0.012 C 
ATOM      9  C   UNL     1      -0.136   2.493  -1.143  0.00  0.00    +0.023 C 
ATOM     11  C   UNL     1      -1.274   2.177  -2.092  0.00  0.00    -0.073 C 
ATOM     12  C   UNL     1      -2.511   1.887  -1.652  0.00  0.00    -0.022 C 
ATOM     17  C   UNL     1      -0.968   2.247  -3.562  0.00  0.00    +0.039 C 
ENDROOT
BRANCH   6  10
ATOM     10  C   UNL     1      -2.125   2.213   2.195  0.00  0.00    -0.013 C 
ATOM     15  C   UNL     1      -1.112   1.679   3.203  0.00  0.00    +0.007 C 
ATOM     16  C   UNL     1      -2.282   3.723   2.333  0.00  0.00    +0.007 C 
ENDBRANCH   6  10
BRANCH   9  13
ATOM     13  C   UNL     1       0.872   1.339  -1.092  0.00  0.00    +0.103 C 
BRANCH  13  18
ATOM      1  O   UNL     1       2.311   3.023  -0.248  0.00  0.00    -0.276 OA
ATOM      3  N   UNL     1       3.212   0.892  -0.443  0.00  0.00    -0.299 N 
ATOM      5  N   UNL     1       5.055  -1.071   0.537  0.00  0.00    -0.302 NA
ATOM     18  C   UNL     1       2.192   1.835  -0.557  0.00  0.00    +0.216 C 
ATOM     19  C   UNL     1       4.521   1.292   0.072  0.00  0.00    +0.123 C 
ATOM     20  C   UNL     1       3.146  -0.491  -0.924  0.00  0.00    +0.123 C 
ATOM     21  C   UNL     1       5.045   0.288   1.097  0.00  0.00    +0.103 C 
ATOM     22  C   UNL     1       3.701  -1.464   0.118  0.00  0.00    +0.103 C 
ATOM     24  C   UNL     1       5.588  -2.024   1.510  0.00  0.00    +0.105 C 
ENDBRANCH  13  18
ENDBRANCH   9  13
BRANCH   7  14
ATOM     14  C   UNL     1      -3.764   0.555   0.031  0.00  0.00    +0.112 C 
BRANCH  14   4
ATOM      2  O   UNL     1      -3.112  -1.628   1.778  0.00  0.00    -0.270 OA
ATOM      4  N   UNL     1      -3.032  -0.624  -0.312  0.00  0.00    -0.311 N 
ATOM     23  C   UNL     1      -2.758  -1.641   0.602  0.00  0.00    +0.244 C 
ATOM     31  H   UNL     1      -2.786  -0.749  -1.289  0.00  0.00    +0.149 HD
BRANCH  23  25
ATOM     25  C   UNL     1      -1.963  -2.788   0.096  0.00  0.00    +0.037 A 
ATOM     26  C   UNL     1      -2.103  -4.047   0.681  0.00  0.00    +0.013 A 
ATOM     27  C   UNL     1      -1.077  -2.608  -0.967  0.00  0.00    +0.013 A 
ATOM     28  C   UNL     1      -1.358  -5.125   0.204  0.00  0.00    +0.001 A 
ATOM     29  C   UNL     1      -0.332  -3.686  -1.444  0.00  0.00    +0.001 A 
ATOM     30  C   UNL     1      -0.472  -4.944  -0.858  0.00  0.00    +0.000 A 
ENDBRANCH  23  25
ENDBRANCH  14   4
ENDBRANCH   7  14
TORSDOF 6
