REMARK  Name = 7143722
REMARK  4 active torsions:
REMARK  status: ('A' for Active; 'I' for Inactive)
REMARK    1  A    between atoms: O_3  and  C_26
REMARK    2  A    between atoms: O_3  and  C_35
REMARK    3  A    between atoms: N_6  and  C_20
REMARK    4  A    between atoms: C_17  and  C_19
REMARK                            x       y       z     vdW  Elec       q    Type
REMARK                         _______ _______ _______ _____ _____    ______ ____
ROOT
ATOM      1  O   UNL     1      -0.867   2.399  -1.649  0.00  0.00    -0.267 OA
ATOM      2  O   UNL     1       3.009  -0.560  -2.147  0.00  0.00    -0.252 OA
ATOM      4  N   UNL     1       0.998   2.491  -0.251  0.00  0.00    -0.311 N 
ATOM      5  N   UNL     1       3.649   0.864  -0.444  0.00  0.00    -0.284 N 
ATOM      6  N   UNL     1       2.610  -1.194   0.050  0.00  0.00    -0.266 N 
ATOM      7  C   UNL     1       3.305   3.233  -1.083  0.00  0.00    +0.027 C 
ATOM      8  C   UNL     1       3.010   2.534   1.264  0.00  0.00    +0.054 C 
ATOM      9  C   UNL     1       3.533   3.657   0.366  0.00  0.00    +0.018 C 
ATOM     10  C   UNL     1       1.794   3.115  -1.320  0.00  0.00    +0.130 C 
ATOM     11  C   UNL     1       4.045   1.913  -1.386  0.00  0.00    +0.114 C 
ATOM     12  C   UNL     1       3.803   1.245   0.970  0.00  0.00    +0.119 C 
ATOM     13  C   UNL     1       1.532   2.289   1.025  0.00  0.00    +0.027 A 
ATOM     14  C   UNL     1       0.754   1.829   2.018  0.00  0.00    +0.022 A 
ATOM     15  C   UNL     1      -0.349   2.203  -0.549  0.00  0.00    +0.259 A 
ATOM     16  C   UNL     1       3.093  -0.336  -0.937  0.00  0.00    +0.307 C 
ATOM     17  C   UNL     1      -1.181   1.637   0.571  0.00  0.00    +0.047 A 
ATOM     18  C   UNL     1      -0.621   1.494   1.781  0.00  0.00    +0.015 A 
ATOM     36  H   UNL     1       2.307  -0.789   0.929  0.00  0.00    +0.156 HD
ENDROOT
BRANCH  17  19
ATOM     19  C   UNL     1      -2.578   1.230   0.350  0.00  0.00    -0.012 A 
ATOM     21  C   UNL     1      -2.871  -0.072  -0.057  0.00  0.00    +0.017 A 
ATOM     22  C   UNL     1      -3.609   2.144   0.548  0.00  0.00    +0.009 A 
ATOM     23  C   UNL     1      -4.199  -0.476  -0.271  0.00  0.00    -0.017 A 
ATOM     24  C   UNL     1      -4.934   1.761   0.341  0.00  0.00    +0.009 A 
ATOM     25  C   UNL     1      -5.246   0.454  -0.069  0.00  0.00    -0.018 A 
ATOM     28  C   UNL     1      -4.510  -1.783  -0.681  0.00  0.00    +0.008 A 
ATOM     29  C   UNL     1      -6.574   0.051  -0.283  0.00  0.00    +0.008 A 
ATOM     33  C   UNL     1      -5.835  -2.167  -0.889  0.00  0.00    +0.001 A 
ATOM     34  C   UNL     1      -6.865  -1.252  -0.691  0.00  0.00    +0.001 A 
ENDBRANCH  17  19
BRANCH   6  20
ATOM     20  C   UNL     1       2.439  -2.598  -0.036  0.00  0.00    +0.077 A 
ATOM     26  C   UNL     1       1.833  -3.301   1.002  0.00  0.00    +0.141 A 
ATOM     27  C   UNL     1       2.884  -3.268  -1.173  0.00  0.00    +0.027 A 
ATOM     30  C   UNL     1       1.671  -4.683   0.903  0.00  0.00    +0.047 A 
ATOM     31  C   UNL     1       2.721  -4.650  -1.272  0.00  0.00    +0.002 A 
ATOM     32  C   UNL     1       2.115  -5.357  -0.234  0.00  0.00    +0.004 A 
BRANCH  26   3
ATOM      3  O   UNL     1       1.393  -2.661   2.123  0.00  0.00    -0.493 OA
ATOM     35  C   UNL     1       0.050  -2.183   2.110  0.00  0.00    +0.277 C 
ENDBRANCH  26   3
ENDBRANCH   6  20
TORSDOF 3
