REMARK  Name = 7155430
REMARK  2 active torsions:
REMARK  status: ('A' for Active; 'I' for Inactive)
REMARK    1  A    between atoms: N_6  and  C_22
REMARK    2  A    between atoms: C_14  and  C_19
REMARK                            x       y       z     vdW  Elec       q    Type
REMARK                         _______ _______ _______ _____ _____    ______ ____
ROOT
ATOM      2  O   UNL     1       0.689  -2.396   2.979  0.00  0.00    -0.268 OA
ATOM      3  O   UNL     1       2.344  -1.939  -1.618  0.00  0.00    -0.252 OA
ATOM      4  N   UNL     1      -0.692  -1.830   1.174  0.00  0.00    -0.311 N 
ATOM      5  N   UNL     1       0.058  -1.690  -1.878  0.00  0.00    -0.284 N 
ATOM      6  N   UNL     1       1.442   0.196  -1.579  0.00  0.00    -0.269 N 
ATOM      7  C   UNL     1      -1.183  -3.499  -0.707  0.00  0.00    +0.027 C 
ATOM      8  C   UNL     1      -2.127  -1.228  -0.805  0.00  0.00    +0.054 C 
ATOM      9  C   UNL     1      -2.478  -2.715  -0.868  0.00  0.00    +0.018 C 
ATOM     10  C   UNL     1      -0.623  -3.216   0.687  0.00  0.00    +0.130 C 
ATOM     11  C   UNL     1      -0.182  -3.134  -1.819  0.00  0.00    +0.114 C 
ATOM     12  C   UNL     1      -1.171  -0.885  -1.970  0.00  0.00    +0.119 C 
ATOM     13  C   UNL     1      -1.482  -0.853   0.534  0.00  0.00    +0.034 A 
ATOM     14  C   UNL     1      -1.614   0.379   1.092  0.00  0.00    +0.002 A 
ATOM     15  C   UNL     1      -0.003  -1.577   2.373  0.00  0.00    +0.252 A 
ATOM     16  C   UNL     1       1.364  -1.192  -1.684  0.00  0.00    +0.306 C 
ATOM     17  C   UNL     1      -0.915   0.677   2.328  0.00  0.00    +0.015 A 
ATOM     18  C   UNL     1      -0.143  -0.218   2.942  0.00  0.00    +0.071 A 
ATOM     31  H   UNL     1       0.744   0.759  -2.050  0.00  0.00    +0.156 HD
ENDROOT
BRANCH   6  22
ATOM      1  F   UNL     1       5.377   0.402   1.157  0.00  0.00    -0.205 F 
ATOM     22  C   UNL     1       2.437   0.947  -0.909  0.00  0.00    +0.037 A 
ATOM     26  C   UNL     1       3.434   0.290  -0.193  0.00  0.00    +0.061 A 
ATOM     27  C   UNL     1       2.413   2.337  -0.969  0.00  0.00    +0.023 A 
ATOM     28  C   UNL     1       4.415   1.030   0.468  0.00  0.00    +0.125 A 
ATOM     29  C   UNL     1       3.393   3.077  -0.308  0.00  0.00    +0.005 A 
ATOM     30  C   UNL     1       4.395   2.423   0.410  0.00  0.00    +0.038 A 
ENDBRANCH   6  22
BRANCH  14  19
ATOM     19  C   UNL     1      -2.427   1.440   0.457  0.00  0.00    -0.016 A 
ATOM     20  C   UNL     1      -1.843   2.296  -0.471  0.00  0.00    +0.008 A 
ATOM     21  C   UNL     1      -3.771   1.574   0.792  0.00  0.00    +0.008 A 
ATOM     23  C   UNL     1      -2.609   3.296  -1.070  0.00  0.00    +0.001 A 
ATOM     24  C   UNL     1      -4.538   2.573   0.193  0.00  0.00    +0.001 A 
ATOM     25  C   UNL     1      -3.957   3.434  -0.738  0.00  0.00    +0.000 A 
ENDBRANCH  14  19
TORSDOF 2
