REMARK  Name = 45361649
REMARK  10 active torsions:
REMARK  status: ('A' for Active; 'I' for Inactive)
REMARK    1  A    between atoms: O_1  and  C_10
REMARK    2  A    between atoms: N_4  and  C_14
REMARK    3  A    between atoms: N_5  and  C_22
REMARK    4  A    between atoms: N_6  and  C_26
REMARK    5  A    between atoms: C_7  and  C_17
REMARK    6  A    between atoms: C_9  and  C_19
REMARK    7  A    between atoms: C_12  and  C_18
REMARK    8  A    between atoms: C_18  and  C_20
REMARK    9  A    between atoms: C_18  and  C_21
REMARK   10  A    between atoms: C_26  and  C_27
REMARK                            x       y       z     vdW  Elec       q    Type
REMARK                         _______ _______ _______ _____ _____    ______ ____
ROOT
ATOM      7  C   UNL     1       0.227   1.570   0.482  0.00  0.00    -0.027 C 
ATOM      8  C   UNL     1       0.357   0.135  -0.129  0.00  0.00    +0.028 C 
ATOM      9  C   UNL     1       1.778  -0.074  -0.766  0.00  0.00    +0.012 C 
ATOM     10  C   UNL     1      -0.847  -0.194  -1.058  0.00  0.00    +0.122 C 
ATOM     11  C   UNL     1      -1.138   1.704   1.198  0.00  0.00    +0.007 C 
ATOM     12  C   UNL     1      -2.211   0.042  -0.369  0.00  0.00    +0.029 C 
ATOM     13  C   UNL     1       1.336   1.770   1.540  0.00  0.00    +0.009 C 
ATOM     14  C   UNL     1       2.887   0.203   0.287  0.00  0.00    +0.078 C 
ATOM     15  C   UNL     1      -2.321   1.421   0.281  0.00  0.00    +0.007 C 
ATOM     16  C   UNL     1       2.737   1.554   0.986  0.00  0.00    +0.023 C 
ATOM     17  C   UNL     1       0.337   2.684  -0.590  0.00  0.00    +0.011 C 
ATOM     19  C   UNL     1       1.985  -1.477  -1.362  0.00  0.00    +0.010 C 
ENDROOT
BRANCH  14   4
ATOM      3  O   UNL     1       5.315  -0.660   1.585  0.00  0.00    -0.253 OA
ATOM      4  N   UNL     1       4.210   0.133  -0.296  0.00  0.00    -0.296 N 
ATOM      6  N   UNL     1       6.469  -0.266  -0.389  0.00  0.00    -0.300 N 
ATOM     25  C   UNL     1       5.328  -0.297   0.409  0.00  0.00    +0.300 C 
ATOM     28  H   UNL     1       4.342   0.488  -1.238  0.00  0.00    +0.151 HD
ATOM     31  H   UNL     1       6.381   0.036  -1.355  0.00  0.00    +0.150 HD
BRANCH   6  26
ATOM     26  C   UNL     1       7.772  -0.662   0.091  0.00  0.00    +0.102 C 
ATOM     27  C   UNL     1       7.929  -2.168   0.091  0.00  0.00    +0.024 C 
ENDBRANCH   6  26
ENDBRANCH  14   4
BRANCH  10   1
ATOM      1  O   UNL     1      -0.806  -1.575  -1.421  0.00  0.00    -0.391 OA
ATOM     29  H   UNL     1      -0.855  -2.103  -0.606  0.00  0.00    +0.210 HD
ENDBRANCH  10   1
BRANCH  12  18
ATOM     18  C   UNL     1      -3.381  -0.162  -1.339  0.00  0.00    +0.077 C 
ATOM     21  C   UNL     1      -3.270   0.812  -2.507  0.00  0.00    +0.017 C 
BRANCH  18  20
ATOM      2  O   UNL     1      -5.309   1.091  -0.564  0.00  0.00    -0.276 OA
ATOM      5  N   UNL     1      -5.170  -1.166  -0.054  0.00  0.00    -0.312 N 
ATOM     20  C   UNL     1      -4.717   0.016  -0.624  0.00  0.00    +0.216 C 
ATOM     30  H   UNL     1      -4.620  -2.015  -0.144  0.00  0.00    +0.149 HD
BRANCH   5  22
ATOM     22  C   UNL     1      -6.403  -1.246   0.677  0.00  0.00    +0.073 C 
ATOM     23  C   UNL     1      -6.468  -0.880   2.131  0.00  0.00    +0.024 C 
ATOM     24  C   UNL     1      -6.626  -2.311   1.709  0.00  0.00    +0.024 C 
ENDBRANCH   5  22
ENDBRANCH  18  20
ENDBRANCH  12  18
TORSDOF 6
