REMARK  Name = 44716348
REMARK  8 active torsions:
REMARK  status: ('A' for Active; 'I' for Inactive)
REMARK    1  A    between atoms: O_4  and  C_23
REMARK    2  A    between atoms: O_4  and  C_24
REMARK    3  A    between atoms: N_6  and  C_15
REMARK    4  A    between atoms: N_6  and  C_17
REMARK    5  A    between atoms: C_8  and  C_14
REMARK    6  A    between atoms: C_9  and  C_15
REMARK    7  A    between atoms: C_14  and  C_16
REMARK    8  A    between atoms: C_17  and  C_18
REMARK                            x       y       z     vdW  Elec       q    Type
REMARK                         _______ _______ _______ _____ _____    ______ ____
ROOT
ATOM      6  N   UNL     1       0.648   0.012   0.781  0.00  0.00    -0.311 NA
ATOM     25  H   UNL     1       0.298  -0.926   0.975  0.00  0.00    +0.122 HD
ENDROOT
BRANCH   6  15
ATOM     15  C   UNL     1       2.012   0.130   1.270  0.00  0.00    +0.100 C 
BRANCH  15   9
ATOM      5  N   UNL     1       4.288  -0.922   1.184  0.00  0.00    -0.298 NA
ATOM      7  C   UNL     1       4.434  -0.845  -1.412  0.00  0.00    -0.004 C 
ATOM      8  C   UNL     1       5.290   0.275  -0.777  0.00  0.00    +0.006 C 
ATOM      9  C   UNL     1       2.921  -0.902   0.598  0.00  0.00    +0.071 C 
ATOM     10  C   UNL     1       2.977  -0.705  -0.934  0.00  0.00    +0.024 C 
ATOM     11  C   UNL     1       5.052   0.272   0.750  0.00  0.00    +0.088 C 
ATOM     12  C   UNL     1       4.968  -2.182  -0.863  0.00  0.00    +0.019 C 
ATOM     13  C   UNL     1       4.986  -2.128   0.675  0.00  0.00    +0.085 C 
BRANCH   8  14
ATOM     14  C   UNL     1       5.029   1.651  -1.385  0.00  0.00    +0.002 C 
ATOM     16  C   UNL     1       5.912   2.711  -0.756  0.00  0.00    +0.004 C 
ENDBRANCH   8  14
ENDBRANCH  15   9
ENDBRANCH   6  15
BRANCH   6  17
ATOM     17  C   UNL     1      -0.221   0.999   1.411  0.00  0.00    +0.116 C 
BRANCH  17  18
ATOM     18  C   UNL     1      -1.636   0.903   0.906  0.00  0.00    -0.033 A 
ATOM     19  C   UNL     1      -1.964   1.409  -0.352  0.00  0.00    +0.008 A 
ATOM     20  C   UNL     1      -2.619   0.307   1.697  0.00  0.00    +0.008 A 
ATOM     21  C   UNL     1      -3.276   1.319  -0.819  0.00  0.00    +0.046 A 
ATOM     22  C   UNL     1      -3.930   0.218   1.230  0.00  0.00    +0.046 A 
ATOM     23  C   UNL     1      -4.258   0.724  -0.028  0.00  0.00    +0.130 A 
BRANCH  23   4
ATOM      4  O   UNL     1      -5.538   0.636  -0.484  0.00  0.00    -0.406 OA
BRANCH   4  24
ATOM      1  F   UNL     1      -6.996  -0.632  -1.651  0.00  0.00    -0.133 F 
ATOM      2  F   UNL     1      -5.174  -1.582  -0.907  0.00  0.00    -0.133 F 
ATOM      3  F   UNL     1      -6.789  -1.012   0.491  0.00  0.00    -0.133 F 
ATOM     24  C   UNL     1      -6.116  -0.657  -0.624  0.00  0.00    +0.575 C 
ENDBRANCH   4  24
ENDBRANCH  23   4
ENDBRANCH  17  18
ENDBRANCH   6  17
TORSDOF 7
