REMARK  Name = 38028873
REMARK  12 active torsions:
REMARK  status: ('A' for Active; 'I' for Inactive)
REMARK    1  A    between atoms: O_3  and  C_27
REMARK    2  A    between atoms: N_6  and  C_15
REMARK    3  A    between atoms: C_7  and  C_11
REMARK    4  A    between atoms: C_8  and  C_15
REMARK    5  A    between atoms: C_10  and  C_14
REMARK    6  A    between atoms: C_11  and  C_16
REMARK    7  A    between atoms: C_11  and  C_17
REMARK    8  A    between atoms: C_12  and  C_19
REMARK    9  A    between atoms: C_14  and  C_18
REMARK   10  A    between atoms: C_24  and  C_25
REMARK   11  A    between atoms: C_25  and  C_26
REMARK   12  A    between atoms: C_26  and  C_27
REMARK                            x       y       z     vdW  Elec       q    Type
REMARK                         _______ _______ _______ _____ _____    ______ ____
ROOT
ATOM      7  C   UNL     1      -0.575   2.185  -0.657  0.00  0.00    +0.000 C 
ATOM      8  C   UNL     1      -0.033   3.082   0.483  0.00  0.00    +0.032 C 
ATOM      9  C   UNL     1      -2.041   1.809  -0.392  0.00  0.00    +0.012 C 
ATOM     10  C   UNL     1      -2.219   1.062   0.944  0.00  0.00    +0.023 C 
ATOM     12  C   UNL     1      -1.481   1.749   2.075  0.00  0.00    -0.073 C 
ATOM     13  C   UNL     1      -0.516   2.659   1.850  0.00  0.00    -0.022 C 
ATOM     19  C   UNL     1      -1.909   1.399   3.473  0.00  0.00    +0.039 C 
ENDROOT
BRANCH   7  11
ATOM     11  C   UNL     1      -0.454   2.866  -2.024  0.00  0.00    -0.013 C 
ATOM     16  C   UNL     1      -0.409   1.823  -3.136  0.00  0.00    +0.007 C 
ATOM     17  C   UNL     1      -1.610   3.837  -2.239  0.00  0.00    +0.007 C 
ENDBRANCH   7  11
BRANCH  10  14
ATOM     14  C   UNL     1      -1.789  -0.404   0.818  0.00  0.00    +0.103 C 
BRANCH  14  18
ATOM      1  O   UNL     1      -3.854  -0.623  -0.350  0.00  0.00    -0.276 OA
ATOM      5  N   UNL     1      -2.556  -2.522  -0.135  0.00  0.00    -0.301 N 
ATOM     18  C   UNL     1      -2.832  -1.180   0.056  0.00  0.00    +0.216 C 
ATOM     20  C   UNL     1      -3.465  -3.409  -0.845  0.00  0.00    +0.108 C 
ATOM     21  C   UNL     1      -1.367  -3.240   0.315  0.00  0.00    +0.108 C 
ATOM     22  C   UNL     1      -2.646  -4.665  -1.104  0.00  0.00    +0.020 C 
ATOM     23  C   UNL     1      -1.705  -4.708   0.092  0.00  0.00    +0.020 C 
ENDBRANCH  14  18
ENDBRANCH  10  14
BRANCH   8  15
ATOM     15  C   UNL     1       1.500   3.123   0.474  0.00  0.00    +0.112 C 
BRANCH  15   6
ATOM      2  O   UNL     1       3.231   1.511  -1.193  0.00  0.00    -0.276 OA
ATOM      6  N   UNL     1       2.043   1.837   0.780  0.00  0.00    -0.315 N 
ATOM     24  C   UNL     1       2.874   1.122  -0.084  0.00  0.00    +0.214 C 
ATOM     28  H   UNL     1       1.857   1.446   1.700  0.00  0.00    +0.149 HD
BRANCH  24  25
ATOM     25  C   UNL     1       3.298  -0.212   0.504  0.00  0.00    +0.107 C 
BRANCH  25  26
ATOM     26  C   UNL     1       4.207  -1.000  -0.434  0.00  0.00    +0.129 C 
BRANCH  26  27
ATOM      4  O   UNL     1       4.291  -2.742   1.264  0.00  0.00    -0.251 OA
ATOM     27  C   UNL     1       4.615  -2.328   0.160  0.00  0.00    +0.305 C 
BRANCH  27   3
ATOM      3  O   UNL     1       5.404  -3.032  -0.695  0.00  0.00    -0.481 OA
ATOM     29  H   UNL     1       5.672  -3.896  -0.316  0.00  0.00    +0.295 HD
ENDBRANCH  27   3
ENDBRANCH  26  27
ENDBRANCH  25  26
ENDBRANCH  24  25
ENDBRANCH  15   6
ENDBRANCH   8  15
TORSDOF 9
