REMARK  Name = 11883375
REMARK  7 active torsions:
REMARK  status: ('A' for Active; 'I' for Inactive)
REMARK    1  A    between atoms: O_3  and  C_13
REMARK    2  A    between atoms: O_3  and  C_17
REMARK    3  A    between atoms: N_7  and  C_12
REMARK    4  A    between atoms: N_8  and  C_18
REMARK    5  A    between atoms: N_9  and  C_19
REMARK    6  A    between atoms: C_24  and  C_30
REMARK    7  A    between atoms: C_30  and  C_31
REMARK                            x       y       z     vdW  Elec       q    Type
REMARK                         _______ _______ _______ _____ _____    ______ ____
ROOT
ATOM      1  O   UNL     1      -0.534   0.817   0.957  0.00  0.00    -0.368 OA
ATOM      2  O   UNL     1      -1.152   3.505  -0.386  0.00  0.00    -0.368 OA
ATOM     10  C   UNL     1      -1.611   2.166  -0.669  0.00  0.00    +0.173 C 
ATOM     11  C   UNL     1      -0.442   1.237  -0.415  0.00  0.00    +0.192 C 
ATOM     12  C   UNL     1      -2.639   1.743   0.354  0.00  0.00    +0.131 C 
ATOM     13  C   UNL     1       0.747   2.139  -0.645  0.00  0.00    +0.235 C 
ATOM     14  C   UNL     1      -1.771   1.288   1.514  0.00  0.00    +0.185 C 
ATOM     15  C   UNL     1       0.254   3.462  -0.103  0.00  0.00    +0.207 C 
ENDROOT
BRANCH  12   7
ATOM      4  O   UNL     1      -5.300   1.087   1.189  0.00  0.00    -0.252 OA
ATOM      7  N   UNL     1      -3.458   0.664  -0.143  0.00  0.00    -0.292 N 
ATOM      8  N   UNL     1      -5.301  -0.694  -0.341  0.00  0.00    -0.269 N 
ATOM     16  C   UNL     1      -4.755   0.410   0.320  0.00  0.00    +0.304 C 
ATOM     32  H   UNL     1      -3.054   0.018  -0.814  0.00  0.00    +0.151 HD
ATOM     33  H   UNL     1      -4.714  -1.144  -1.038  0.00  0.00    +0.156 HD
BRANCH   8  18
ATOM     18  C   UNL     1      -6.582  -1.267  -0.161  0.00  0.00    +0.035 A 
ATOM     20  C   UNL     1      -6.960  -2.378  -0.916  0.00  0.00    +0.023 A 
ATOM     21  C   UNL     1      -7.466  -0.723   0.770  0.00  0.00    +0.023 A 
ATOM     25  C   UNL     1      -8.223  -2.943  -0.739  0.00  0.00    +0.002 A 
ATOM     26  C   UNL     1      -8.728  -1.288   0.947  0.00  0.00    +0.002 A 
ATOM     29  C   UNL     1      -9.107  -2.399   0.192  0.00  0.00    +0.000 A 
ENDBRANCH   8  18
ENDBRANCH  12   7
BRANCH  13   3
ATOM      3  O   UNL     1       1.919   1.703   0.006  0.00  0.00    -0.442 OA
BRANCH   3  17
ATOM      5  O   UNL     1       2.556   0.582  -1.883  0.00  0.00    -0.226 OA
ATOM      9  N   UNL     1       3.869   0.570   0.055  0.00  0.00    -0.251 N 
ATOM     17  C   UNL     1       2.779   0.907  -0.723  0.00  0.00    +0.405 C 
ATOM     34  H   UNL     1       3.876   0.940   1.003  0.00  0.00    +0.158 HD
BRANCH   9  19
ATOM     19  C   UNL     1       4.980  -0.228  -0.302  0.00  0.00    +0.037 A 
ATOM     22  C   UNL     1       5.997  -0.463   0.623  0.00  0.00    +0.034 A 
ATOM     23  C   UNL     1       5.059  -0.779  -1.581  0.00  0.00    +0.023 A 
ATOM     24  C   UNL     1       7.093  -1.249   0.270  0.00  0.00    +0.019 A 
ATOM     27  C   UNL     1       6.156  -1.566  -1.934  0.00  0.00    +0.002 A 
ATOM     28  C   UNL     1       7.173  -1.801  -1.009  0.00  0.00    +0.011 A 
BRANCH  24  30
ATOM      6  O   UNL     1       8.819  -2.550   1.215  0.00  0.00    -0.292 OA
ATOM     30  C   UNL     1       8.153  -1.495   1.234  0.00  0.00    +0.160 C 
ATOM     31  C   UNL     1       8.477  -0.457   2.303  0.00  0.00    +0.091 C 
ENDBRANCH  24  30
ENDBRANCH   9  19
ENDBRANCH   3  17
ENDBRANCH  13   3
TORSDOF 6
