REMARK  Name = 51136828
REMARK  6 active torsions:
REMARK  status: ('A' for Active; 'I' for Inactive)
REMARK    1  A    between atoms: N_3  and  C_13
REMARK    2  A    between atoms: C_9  and  C_14
REMARK    3  A    between atoms: C_13  and  C_15
REMARK    4  A    between atoms: C_20  and  C_28
REMARK    5  A    between atoms: C_21  and  C_24
REMARK    6  A    between atoms: C_26  and  C_33
REMARK                            x       y       z     vdW  Elec       q    Type
REMARK                         _______ _______ _______ _____ _____    ______ ____
ROOT
ATOM      1  O   UNL     1      -3.560   1.648   1.196  0.00  0.00    -0.336 OA
ATOM      6  N   UNL     1      -1.751   0.349   0.957  0.00  0.00    -0.190 NA
ATOM      7  N   UNL     1      -2.474   2.518   1.035  0.00  0.00    -0.056 NA
ATOM     14  C   UNL     1      -3.047   0.391   1.137  0.00  0.00    +0.245 A 
ATOM     21  C   UNL     1      -1.444   1.677   0.900  0.00  0.00    +0.202 A 
ENDROOT
BRANCH  21  24
ATOM      2  O   UNL     1       7.275  -1.975  -1.093  0.00  0.00    -0.276 OA
ATOM      4  N   UNL     1       3.247   0.770   0.257  0.00  0.00    -0.312 N 
ATOM      5  N   UNL     1       5.427  -1.121   0.027  0.00  0.00    -0.299 N 
ATOM      8  N   UNL     1       2.528   3.018   0.332  0.00  0.00    -0.240 NA
ATOM     16  C   UNL     1       3.172  -0.536   0.916  0.00  0.00    +0.125 C 
ATOM     17  C   UNL     1       4.416   1.057  -0.580  0.00  0.00    +0.125 C 
ATOM     18  C   UNL     1       4.571  -1.075   1.215  0.00  0.00    +0.126 C 
ATOM     19  C   UNL     1       5.055  -0.238  -1.076  0.00  0.00    +0.126 C 
ATOM     23  C   UNL     1       2.221   1.703   0.389  0.00  0.00    +0.122 A 
ATOM     24  C   UNL     1      -0.096   2.132   0.709  0.00  0.00    +0.027 A 
ATOM     25  C   UNL     1       0.938   1.213   0.574  0.00  0.00    +0.055 A 
ATOM     26  C   UNL     1       6.553  -1.935  -0.093  0.00  0.00    +0.213 C 
ATOM     30  C   UNL     1       0.180   3.494   0.655  0.00  0.00    +0.031 A 
ATOM     32  C   UNL     1       1.496   3.882   0.467  0.00  0.00    +0.113 A 
ATOM     33  C   UNL     1       6.872  -2.811   1.093  0.00  0.00    +0.109 C 
ENDBRANCH  21  24
BRANCH  14   9
ATOM      3  N   UNL     1      -3.586  -1.979   0.604  0.00  0.00    -0.287 NA
ATOM      9  C   UNL     1      -4.033  -0.749   1.286  0.00  0.00    +0.146 C 
ATOM     10  C   UNL     1      -4.241  -1.167   2.753  0.00  0.00    +0.030 C 
ATOM     11  C   UNL     1      -3.946  -2.660   2.786  0.00  0.00    +0.017 C 
ATOM     12  C   UNL     1      -4.161  -3.098   1.351  0.00  0.00    +0.085 C 
BRANCH   3  13
ATOM     13  C   UNL     1      -3.948  -2.018  -0.807  0.00  0.00    +0.120 C 
BRANCH  13  15
ATOM     15  C   UNL     1      -3.009  -1.197  -1.650  0.00  0.00    -0.030 A 
ATOM     20  C   UNL     1      -3.482  -0.142  -2.430  0.00  0.00    -0.046 A 
ATOM     22  C   UNL     1      -1.649  -1.505  -1.643  0.00  0.00    +0.005 A 
ATOM     27  C   UNL     1      -2.594   0.606  -3.204  0.00  0.00    +0.003 A 
ATOM     28  C   UNL     1      -4.934   0.206  -2.454  0.00  0.00    +0.044 C 
ATOM     29  C   UNL     1      -0.761  -0.757  -2.416  0.00  0.00    +0.000 A 
ATOM     31  C   UNL     1      -1.234   0.298  -3.197  0.00  0.00    +0.000 A 
ENDBRANCH  13  15
ENDBRANCH   3  13
ENDBRANCH  14   9
TORSDOF 4
