REMARK  Name = 11885924
REMARK  3 active torsions:
REMARK  status: ('A' for Active; 'I' for Inactive)
REMARK    1  A    between atoms: N_8  and  C_22
REMARK    2  A    between atoms: N_9  and  C_20
REMARK    3  A    between atoms: C_23  and  C_26
REMARK                            x       y       z     vdW  Elec       q    Type
REMARK                         _______ _______ _______ _____ _____    ______ ____
ROOT
ATOM      3  O   UNL     1       0.733   2.258   1.859  0.00  0.00    -0.266 OA
ATOM      4  O   UNL     1      -3.347  -1.005   1.835  0.00  0.00    -0.252 OA
ATOM      6  N   UNL     1      -3.657   0.550   0.151  0.00  0.00    -0.284 N 
ATOM      7  N   UNL     1      -1.002   2.313   0.294  0.00  0.00    -0.310 N 
ATOM      8  N   UNL     1      -2.857  -1.613  -0.348  0.00  0.00    -0.269 N 
ATOM     10  C   UNL     1      -3.409   2.917   0.917  0.00  0.00    +0.027 C 
ATOM     11  C   UNL     1      -2.863   2.326  -1.405  0.00  0.00    +0.054 C 
ATOM     12  C   UNL     1      -3.519   3.388  -0.528  0.00  0.00    +0.018 C 
ATOM     13  C   UNL     1      -4.126   1.568   1.096  0.00  0.00    +0.114 C 
ATOM     14  C   UNL     1      -1.928   2.840   1.305  0.00  0.00    +0.130 C 
ATOM     15  C   UNL     1      -3.615   0.986  -1.257  0.00  0.00    +0.119 C 
ATOM     16  C   UNL     1      -1.403   2.134  -1.033  0.00  0.00    +0.027 A 
ATOM     17  C   UNL     1      -0.510   1.763  -1.965  0.00  0.00    +0.024 A 
ATOM     18  C   UNL     1       0.329   2.098   0.706  0.00  0.00    +0.273 A 
ATOM     19  C   UNL     1      -3.281  -0.721   0.637  0.00  0.00    +0.306 C 
ATOM     20  C   UNL     1       1.288   1.660  -0.357  0.00  0.00    +0.099 A 
ATOM     21  C   UNL     1       0.862   1.520  -1.617  0.00  0.00    +0.030 A 
ATOM     33  H   UNL     1      -3.224  -1.502  -1.287  0.00  0.00    +0.156 HD
ENDROOT
BRANCH   8  22
ATOM      2  F   UNL     1       0.538  -5.943   0.296  0.00  0.00    -0.205 F 
ATOM     22  C   UNL     1      -1.989  -2.720  -0.183  0.00  0.00    +0.035 A 
ATOM     24  C   UNL     1      -1.742  -3.571  -1.256  0.00  0.00    +0.026 A 
ATOM     25  C   UNL     1      -1.389  -2.951   1.051  0.00  0.00    +0.026 A 
ATOM     27  C   UNL     1      -0.887  -4.662  -1.094  0.00  0.00    +0.040 A 
ATOM     28  C   UNL     1      -0.534  -4.041   1.214  0.00  0.00    +0.040 A 
ATOM     29  C   UNL     1      -0.283  -4.897   0.141  0.00  0.00    +0.124 A 
ENDBRANCH   8  22
BRANCH  20   9
ATOM      5  O   UNL     1       3.087  -0.159  -1.623  0.00  0.00    -0.269 OA
ATOM      9  N   UNL     1       2.582   1.425   0.004  0.00  0.00    -0.277 N 
ATOM     23  C   UNL     1       3.409   0.525  -0.654  0.00  0.00    +0.255 C 
ATOM     34  H   UNL     1       2.884   1.790   0.904  0.00  0.00    +0.155 HD
BRANCH  23  26
ATOM      1  S   UNL     1       5.200   1.394   1.185  0.00  0.00    -0.092 S 
ATOM     26  C   UNL     1       4.795   0.422  -0.130  0.00  0.00    +0.074 A 
ATOM     30  C   UNL     1       5.774  -0.370  -0.592  0.00  0.00    +0.021 A 
ATOM     31  C   UNL     1       6.959  -0.183   0.176  0.00  0.00    +0.008 A 
ATOM     32  C   UNL     1       6.786   0.749   1.176  0.00  0.00    +0.046 A 
ENDBRANCH  23  26
ENDBRANCH  20   9
TORSDOF 3
