REMARK  Name = 75368604
REMARK  6 active torsions:
REMARK  status: ('A' for Active; 'I' for Inactive)
REMARK    1  A    between atoms: O_3  and  C_28
REMARK    2  A    between atoms: N_6  and  C_14
REMARK    3  A    between atoms: N_7  and  C_15
REMARK    4  A    between atoms: C_14  and  C_16
REMARK    5  A    between atoms: C_15  and  C_17
REMARK    6  A    between atoms: C_26  and  C_28
REMARK                            x       y       z     vdW  Elec       q    Type
REMARK                         _______ _______ _______ _____ _____    ______ ____
ROOT
ATOM      2  O   UNL     1       3.338   2.910  -0.424  0.00  0.00    -0.252 OA
ATOM      5  N   UNL     1       1.127   2.130  -0.294  0.00  0.00    -0.278 N 
ATOM      6  N   UNL     1      -1.381   1.522   0.825  0.00  0.00    -0.295 NA
ATOM      7  N   UNL     1       2.640   0.865  -1.369  0.00  0.00    -0.279 N 
ATOM      8  C   UNL     1       0.357   1.035  -0.847  0.00  0.00    +0.109 C 
ATOM      9  C   UNL     1      -0.572   0.448   0.214  0.00  0.00    +0.109 C 
ATOM     10  C   UNL     1       1.422   0.073  -1.372  0.00  0.00    +0.133 C 
ATOM     11  C   UNL     1       0.447   3.165   0.456  0.00  0.00    +0.125 C 
ATOM     12  C   UNL     1      -0.516   2.534   1.465  0.00  0.00    +0.104 C 
ATOM     13  C   UNL     1       2.476   2.077  -0.668  0.00  0.00    +0.305 C 
ENDROOT
BRANCH   6  14
ATOM     14  C   UNL     1      -2.317   0.962   1.800  0.00  0.00    +0.119 C 
BRANCH  14  16
ATOM     16  C   UNL     1      -3.501   0.315   1.133  0.00  0.00    -0.033 A 
ATOM     18  C   UNL     1      -4.520   1.106   0.601  0.00  0.00    +0.006 A 
ATOM     19  C   UNL     1      -3.580  -1.075   1.047  0.00  0.00    +0.006 A 
ATOM     22  C   UNL     1      -5.617   0.506  -0.017  0.00  0.00    +0.015 A 
ATOM     23  C   UNL     1      -4.677  -1.674   0.429  0.00  0.00    +0.015 A 
ATOM     26  C   UNL     1      -5.696  -0.884  -0.103  0.00  0.00    +0.059 A 
BRANCH  26  28
ATOM      4  O   UNL     1      -7.794  -0.909  -1.252  0.00  0.00    -0.245 OA
ATOM     28  C   UNL     1      -6.840  -1.509  -0.749  0.00  0.00    +0.337 C 
BRANCH  28   3
ATOM      3  O   UNL     1      -6.759  -2.868  -0.747  0.00  0.00    -0.477 OA
ATOM     29  H   UNL     1      -7.535  -3.280  -1.185  0.00  0.00    +0.295 HD
ENDBRANCH  28   3
ENDBRANCH  26  28
ENDBRANCH  14  16
ENDBRANCH   6  14
BRANCH   7  15
ATOM     15  C   UNL     1       3.885   0.358  -1.901  0.00  0.00    +0.144 C 
BRANCH  15  17
ATOM      1  F   UNL     1       6.547  -2.966   1.788  0.00  0.00    -0.205 F 
ATOM     17  C   UNL     1       4.596  -0.530  -0.916  0.00  0.00    -0.030 A 
ATOM     20  C   UNL     1       5.507   0.019  -0.013  0.00  0.00    +0.008 A 
ATOM     21  C   UNL     1       4.344  -1.902  -0.905  0.00  0.00    +0.008 A 
ATOM     24  C   UNL     1       6.166  -0.804   0.900  0.00  0.00    +0.038 A 
ATOM     25  C   UNL     1       5.004  -2.725   0.008  0.00  0.00    +0.038 A 
ATOM     27  C   UNL     1       5.915  -2.176   0.910  0.00  0.00    +0.123 A 
ENDBRANCH  15  17
ENDBRANCH   7  15
TORSDOF 6
