REMARK  Name = 45783590
REMARK  7 active torsions:
REMARK  status: ('A' for Active; 'I' for Inactive)
REMARK    1  A    between atoms: O_1  and  C_12
REMARK    2  A    between atoms: O_1  and  C_22
REMARK    3  A    between atoms: N_3  and  C_11
REMARK    4  A    between atoms: C_7  and  C_13
REMARK    5  A    between atoms: C_11  and  C_19
REMARK    6  A    between atoms: C_11  and  C_20
REMARK    7  A    between atoms: C_21  and  C_23
REMARK                            x       y       z     vdW  Elec       q    Type
REMARK                         _______ _______ _______ _____ _____    ______ ____
ROOT
ATOM      2  O   UNL     1       2.740  -0.966   1.902  0.00  0.00    -0.336 OA
ATOM      4  N   UNL     1       2.205   0.477   0.274  0.00  0.00    -0.190 NA
ATOM      5  N   UNL     1       1.343  -0.988   1.805  0.00  0.00    -0.056 NA
ATOM     13  C   UNL     1       3.168  -0.078   0.966  0.00  0.00    +0.245 A 
ATOM     21  C   UNL     1       1.104  -0.112   0.825  0.00  0.00    +0.204 A 
ENDROOT
BRANCH  21  23
ATOM      6  N   UNL     1      -2.603  -0.162   0.559  0.00  0.00    -0.221 NA
ATOM     22  C   UNL     1      -2.769   0.737  -0.437  0.00  0.00    +0.215 A 
ATOM     23  C   UNL     1      -0.220   0.198   0.373  0.00  0.00    +0.041 A 
ATOM     24  C   UNL     1      -1.727   1.397  -1.068  0.00  0.00    +0.068 A 
ATOM     25  C   UNL     1      -0.431   1.116  -0.650  0.00  0.00    +0.018 A 
ATOM     26  C   UNL     1      -1.330  -0.408   0.939  0.00  0.00    +0.126 A 
BRANCH  22   1
ATOM      1  O   UNL     1      -4.055   0.995  -0.832  0.00  0.00    -0.473 OA
BRANCH   1  12
ATOM     12  C   UNL     1      -5.088   0.290  -0.151  0.00  0.00    +0.175 C 
ATOM     14  C   UNL     1      -5.353  -1.038  -0.857  0.00  0.00    +0.044 C 
ATOM     15  C   UNL     1      -6.345   1.156  -0.089  0.00  0.00    +0.044 C 
ATOM     16  C   UNL     1      -6.520  -1.788  -0.222  0.00  0.00    +0.004 C 
ATOM     17  C   UNL     1      -7.512   0.406   0.546  0.00  0.00    +0.004 C 
ATOM     18  C   UNL     1      -7.776  -0.922  -0.158  0.00  0.00    +0.000 C 
ENDBRANCH   1  12
ENDBRANCH  22   1
ENDBRANCH  21  23
BRANCH  13   7
ATOM      3  N   UNL     1       5.286  -0.103  -0.451  0.00  0.00    -0.289 NA
ATOM      7  C   UNL     1       4.673   0.130   0.867  0.00  0.00    +0.146 C 
ATOM      8  C   UNL     1       5.138   1.561   1.170  0.00  0.00    +0.030 C 
ATOM      9  C   UNL     1       5.159   1.127  -1.223  0.00  0.00    +0.085 C 
ATOM     10  C   UNL     1       5.374   2.222  -0.188  0.00  0.00    +0.017 C 
BRANCH   3  11
ATOM     11  C   UNL     1       4.858  -1.289  -1.169  0.00  0.00    +0.051 C 
ATOM     19  C   UNL     1       5.004  -2.524  -0.284  0.00  0.00    +0.024 C 
ATOM     20  C   UNL     1       5.677  -1.432  -2.447  0.00  0.00    +0.024 C 
ENDBRANCH   3  11
ENDBRANCH  13   7
TORSDOF 5
