REMARK  Name = 25313885
REMARK  7 active torsions:
REMARK  status: ('A' for Active; 'I' for Inactive)
REMARK    1  A    between atoms: N_6  and  C_30
REMARK    2  A    between atoms: N_7  and  C_23
REMARK    3  A    between atoms: C_9  and  C_13
REMARK    4  A    between atoms: C_10  and  C_14
REMARK    5  A    between atoms: C_13  and  C_16
REMARK    6  A    between atoms: C_14  and  C_17
REMARK    7  A    between atoms: C_23  and  C_24
REMARK                            x       y       z     vdW  Elec       q    Type
REMARK                         _______ _______ _______ _____ _____    ______ ____
ROOT
ATOM      4  N   UNL     1      -2.230  -2.220  -2.091  0.00  0.00    -0.316 NA
ATOM      9  C   UNL     1      -0.552  -2.090   0.332  0.00  0.00    +0.004 C 
ATOM     10  C   UNL     1      -1.903  -1.347   0.210  0.00  0.00    +0.012 C 
ATOM     11  C   UNL     1      -0.551  -3.290  -0.630  0.00  0.00    +0.019 C 
ATOM     12  C   UNL     1      -2.242  -1.020  -1.254  0.00  0.00    +0.085 C 
ATOM     15  C   UNL     1      -0.935  -2.896  -2.055  0.00  0.00    +0.081 C 
ATOM     36  H   UNL     1      -2.450  -1.963  -3.053  0.00  0.00    +0.122 HD
ENDROOT
BRANCH   9  13
ATOM     13  C   UNL     1       0.674  -1.200   0.095  0.00  0.00    +0.100 C 
BRANCH  13  16
ATOM      2  O   UNL     1       1.795  -2.901   1.315  0.00  0.00    -0.276 OA
ATOM      5  N   UNL     1       3.095  -1.130   0.559  0.00  0.00    -0.298 N 
ATOM      6  N   UNL     1       5.666   0.125   0.116  0.00  0.00    -0.327 N 
ATOM     16  C   UNL     1       1.898  -1.829   0.714  0.00  0.00    +0.216 C 
ATOM     18  C   UNL     1       4.324  -1.671   1.134  0.00  0.00    +0.126 C 
ATOM     19  C   UNL     1       3.218   0.138  -0.165  0.00  0.00    +0.126 C 
ATOM     20  C   UNL     1       5.550  -1.326   0.290  0.00  0.00    +0.124 C 
ATOM     21  C   UNL     1       4.454   0.937   0.247  0.00  0.00    +0.124 C 
BRANCH   6  30
ATOM      1  F   UNL     1      10.573   2.460  -0.868  0.00  0.00    -0.205 F 
ATOM     30  C   UNL     1       6.904   0.714  -0.132  0.00  0.00    +0.030 A 
ATOM     31  C   UNL     1       7.890   0.003  -0.816  0.00  0.00    +0.026 A 
ATOM     32  C   UNL     1       7.157   2.014   0.304  0.00  0.00    +0.026 A 
ATOM     33  C   UNL     1       9.129   0.593  -1.065  0.00  0.00    +0.040 A 
ATOM     34  C   UNL     1       8.397   2.604   0.055  0.00  0.00    +0.040 A 
ATOM     35  C   UNL     1       9.383   1.893  -0.629  0.00  0.00    +0.124 A 
ENDBRANCH   6  30
ENDBRANCH  13  16
ENDBRANCH   9  13
BRANCH  10  14
ATOM     14  C   UNL     1      -1.973  -0.086   1.072  0.00  0.00    +0.064 C 
BRANCH  14  17
ATOM      3  O   UNL     1      -5.286   0.374   2.404  0.00  0.00    -0.358 OA
ATOM      8  N   UNL     1      -4.011  -0.177   2.442  0.00  0.00    -0.083 NA
ATOM     17  C   UNL     1      -3.395   0.303   1.358  0.00  0.00    +0.084 A 
ATOM     22  C   UNL     1      -4.223   1.155   0.606  0.00  0.00    +0.072 A 
ATOM     24  C   UNL     1      -5.401   1.165   1.307  0.00  0.00    +0.151 A 
BRANCH  24  23
ATOM     23  C   UNL     1      -6.694   1.831   1.111  0.00  0.00    +0.161 C 
BRANCH  23   7
ATOM      7  N   UNL     1      -7.331   1.491  -0.161  0.00  0.00    -0.295 NA
ATOM     25  C   UNL     1      -8.335   2.502  -0.519  0.00  0.00    +0.085 C 
ATOM     26  C   UNL     1      -7.928   0.149  -0.094  0.00  0.00    +0.085 C 
ATOM     27  C   UNL     1      -8.977   2.187  -1.872  0.00  0.00    +0.015 C 
ATOM     28  C   UNL     1      -8.556  -0.242  -1.433  0.00  0.00    +0.015 C 
ATOM     29  C   UNL     1      -9.584   0.789  -1.886  0.00  0.00    +0.002 C 
ENDBRANCH  23   7
ENDBRANCH  24  23
ENDBRANCH  14  17
ENDBRANCH  10  14
TORSDOF 7
