REMARK  Name = 26742858
REMARK  5 active torsions:
REMARK  status: ('A' for Active; 'I' for Inactive)
REMARK    1  A    between atoms: N_8  and  C_21
REMARK    2  A    between atoms: N_9  and  C_23
REMARK    3  A    between atoms: N_10  and  C_27
REMARK    4  A    between atoms: C_21  and  C_23
REMARK    5  A    between atoms: C_30  and  C_33
REMARK                            x       y       z     vdW  Elec       q    Type
REMARK                         _______ _______ _______ _____ _____    ______ ____
ROOT
ATOM      4  O   UNL     1       4.580  -1.188  -0.640  0.00  0.00    -0.276 OA
ATOM      5  O   UNL     1      -2.142  -2.427  -1.508  0.00  0.00    -0.252 OA
ATOM      7  N   UNL     1      -0.907  -2.070   0.413  0.00  0.00    -0.285 N 
ATOM      8  N   UNL     1       3.133   0.559  -0.153  0.00  0.00    -0.300 N 
ATOM     10  N   UNL     1      -2.766  -0.706  -0.084  0.00  0.00    -0.269 N 
ATOM     12  C   UNL     1       0.797  -0.774   1.671  0.00  0.00    +0.011 C 
ATOM     13  C   UNL     1       1.828  -1.879   1.331  0.00  0.00    +0.004 C 
ATOM     14  C   UNL     1       1.455  -2.635   0.041  0.00  0.00    +0.023 C 
ATOM     15  C   UNL     1      -0.618  -1.386   1.682  0.00  0.00    +0.113 C 
ATOM     16  C   UNL     1       0.831   0.462   0.753  0.00  0.00    +0.024 C 
ATOM     17  C   UNL     1       3.286  -1.402   1.345  0.00  0.00    +0.100 C 
ATOM     18  C   UNL     1       0.020  -3.158   0.100  0.00  0.00    +0.109 C 
ATOM     19  C   UNL     1       2.175   1.182   0.757  0.00  0.00    +0.108 C 
ATOM     20  C   UNL     1       3.732  -0.672   0.093  0.00  0.00    +0.216 C 
ATOM     22  C   UNL     1      -1.969  -1.783  -0.471  0.00  0.00    +0.306 C 
ATOM     34  H   UNL     1      -2.338   0.030   0.469  0.00  0.00    +0.156 HD
ENDROOT
BRANCH  10  27
ATOM     27  C   UNL     1      -4.144  -0.517  -0.351  0.00  0.00    +0.035 A 
ATOM     28  C   UNL     1      -4.794   0.627   0.112  0.00  0.00    +0.035 A 
ATOM     29  C   UNL     1      -4.851  -1.474  -1.078  0.00  0.00    +0.023 A 
ATOM     30  C   UNL     1      -6.151   0.814  -0.152  0.00  0.00    +0.057 A 
ATOM     31  C   UNL     1      -6.208  -1.288  -1.342  0.00  0.00    +0.002 A 
ATOM     32  C   UNL     1      -6.858  -0.144  -0.879  0.00  0.00    +0.012 A 
BRANCH  30  33
ATOM      1  F   UNL     1      -8.168   2.063   0.001  0.00  0.00    -0.166 F 
ATOM      2  F   UNL     1      -6.818   2.169   1.702  0.00  0.00    -0.166 F 
ATOM      3  F   UNL     1      -6.320   3.200  -0.140  0.00  0.00    -0.166 F 
ATOM     33  C   UNL     1      -6.847   2.036   0.343  0.00  0.00    +0.417 C 
ENDBRANCH  30  33
ENDBRANCH  10  27
BRANCH   8  21
ATOM     21  C   UNL     1       3.441   1.289  -1.375  0.00  0.00    +0.126 C 
BRANCH  21  23
ATOM     23  C   UNL     1       4.583   2.273  -1.183  0.00  0.00    +0.128 C 
BRANCH  23   9
ATOM      6  O   UNL     1       5.625   1.615   1.558  0.00  0.00    -0.253 OA
ATOM      9  N   UNL     1       5.801   1.615  -0.795  0.00  0.00    -0.283 N 
ATOM     11  N   UNL     1       7.442   0.659   0.431  0.00  0.00    -0.298 N 
ATOM     24  C   UNL     1       6.734   1.071  -1.767  0.00  0.00    +0.128 C 
ATOM     25  C   UNL     1       7.887   0.535  -0.933  0.00  0.00    +0.124 C 
ATOM     26  C   UNL     1       6.213   1.334   0.522  0.00  0.00    +0.302 C 
ATOM     35  H   UNL     1       7.972   0.342   1.237  0.00  0.00    +0.150 HD
ENDBRANCH  23   9
ENDBRANCH  21  23
ENDBRANCH   8  21
TORSDOF 5
