REMARK  Name = 38344451
REMARK  8 active torsions:
REMARK  status: ('A' for Active; 'I' for Inactive)
REMARK    1  A    between atoms: O_2  and  C_29
REMARK    2  A    between atoms: N_4  and  C_13
REMARK    3  A    between atoms: N_6  and  C_17
REMARK    4  A    between atoms: N_6  and  C_18
REMARK    5  A    between atoms: C_8  and  C_14
REMARK    6  A    between atoms: C_13  and  C_15
REMARK    7  A    between atoms: C_17  and  C_21
REMARK    8  A    between atoms: C_24  and  C_29
REMARK                            x       y       z     vdW  Elec       q    Type
REMARK                         _______ _______ _______ _____ _____    ______ ____
ROOT
ATOM      4  N   UNL     1       0.208   1.073  -0.534  0.00  0.00    -0.281 NA
ATOM      5  N   UNL     1       1.198   3.614   2.057  0.00  0.00    -0.347 N 
ATOM      7  N   UNL     1       2.403   4.538   0.416  0.00  0.00    -0.240 NA
ATOM      8  C   UNL     1       1.409   1.321  -1.375  0.00  0.00    +0.150 C 
ATOM      9  C   UNL     1       1.981   2.767  -1.353  0.00  0.00    +0.085 C 
ATOM     10  C   UNL     1       0.373   1.493   0.885  0.00  0.00    +0.140 C 
ATOM     11  C   UNL     1       1.098   2.778   0.987  0.00  0.00    +0.053 A 
ATOM     12  C   UNL     1       1.848   3.362  -0.004  0.00  0.00    +0.065 A 
ATOM     16  C   UNL     1       1.994   4.661   1.663  0.00  0.00    +0.197 A 
ATOM     31  H   UNL     1       0.773   3.491   2.967  0.00  0.00    +0.167 HD
ENDROOT
BRANCH   8  14
ATOM      1  O   UNL     1       3.291   0.661  -0.103  0.00  0.00    -0.274 OA
ATOM      6  N   UNL     1       2.408  -0.929  -1.551  0.00  0.00    -0.299 N 
ATOM     14  C   UNL     1       2.455   0.329  -0.948  0.00  0.00    +0.233 C 
ATOM     18  C   UNL     1       1.403  -1.279  -2.545  0.00  0.00    +0.132 C 
BRANCH   6  17
ATOM     17  C   UNL     1       3.364  -1.986  -1.229  0.00  0.00    +0.142 C 
BRANCH  17  21
ATOM     21  C   UNL     1       2.869  -2.868  -0.113  0.00  0.00    -0.030 A 
ATOM     25  C   UNL     1       3.170  -2.551   1.212  0.00  0.00    +0.005 A 
ATOM     26  C   UNL     1       2.111  -4.001  -0.405  0.00  0.00    +0.005 A 
ATOM     27  C   UNL     1       2.711  -3.369   2.245  0.00  0.00    +0.000 A 
ATOM     28  C   UNL     1       1.652  -4.818   0.628  0.00  0.00    +0.000 A 
ATOM     30  C   UNL     1       1.953  -4.502   1.953  0.00  0.00    +0.000 A 
ENDBRANCH  17  21
ENDBRANCH   6  17
ENDBRANCH   8  14
BRANCH   4  13
ATOM     13  C   UNL     1      -0.982   1.687  -1.129  0.00  0.00    +0.120 C 
BRANCH  13  15
ATOM     15  C   UNL     1      -2.242   0.960  -0.742  0.00  0.00    -0.033 A 
ATOM     19  C   UNL     1      -2.559  -0.256  -1.347  0.00  0.00    +0.006 A 
ATOM     20  C   UNL     1      -3.091   1.501   0.224  0.00  0.00    +0.006 A 
ATOM     22  C   UNL     1      -3.726  -0.930  -0.989  0.00  0.00    +0.015 A 
ATOM     23  C   UNL     1      -4.258   0.826   0.582  0.00  0.00    +0.015 A 
ATOM     24  C   UNL     1      -4.575  -0.389  -0.024  0.00  0.00    +0.059 A 
BRANCH  24  29
ATOM      3  O   UNL     1      -6.170  -2.171  -0.118  0.00  0.00    -0.245 OA
ATOM     29  C   UNL     1      -5.792  -1.093   0.352  0.00  0.00    +0.337 C 
BRANCH  29   2
ATOM      2  O   UNL     1      -6.504  -0.429   1.304  0.00  0.00    -0.477 OA
ATOM     32  H   UNL     1      -7.322  -0.912   1.550  0.00  0.00    +0.295 HD
ENDBRANCH  29   2
ENDBRANCH  24  29
ENDBRANCH  13  15
ENDBRANCH   4  13
TORSDOF 7
