REMARK  Name = 40780204
REMARK  7 active torsions:
REMARK  status: ('A' for Active; 'I' for Inactive)
REMARK    1  A    between atoms: N_5  and  C_15
REMARK    2  A    between atoms: N_7  and  C_22
REMARK    3  A    between atoms: N_8  and  C_30
REMARK    4  A    between atoms: C_10  and  C_15
REMARK    5  A    between atoms: C_12  and  C_22
REMARK    6  A    between atoms: C_35  and  C_36
REMARK    7  A    between atoms: C_36  and  C_37
REMARK                            x       y       z     vdW  Elec       q    Type
REMARK                         _______ _______ _______ _____ _____    ______ ____
ROOT
ATOM      4  N   UNL     1       0.547  -3.643  -0.646  0.00  0.00    -0.298 NA
ATOM      9  C   UNL     1       1.996  -1.511  -0.990  0.00  0.00    -0.003 C 
ATOM     10  C   UNL     1       2.688  -2.498  -0.022  0.00  0.00    +0.020 C 
ATOM     11  C   UNL     1       0.603  -1.152  -0.441  0.00  0.00    +0.024 C 
ATOM     12  C   UNL     1      -0.269  -2.426  -0.390  0.00  0.00    +0.074 C 
ATOM     13  C   UNL     1       1.723  -3.672   0.257  0.00  0.00    +0.089 C 
ATOM     14  C   UNL     1       1.784  -2.261  -2.318  0.00  0.00    +0.019 C 
ATOM     16  C   UNL     1       1.038  -3.579  -2.043  0.00  0.00    +0.085 C 
ENDROOT
BRANCH  10  15
ATOM     15  C   UNL     1       3.160  -1.846   1.261  0.00  0.00    +0.089 C 
BRANCH  15   5
ATOM      1  O   UNL     1       5.003   2.319  -2.879  0.00  0.00    -0.268 OA
ATOM      5  N   UNL     1       4.075  -0.739   0.993  0.00  0.00    -0.301 NA
ATOM      6  N   UNL     1       5.079   1.845  -0.587  0.00  0.00    -0.312 N 
ATOM     17  C   UNL     1       6.426  -0.095   0.406  0.00  0.00    +0.024 C 
ATOM     18  C   UNL     1       5.113   1.353   1.883  0.00  0.00    +0.050 C 
ATOM     19  C   UNL     1       5.413  -1.234   0.643  0.00  0.00    +0.089 C 
ATOM     20  C   UNL     1       4.127   0.189   2.133  0.00  0.00    +0.094 C 
ATOM     21  C   UNL     1       6.512   0.793   1.641  0.00  0.00    +0.017 C 
ATOM     23  C   UNL     1       6.062   0.775  -0.805  0.00  0.00    +0.130 C 
ATOM     24  C   UNL     1       4.658   2.191   0.702  0.00  0.00    +0.026 A 
ATOM     25  C   UNL     1       3.842   3.243   0.886  0.00  0.00    +0.022 A 
ATOM     26  C   UNL     1       4.658   2.562  -1.722  0.00  0.00    +0.251 A 
ATOM     27  C   UNL     1       3.374   4.014  -0.231  0.00  0.00    +0.007 A 
ATOM     28  C   UNL     1       3.737   3.707  -1.478  0.00  0.00    +0.070 A 
ENDBRANCH  15   5
ENDBRANCH  10  15
BRANCH  12  22
ATOM     22  C   UNL     1      -1.064  -2.519   0.914  0.00  0.00    +0.124 C 
BRANCH  22   7
ATOM      2  O   UNL     1      -3.769  -2.307  -0.002  0.00  0.00    -0.253 OA
ATOM      7  N   UNL     1      -1.932  -1.392   1.064  0.00  0.00    -0.298 N 
ATOM      8  N   UNL     1      -3.857  -0.132   0.877  0.00  0.00    -0.269 N 
ATOM     29  C   UNL     1      -3.254  -1.359   0.587  0.00  0.00    +0.304 C 
ATOM     38  H   UNL     1      -1.573  -0.569   1.539  0.00  0.00    +0.150 HD
ATOM     39  H   UNL     1      -3.287   0.549   1.373  0.00  0.00    +0.156 HD
BRANCH   8  30
ATOM     30  C   UNL     1      -5.171   0.285   0.564  0.00  0.00    +0.035 A 
ATOM     31  C   UNL     1      -5.605   1.558   0.935  0.00  0.00    +0.024 A 
ATOM     32  C   UNL     1      -6.034  -0.575  -0.115  0.00  0.00    +0.024 A 
ATOM     33  C   UNL     1      -6.902   1.970   0.627  0.00  0.00    +0.013 A 
ATOM     34  C   UNL     1      -7.330  -0.163  -0.423  0.00  0.00    +0.013 A 
ATOM     35  C   UNL     1      -7.764   1.110  -0.052  0.00  0.00    +0.017 A 
BRANCH  35  36
ATOM      3  O   UNL     1      -9.712   1.113  -1.382  0.00  0.00    -0.292 OA
ATOM     36  C   UNL     1      -9.116   1.540  -0.373  0.00  0.00    +0.160 C 
ATOM     37  C   UNL     1      -9.841   2.534   0.528  0.00  0.00    +0.091 C 
ENDBRANCH  35  36
ENDBRANCH   8  30
ENDBRANCH  22   7
ENDBRANCH  12  22
TORSDOF 6
