REMARK  Name = 25389387
REMARK  8 active torsions:
REMARK  status: ('A' for Active; 'I' for Inactive)
REMARK    1  A    between atoms: S_1  and  N_7
REMARK    2  A    between atoms: S_1  and  C_24
REMARK    3  A    between atoms: N_6  and  C_15
REMARK    4  A    between atoms: N_7  and  C_16
REMARK    5  A    between atoms: C_9  and  C_15
REMARK    6  A    between atoms: C_10  and  C_16
REMARK    7  A    between atoms: C_19  and  C_22
REMARK    8  A    between atoms: C_22  and  C_23
REMARK                            x       y       z     vdW  Elec       q    Type
REMARK                         _______ _______ _______ _____ _____    ______ ____
ROOT
ATOM      5  N   UNL     1      -2.620   2.779  -1.011  0.00  0.00    -0.298 NA
ATOM      8  C   UNL     1      -0.596   2.280   0.544  0.00  0.00    -0.003 C 
ATOM      9  C   UNL     1      -0.315   1.799  -0.897  0.00  0.00    +0.020 C 
ATOM     10  C   UNL     1      -3.077   2.044   0.200  0.00  0.00    +0.072 C 
ATOM     11  C   UNL     1      -1.877   1.604   1.068  0.00  0.00    +0.024 C 
ATOM     12  C   UNL     1      -1.598   1.987  -1.738  0.00  0.00    +0.089 C 
ATOM     13  C   UNL     1      -0.878   3.793   0.465  0.00  0.00    +0.019 C 
ATOM     14  C   UNL     1      -1.993   4.047  -0.566  0.00  0.00    +0.085 C 
ENDROOT
BRANCH   9  15
ATOM     15  C   UNL     1       0.196   0.361  -0.964  0.00  0.00    +0.089 C 
BRANCH  15   6
ATOM      6  N   UNL     1       1.407   0.241  -0.154  0.00  0.00    -0.302 NA
ATOM     17  C   UNL     1       2.573   0.739  -0.895  0.00  0.00    +0.084 C 
ATOM     18  C   UNL     1       1.605  -1.151   0.272  0.00  0.00    +0.084 C 
ATOM     19  C   UNL     1       4.094  -0.755   0.466  0.00  0.00    -0.004 C 
ATOM     20  C   UNL     1       3.841   0.669  -0.042  0.00  0.00    +0.019 C 
ATOM     21  C   UNL     1       2.839  -1.285   1.166  0.00  0.00    +0.019 C 
BRANCH  19  22
ATOM     22  C   UNL     1       5.302  -0.798   1.397  0.00  0.00    +0.038 C 
BRANCH  22  23
ATOM     23  C   UNL     1       6.596  -0.783   0.630  0.00  0.00    -0.047 A 
ATOM     25  C   UNL     1       7.185  -1.984   0.232  0.00  0.00    +0.003 A 
ATOM     26  C   UNL     1       7.207   0.430   0.316  0.00  0.00    +0.003 A 
ATOM     28  C   UNL     1       8.384  -1.970  -0.480  0.00  0.00    +0.000 A 
ATOM     29  C   UNL     1       8.407   0.444  -0.395  0.00  0.00    +0.000 A 
ATOM     30  C   UNL     1       8.995  -0.756  -0.793  0.00  0.00    +0.000 A 
ENDBRANCH  22  23
ENDBRANCH  19  22
ENDBRANCH  15   6
ENDBRANCH   9  15
BRANCH  10  16
ATOM     16  C   UNL     1      -3.992   0.866  -0.143  0.00  0.00    +0.124 C 
BRANCH  16   7
ATOM      7  N   UNL     1      -4.509   0.277   1.103  0.00  0.00    -0.188 NA
ATOM     33  H   UNL     1      -3.786  -0.179   1.675  0.00  0.00    +0.148 HD
BRANCH   7   1
ATOM      1  S   UNL     1      -6.041  -0.467   1.128  0.00  0.00    +0.065 S 
ATOM      3  O   UNL     1      -7.032   0.462   0.618  0.00  0.00    -0.153 OA
ATOM      4  O   UNL     1      -6.237  -1.108   2.414  0.00  0.00    -0.153 OA
BRANCH   1  24
ATOM      2  S   UNL     1      -4.795  -3.024   0.421  0.00  0.00    -0.077 S 
ATOM     24  C   UNL     1      -5.835  -1.754  -0.066  0.00  0.00    +0.142 A 
ATOM     27  C   UNL     1      -6.344  -1.958  -1.329  0.00  0.00    +0.036 A 
ATOM     31  C   UNL     1      -5.873  -3.174  -1.906  0.00  0.00    +0.010 A 
ATOM     32  C   UNL     1      -5.023  -3.852  -1.060  0.00  0.00    +0.047 A 
ENDBRANCH   1  24
ENDBRANCH   7   1
ENDBRANCH  16   7
ENDBRANCH  10  16
TORSDOF 8
