REMARK  Name = 7674792
REMARK  4 active torsions:
REMARK  status: ('A' for Active; 'I' for Inactive)
REMARK    1  A    between atoms: O_3  and  C_27
REMARK    2  A    between atoms: O_3  and  C_35
REMARK    3  A    between atoms: N_6  and  C_23
REMARK    4  A    between atoms: C_14  and  C_19
REMARK                            x       y       z     vdW  Elec       q    Type
REMARK                         _______ _______ _______ _____ _____    ______ ____
ROOT
ATOM      1  O   UNL     1       2.146   3.782  -2.428  0.00  0.00    -0.268 OA
ATOM      2  O   UNL     1       3.903   0.344   0.848  0.00  0.00    -0.252 OA
ATOM      4  N   UNL     1       0.914   2.996  -0.598  0.00  0.00    -0.311 N 
ATOM      5  N   UNL     1       1.850   1.024   1.662  0.00  0.00    -0.284 N 
ATOM      6  N   UNL     1       2.044  -0.982   0.439  0.00  0.00    -0.266 N 
ATOM      7  C   UNL     1       1.635   3.489   1.815  0.00  0.00    +0.027 C 
ATOM      8  C   UNL     1      -0.361   2.113   1.381  0.00  0.00    +0.054 C 
ATOM      9  C   UNL     1       0.152   3.345   2.129  0.00  0.00    +0.018 C 
ATOM     10  C   UNL     1       1.782   3.755   0.315  0.00  0.00    +0.130 C 
ATOM     11  C   UNL     1       2.414   2.236   2.256  0.00  0.00    +0.114 C 
ATOM     12  C   UNL     1       0.403   0.869   1.878  0.00  0.00    +0.119 C 
ATOM     13  C   UNL     1      -0.199   2.265  -0.133  0.00  0.00    +0.034 A 
ATOM     14  C   UNL     1      -1.058   1.703  -1.022  0.00  0.00    +0.002 A 
ATOM     15  C   UNL     1       1.199   3.144  -1.967  0.00  0.00    +0.252 A 
ATOM     16  C   UNL     1       2.696   0.126   0.978  0.00  0.00    +0.307 C 
ATOM     17  C   UNL     1      -0.793   1.831  -2.442  0.00  0.00    +0.015 A 
ATOM     18  C   UNL     1       0.267   2.489  -2.912  0.00  0.00    +0.071 A 
ATOM     36  H   UNL     1       1.066  -0.893   0.191  0.00  0.00    +0.156 HD
ENDROOT
BRANCH  14  19
ATOM     19  C   UNL     1      -2.250   0.947  -0.580  0.00  0.00    -0.016 A 
ATOM     20  C   UNL     1      -2.152  -0.421  -0.342  0.00  0.00    +0.017 A 
ATOM     21  C   UNL     1      -3.459   1.607  -0.405  0.00  0.00    +0.009 A 
ATOM     22  C   UNL     1      -3.275  -1.153   0.079  0.00  0.00    -0.017 A 
ATOM     24  C   UNL     1      -4.585   0.896   0.012  0.00  0.00    +0.009 A 
ATOM     25  C   UNL     1      -4.510  -0.484   0.258  0.00  0.00    -0.018 A 
ATOM     26  C   UNL     1      -3.200  -2.534   0.325  0.00  0.00    +0.008 A 
ATOM     29  C   UNL     1      -5.632  -1.216   0.678  0.00  0.00    +0.008 A 
ATOM     30  C   UNL     1      -4.325  -3.245   0.742  0.00  0.00    +0.001 A 
ATOM     31  C   UNL     1      -5.539  -2.587   0.918  0.00  0.00    +0.001 A 
ENDBRANCH  14  19
BRANCH   6  23
ATOM     23  C   UNL     1       2.608  -2.247   0.139  0.00  0.00    +0.077 A 
ATOM     27  C   UNL     1       1.851  -3.226  -0.499  0.00  0.00    +0.141 A 
ATOM     28  C   UNL     1       3.933  -2.500   0.489  0.00  0.00    +0.027 A 
ATOM     32  C   UNL     1       2.421  -4.466  -0.788  0.00  0.00    +0.047 A 
ATOM     33  C   UNL     1       4.502  -3.740   0.200  0.00  0.00    +0.002 A 
ATOM     34  C   UNL     1       3.746  -4.723  -0.439  0.00  0.00    +0.004 A 
BRANCH  27   3
ATOM      3  O   UNL     1       0.553  -2.995  -0.847  0.00  0.00    -0.493 OA
ATOM     35  C   UNL     1       0.319  -2.445  -2.142  0.00  0.00    +0.277 C 
ENDBRANCH  27   3
ENDBRANCH   6  23
TORSDOF 3
