REMARK  Name = 11879570
REMARK  8 active torsions:
REMARK  status: ('A' for Active; 'I' for Inactive)
REMARK    1  A    between atoms: O_3  and  C_18
REMARK    2  A    between atoms: O_3  and  C_21
REMARK    3  A    between atoms: N_5  and  C_14
REMARK    4  A    between atoms: N_6  and  C_15
REMARK    5  A    between atoms: N_9  and  C_20
REMARK    6  A    between atoms: N_11  and  C_29
REMARK    7  A    between atoms: N_11  and  C_36
REMARK    8  A    between atoms: N_11  and  C_37
REMARK                            x       y       z     vdW  Elec       q    Type
REMARK                         _______ _______ _______ _____ _____    ______ ____
ROOT
ATOM      1  O   UNL     1       3.318  -1.807   1.614  0.00  0.00    -0.370 OA
ATOM      2  O   UNL     1       2.733  -3.268  -1.108  0.00  0.00    -0.370 OA
ATOM     12  C   UNL     1       2.803  -1.887  -0.712  0.00  0.00    +0.176 C 
ATOM     13  C   UNL     1       2.222  -1.792   0.686  0.00  0.00    +0.172 C 
ATOM     14  C   UNL     1       4.252  -1.467  -0.557  0.00  0.00    +0.171 C 
ATOM     15  C   UNL     1       1.394  -3.048   0.832  0.00  0.00    +0.131 C 
ATOM     16  C   UNL     1       4.558  -1.821   0.894  0.00  0.00    +0.190 C 
ATOM     17  C   UNL     1       2.139  -4.032  -0.049  0.00  0.00    +0.185 C 
ENDROOT
BRANCH  15   6
ATOM      4  O   UNL     1      -0.561  -1.279   1.953  0.00  0.00    -0.252 OA
ATOM      6  N   UNL     1       0.045  -2.843   0.362  0.00  0.00    -0.292 N 
ATOM      9  N   UNL     1      -2.077  -1.967   0.298  0.00  0.00    -0.269 N 
ATOM     19  C   UNL     1      -0.851  -1.955   0.969  0.00  0.00    +0.304 C 
ATOM     38  H   UNL     1      -0.288  -3.397  -0.421  0.00  0.00    +0.151 HD
ATOM     39  H   UNL     1      -2.061  -2.441  -0.598  0.00  0.00    +0.156 HD
BRANCH   9  20
ATOM     20  C   UNL     1      -3.237  -1.215   0.597  0.00  0.00    +0.042 A 
ATOM     22  C   UNL     1      -4.131  -0.829  -0.405  0.00  0.00    +0.003 A 
ATOM     23  C   UNL     1      -3.446  -0.880   1.929  0.00  0.00    +0.024 A 
ATOM     26  C   UNL     1      -5.275  -0.078  -0.046  0.00  0.00    -0.016 A 
ATOM     27  C   UNL     1      -4.571  -0.141   2.282  0.00  0.00    +0.002 A 
ATOM     28  C   UNL     1      -3.925  -1.165  -1.753  0.00  0.00    +0.010 A 
ATOM     30  C   UNL     1      -5.480   0.259   1.302  0.00  0.00    +0.008 A 
ATOM     32  C   UNL     1      -6.180   0.316  -1.045  0.00  0.00    +0.008 A 
ATOM     34  C   UNL     1      -4.835  -0.766  -2.733  0.00  0.00    +0.001 A 
ATOM     35  C   UNL     1      -5.960  -0.027  -2.380  0.00  0.00    +0.001 A 
ENDBRANCH   9  20
ENDBRANCH  15   6
BRANCH  14   5
ATOM      5  N   UNL     1       4.471  -0.062  -0.912  0.00  0.00    -0.187 N 
ATOM      7  N   UNL     1       5.340   0.276  -1.869  0.00  0.00    -0.041 NA
ATOM      8  N   UNL     1       4.385   2.095  -1.004  0.00  0.00    -0.071 NA
ATOM     10  N   UNL     1       5.284   1.601  -1.922  0.00  0.00    -0.020 NA
ATOM     18  C   UNL     1       3.893   1.044  -0.389  0.00  0.00    +0.342 A 
BRANCH  18   3
ATOM      3  O   UNL     1       2.992   1.045   0.576  0.00  0.00    -0.423 OA
BRANCH   3  21
ATOM     21  C   UNL     1       2.013   2.023   0.683  0.00  0.00    +0.134 A 
ATOM     24  C   UNL     1       0.802   1.832   0.046  0.00  0.00    +0.069 A 
ATOM     25  C   UNL     1       2.277   3.158   1.424  0.00  0.00    +0.046 A 
ATOM     29  C   UNL     1      -0.182   2.815   0.154  0.00  0.00    +0.033 A 
ATOM     31  C   UNL     1       1.294   4.141   1.532  0.00  0.00    +0.005 A 
ATOM     33  C   UNL     1       0.064   3.970   0.897  0.00  0.00    +0.023 A 
BRANCH  29  11
ATOM     11  N   UNL     1      -1.425   2.642  -0.490  0.00  0.00    -0.336 N 
ATOM     36  C   UNL     1      -1.514   1.886  -1.724  0.00  0.00    +0.129 C 
ATOM     37  C   UNL     1      -2.628   3.228   0.067  0.00  0.00    +0.129 C 
ENDBRANCH  29  11
ENDBRANCH   3  21
ENDBRANCH  18   3
ENDBRANCH  14   5
TORSDOF 6
