REMARK  Name = 9424313
REMARK  5 active torsions:
REMARK  status: ('A' for Active; 'I' for Inactive)
REMARK    1  A    between atoms: N_6  and  C_9
REMARK    2  A    between atoms: N_8  and  C_23
REMARK    3  A    between atoms: C_21  and  C_24
REMARK    4  A    between atoms: C_23  and  C_25
REMARK    5  A    between atoms: C_23  and  C_26
REMARK                            x       y       z     vdW  Elec       q    Type
REMARK                         _______ _______ _______ _____ _____    ______ ____
ROOT
ATOM      2  O   UNL     1       1.495   2.304  -0.952  0.00  0.00    -0.273 OA
ATOM      3  O   UNL     1      -1.722  -1.674  -1.968  0.00  0.00    -0.270 OA
ATOM      5  N   UNL     1       0.134  -0.662  -1.007  0.00  0.00    -0.286 N 
ATOM      7  N   UNL     1      -0.769   2.136  -0.678  0.00  0.00    -0.283 N 
ATOM      9  C   UNL     1       3.022  -0.534  -0.602  0.00  0.00    +0.078 C 
ATOM     10  C   UNL     1       0.654   0.253   0.001  0.00  0.00    +0.164 C 
ATOM     11  C   UNL     1       2.066  -0.079   0.500  0.00  0.00    +0.054 C 
ATOM     12  C   UNL     1       2.382  -1.671  -1.390  0.00  0.00    +0.041 C 
ATOM     13  C   UNL     1       1.062  -1.221  -1.993  0.00  0.00    +0.111 C 
ATOM     14  C   UNL     1       0.518   1.637  -0.606  0.00  0.00    +0.238 C 
ATOM     15  C   UNL     1      -1.236  -0.840  -1.202  0.00  0.00    +0.249 C 
ATOM     16  C   UNL     1      -2.180   0.073  -0.504  0.00  0.00    +0.059 A 
ATOM     17  C   UNL     1      -1.975   1.460  -0.385  0.00  0.00    +0.046 A 
ATOM     19  C   UNL     1      -3.420  -0.479  -0.140  0.00  0.00    +0.023 A 
ATOM     20  C   UNL     1      -3.043   2.270   0.035  0.00  0.00    +0.024 A 
ATOM     21  C   UNL     1      -4.452   0.335   0.323  0.00  0.00    -0.017 A 
ATOM     22  C   UNL     1      -4.269   1.711   0.397  0.00  0.00    +0.010 A 
ATOM     31  H   UNL     1      -0.847   3.133  -0.868  0.00  0.00    +0.155 HD
ENDROOT
BRANCH   9   6
ATOM      4  O   UNL     1       5.329   1.129  -0.108  0.00  0.00    -0.253 OA
ATOM      6  N   UNL     1       4.288  -0.945  -0.043  0.00  0.00    -0.296 N 
ATOM      8  N   UNL     1       6.450  -0.729   0.713  0.00  0.00    -0.297 N 
ATOM     18  C   UNL     1       5.353  -0.070   0.162  0.00  0.00    +0.300 C 
ATOM     30  H   UNL     1       4.385  -1.903   0.281  0.00  0.00    +0.151 HD
ATOM     32  H   UNL     1       6.348  -1.706   0.970  0.00  0.00    +0.150 HD
BRANCH   8  23
ATOM     23  C   UNL     1       7.689  -0.057   1.026  0.00  0.00    +0.068 C 
ATOM     25  C   UNL     1       8.866  -1.009   0.853  0.00  0.00    +0.027 C 
ATOM     26  C   UNL     1       7.645   0.516   2.437  0.00  0.00    +0.027 C 
ENDBRANCH   8  23
ENDBRANCH   9   6
BRANCH  21  24
ATOM      1  S   UNL     1      -7.389  -1.979   1.584  0.00  0.00    -0.104 S 
ATOM     24  C   UNL     1      -5.713  -0.243   0.695  0.00  0.00    -0.011 A 
ATOM     27  C   UNL     1      -7.002   0.359   0.592  0.00  0.00    +0.016 A 
ATOM     28  C   UNL     1      -5.781  -1.516   1.220  0.00  0.00    +0.053 A 
ATOM     29  C   UNL     1      -8.002  -0.476   1.040  0.00  0.00    +0.046 A 
ENDBRANCH  21  24
TORSDOF 3
