REMARK  Name = 7051565
REMARK  8 active torsions:
REMARK  status: ('A' for Active; 'I' for Inactive)
REMARK    1  A    between atoms: O_3  and  C_21
REMARK    2  A    between atoms: O_3  and  C_28
REMARK    3  A    between atoms: N_5  and  C_25
REMARK    4  A    between atoms: C_6  and  C_7
REMARK    5  A    between atoms: C_7  and  C_13
REMARK    6  A    between atoms: C_7  and  C_14
REMARK    7  A    between atoms: C_15  and  C_23
REMARK    8  A    between atoms: C_16  and  C_24
REMARK                            x       y       z     vdW  Elec       q    Type
REMARK                         _______ _______ _______ _____ _____    ______ ____
ROOT
ATOM      7  C   UNL     1       0.634   2.112   0.007  0.00  0.00    +0.075 C 
ATOM     14  C   UNL     1       0.434   3.616   0.103  0.00  0.00    +0.017 C 
ENDROOT
BRANCH   7   6
ATOM      6  C   UNL     1       2.110   1.738   0.125  0.00  0.00    +0.005 C 
ATOM      8  C   UNL     1       2.940   2.432  -0.960  0.00  0.00    +0.009 C 
ATOM      9  C   UNL     1       2.292   0.216   0.024  0.00  0.00    +0.040 C 
ATOM     10  C   UNL     1       4.428   2.151  -0.757  0.00  0.00    +0.036 C 
ATOM     11  C   UNL     1       3.735  -0.208  -0.106  0.00  0.00    -0.037 A 
ATOM     12  C   UNL     1       4.734   0.695  -0.513  0.00  0.00    -0.041 A 
ATOM     15  C   UNL     1       4.074  -1.549   0.130  0.00  0.00    -0.005 A 
ATOM     16  C   UNL     1       6.057   0.247  -0.640  0.00  0.00    -0.044 A 
ATOM     21  C   UNL     1       5.391  -1.984  -0.010  0.00  0.00    +0.124 A 
ATOM     22  C   UNL     1       6.383  -1.087  -0.392  0.00  0.00    +0.049 A 
ATOM     23  C   UNL     1       3.029  -2.546   0.527  0.00  0.00    +0.048 C 
ATOM     24  C   UNL     1       7.163   1.174  -1.033  0.00  0.00    +0.044 C 
BRANCH  21   3
ATOM      3  O   UNL     1       5.727  -3.284   0.221  0.00  0.00    -0.495 OA
ATOM     28  C   UNL     1       7.098  -3.639   0.054  0.00  0.00    +0.277 C 
ENDBRANCH  21   3
ENDBRANCH   7   6
BRANCH   7  13
ATOM      2  O   UNL     1       0.395   1.217   2.193  0.00  0.00    -0.275 OA
ATOM      4  N   UNL     1      -1.467   1.098   0.807  0.00  0.00    -0.298 N 
ATOM      5  N   UNL     1      -4.143   0.160   0.225  0.00  0.00    -0.327 N 
ATOM     13  C   UNL     1      -0.147   1.435   1.106  0.00  0.00    +0.219 C 
ATOM     17  C   UNL     1      -2.291   0.445   1.821  0.00  0.00    +0.126 C 
ATOM     18  C   UNL     1      -2.106   1.349  -0.487  0.00  0.00    +0.126 C 
ATOM     19  C   UNL     1      -3.294  -0.526   1.203  0.00  0.00    +0.124 C 
ATOM     20  C   UNL     1      -3.631   1.383  -0.398  0.00  0.00    +0.124 C 
BRANCH   5  25
ATOM      1  F   UNL     1      -9.224  -1.761  -0.968  0.00  0.00    -0.205 F 
ATOM     25  C   UNL     1      -5.416  -0.321  -0.074  0.00  0.00    +0.030 A 
ATOM     26  C   UNL     1      -5.719  -1.701   0.007  0.00  0.00    +0.026 A 
ATOM     27  C   UNL     1      -6.458   0.550  -0.470  0.00  0.00    +0.026 A 
ATOM     29  C   UNL     1      -6.993  -2.183  -0.293  0.00  0.00    +0.040 A 
ATOM     30  C   UNL     1      -7.732   0.068  -0.770  0.00  0.00    +0.040 A 
ATOM     31  C   UNL     1      -8.000  -1.298  -0.681  0.00  0.00    +0.124 A 
ENDBRANCH   5  25
ENDBRANCH   7  13
TORSDOF 4
