REMARK  Name = 56775103
REMARK  5 active torsions:
REMARK  status: ('A' for Active; 'I' for Inactive)
REMARK    1  A    between atoms: N_4  and  C_11
REMARK    2  A    between atoms: N_5  and  C_14
REMARK    3  A    between atoms: N_6  and  C_20
REMARK    4  A    between atoms: C_11  and  C_15
REMARK    5  A    between atoms: C_21  and  C_22
REMARK                            x       y       z     vdW  Elec       q    Type
REMARK                         _______ _______ _______ _____ _____    ______ ____
ROOT
ATOM     11  C   UNL     1       0.112   0.007  -1.446  0.00  0.00    +0.119 C 
ENDROOT
BRANCH  11   4
ATOM      1  O   UNL     1       3.619   1.649   0.290  0.00  0.00    -0.364 OA
ATOM      2  O   UNL     1       6.674  -0.080  -0.015  0.00  0.00    -0.273 OA
ATOM      4  N   UNL     1       1.007  -0.261  -0.332  0.00  0.00    -0.294 NA
ATOM      5  N   UNL     1       4.538  -0.949   0.295  0.00  0.00    -0.296 N 
ATOM      7  C   UNL     1       3.114  -0.701   0.509  0.00  0.00    +0.120 C 
ATOM      8  C   UNL     1       2.765   0.717   0.950  0.00  0.00    +0.154 C 
ATOM      9  C   UNL     1       2.273  -0.859  -0.754  0.00  0.00    +0.110 C 
ATOM     10  C   UNL     1       1.340   0.945   0.438  0.00  0.00    +0.118 C 
ATOM     12  C   UNL     1       4.965   1.440   0.648  0.00  0.00    +0.256 C 
ATOM     13  C   UNL     1       5.482   0.073   0.252  0.00  0.00    +0.241 C 
ATOM     14  C   UNL     1       4.938  -2.324   0.027  0.00  0.00    +0.132 C 
ENDBRANCH  11   4
BRANCH  11  15
ATOM     15  C   UNL     1      -1.317   0.155  -0.994  0.00  0.00    -0.033 A 
ATOM     16  C   UNL     1      -2.063  -0.975  -0.659  0.00  0.00    +0.007 A 
ATOM     17  C   UNL     1      -1.895   1.422  -0.910  0.00  0.00    +0.007 A 
ATOM     18  C   UNL     1      -3.386  -0.838  -0.241  0.00  0.00    +0.023 A 
ATOM     19  C   UNL     1      -3.218   1.559  -0.492  0.00  0.00    +0.023 A 
ATOM     20  C   UNL     1      -3.964   0.428  -0.157  0.00  0.00    +0.033 A 
BRANCH  20   6
ATOM      3  O   UNL     1      -5.979  -1.651   0.670  0.00  0.00    -0.276 OA
ATOM      6  N   UNL     1      -5.288   0.566   0.261  0.00  0.00    -0.286 N 
ATOM     21  C   UNL     1      -6.186  -0.443   0.635  0.00  0.00    +0.214 C 
ATOM     22  C   UNL     1      -7.530   0.121   1.024  0.00  0.00    +0.109 C 
ATOM     23  H   UNL     1      -5.636   1.522   0.295  0.00  0.00    +0.155 HD
ENDBRANCH  20   6
ENDBRANCH  11  15
TORSDOF 3
