REMARK  Name = 75536035
REMARK  8 active torsions:
REMARK  status: ('A' for Active; 'I' for Inactive)
REMARK    1  A    between atoms: O_5  and  C_31
REMARK    2  A    between atoms: O_5  and  C_36
REMARK    3  A    between atoms: N_11  and  C_27
REMARK    4  A    between atoms: C_13  and  C_18
REMARK    5  A    between atoms: C_14  and  C_23
REMARK    6  A    between atoms: C_27  and  C_30
REMARK    7  A    between atoms: C_27  and  C_31
REMARK    8  A    between atoms: C_30  and  C_32
REMARK                            x       y       z     vdW  Elec       q    Type
REMARK                         _______ _______ _______ _____ _____    ______ ____
ROOT
ATOM      1  O   UNL     1      -0.775   3.557  -0.340  0.00  0.00    -0.275 OA
ATOM      2  O   UNL     1      -4.969  -5.055   0.499  0.00  0.00    -0.377 OA
ATOM      4  O   UNL     1      -1.032  -2.829  -1.600  0.00  0.00    -0.252 OA
ATOM      7  N   UNL     1      -1.777   1.501   0.080  0.00  0.00    -0.298 N 
ATOM      8  N   UNL     1      -1.609  -1.371   0.099  0.00  0.00    -0.271 N 
ATOM     10  N   UNL     1      -2.782  -3.432  -0.228  0.00  0.00    -0.281 N 
ATOM     14  C   UNL     1      -0.410  -0.549  -0.114  0.00  0.00    +0.181 C 
ATOM     15  C   UNL     1      -0.527   0.857   0.476  0.00  0.00    +0.139 C 
ATOM     16  C   UNL     1      -2.985   0.670   0.132  0.00  0.00    +0.127 C 
ATOM     17  C   UNL     1      -2.735  -0.698   0.765  0.00  0.00    +0.129 C 
ATOM     18  C   UNL     1      -1.781   2.846  -0.292  0.00  0.00    +0.219 C 
ATOM     24  C   UNL     1      -1.764  -2.560  -0.639  0.00  0.00    +0.306 C 
ATOM     25  C   UNL     1      -2.948  -3.897   1.155  0.00  0.00    +0.137 C 
ATOM     26  C   UNL     1      -3.435  -4.287  -1.217  0.00  0.00    +0.137 C 
ATOM     28  C   UNL     1      -4.419  -4.142   1.455  0.00  0.00    +0.179 C 
ATOM     29  C   UNL     1      -4.887  -4.526  -0.827  0.00  0.00    +0.179 C 
ENDROOT
BRANCH  18  13
ATOM      9  N   UNL     1      -3.198   6.288   0.008  0.00  0.00    -0.316 NA
ATOM     13  C   UNL     1      -3.121   3.429  -0.643  0.00  0.00    +0.078 C 
ATOM     19  C   UNL     1      -3.825   3.970   0.603  0.00  0.00    +0.028 C 
ATOM     20  C   UNL     1      -2.979   4.519  -1.708  0.00  0.00    +0.028 C 
ATOM     21  C   UNL     1      -3.223   5.293   1.080  0.00  0.00    +0.081 C 
ATOM     22  C   UNL     1      -2.413   5.819  -1.134  0.00  0.00    +0.081 C 
ATOM     38  H   UNL     1      -2.795   7.155   0.361  0.00  0.00    +0.122 HD
ENDBRANCH  18  13
BRANCH  14  23
ATOM      3  O   UNL     1       0.513  -1.953   1.581  0.00  0.00    -0.274 OA
ATOM     11  N   UNL     1       1.924  -1.079  -0.052  0.00  0.00    -0.301 N 
ATOM     23  C   UNL     1       0.704  -1.280   0.571  0.00  0.00    +0.236 C 
ATOM     39  H   UNL     1       1.968  -0.481  -0.872  0.00  0.00    +0.150 HD
BRANCH  11  27
ATOM     27  C   UNL     1       3.160  -1.656   0.426  0.00  0.00    +0.186 C 
BRANCH  27  31
ATOM      6  O   UNL     1       3.846  -1.774  -1.888  0.00  0.00    -0.249 OA
ATOM     31  C   UNL     1       4.093  -2.039  -0.716  0.00  0.00    +0.328 C 
BRANCH  31   5
ATOM      5  O   UNL     1       5.194  -2.708  -0.276  0.00  0.00    -0.467 OA
ATOM     36  C   UNL     1       6.116  -3.121  -1.290  0.00  0.00    +0.280 C 
ENDBRANCH  31   5
ENDBRANCH  27  31
BRANCH  27  30
ATOM     30  C   UNL     1       3.852  -0.752   1.456  0.00  0.00    +0.070 C 
BRANCH  30  32
ATOM     12  N   UNL     1       3.817   2.915   0.489  0.00  0.00    -0.263 NA
ATOM     32  C   UNL     1       4.307   0.586   0.918  0.00  0.00    -0.027 A 
ATOM     33  C   UNL     1       5.575   0.745   0.371  0.00  0.00    +0.006 A 
ATOM     34  C   UNL     1       3.473   1.692   0.953  0.00  0.00    +0.114 A 
ATOM     35  C   UNL     1       5.965   1.988  -0.117  0.00  0.00    +0.020 A 
ATOM     37  C   UNL     1       5.057   3.031  -0.035  0.00  0.00    +0.111 A 
ENDBRANCH  30  32
ENDBRANCH  27  30
ENDBRANCH  11  27
ENDBRANCH  14  23
TORSDOF 7
