REMARK  Name = 75367757
REMARK  3 active torsions:
REMARK  status: ('A' for Active; 'I' for Inactive)
REMARK    1  A    between atoms: O_3  and  C_6
REMARK    2  A    between atoms: N_4  and  C_8
REMARK    3  A    between atoms: C_8  and  C_11
REMARK                            x       y       z     vdW  Elec       q    Type
REMARK                         _______ _______ _______ _____ _____    ______ ____
ROOT
ATOM      2  O   UNL     1       3.962   0.464  -0.824  0.00  0.00    -0.376 OA
ATOM      4  N   UNL     1       1.098   0.688   0.388  0.00  0.00    -0.293 NA
ATOM      5  C   UNL     1       1.327  -0.744   0.609  0.00  0.00    +0.118 C 
ATOM      6  C   UNL     1       2.692  -1.322   0.203  0.00  0.00    +0.154 C 
ATOM      7  C   UNL     1       2.270   1.531   0.627  0.00  0.00    +0.113 C 
ATOM      9  C   UNL     1       3.260  -0.746  -1.087  0.00  0.00    +0.192 C 
ATOM     10  C   UNL     1       3.129   1.600  -0.636  0.00  0.00    +0.175 C 
ENDROOT
BRANCH   6   3
ATOM      3  O   UNL     1       2.542  -2.732   0.028  0.00  0.00    -0.388 OA
ATOM     17  H   UNL     1       2.215  -3.098   0.867  0.00  0.00    +0.210 HD
ENDBRANCH   6   3
BRANCH   4   8
ATOM      8  C   UNL     1      -0.054   1.139   1.170  0.00  0.00    +0.119 C 
BRANCH   8  11
ATOM      1  F   UNL     1      -4.909  -0.782  -0.950  0.00  0.00    -0.205 F 
ATOM     11  C   UNL     1      -1.351   0.626   0.604  0.00  0.00    -0.033 A 
ATOM     12  C   UNL     1      -2.038   1.372  -0.354  0.00  0.00    +0.008 A 
ATOM     13  C   UNL     1      -1.866  -0.596   1.036  0.00  0.00    +0.008 A 
ATOM     14  C   UNL     1      -3.240   0.897  -0.879  0.00  0.00    +0.038 A 
ATOM     15  C   UNL     1      -3.068  -1.071   0.511  0.00  0.00    +0.038 A 
ATOM     16  C   UNL     1      -3.755  -0.325  -0.446  0.00  0.00    +0.123 A 
ENDBRANCH   8  11
ENDBRANCH   4   8
TORSDOF 3
