REMARK  Name = 11867056
REMARK  9 active torsions:
REMARK  status: ('A' for Active; 'I' for Inactive)
REMARK    1  A    between atoms: O_3  and  C_15
REMARK    2  A    between atoms: O_4  and  C_20
REMARK    3  A    between atoms: N_8  and  C_26
REMARK    4  A    between atoms: C_10  and  C_18
REMARK    5  A    between atoms: C_12  and  C_20
REMARK    6  A    between atoms: C_12  and  C_21
REMARK    7  A    between atoms: C_13  and  C_23
REMARK    8  A    between atoms: C_23  and  C_24
REMARK    9  A    between atoms: C_29  and  C_30
REMARK                            x       y       z     vdW  Elec       q    Type
REMARK                         _______ _______ _______ _____ _____    ______ ____
ROOT
ATOM      1  S   UNL     1       0.245   2.611   0.158  0.00  0.00    -0.057 S 
ATOM      6  O   UNL     1       3.417  -0.786  -0.112  0.00  0.00    -0.270 OA
ATOM      7  N   UNL     1       0.582   0.053  -0.030  0.00  0.00    -0.229 NA
ATOM      9  N   UNL     1       2.573   1.408   0.056  0.00  0.00    -0.261 N 
ATOM     10  C   UNL     1      -3.232  -0.347   0.371  0.00  0.00    -0.019 C 
ATOM     11  C   UNL     1      -3.532   1.049  -0.335  0.00  0.00    +0.011 C 
ATOM     12  C   UNL     1      -5.035   1.527  -0.367  0.00  0.00    +0.021 C 
ATOM     13  C   UNL     1      -1.780  -0.830  -0.089  0.00  0.00    +0.054 C 
ATOM     14  C   UNL     1      -4.270  -1.398  -0.102  0.00  0.00    +0.010 C 
ATOM     15  C   UNL     1      -5.939   0.344  -0.816  0.00  0.00    +0.123 C 
ATOM     16  C   UNL     1      -2.534   2.148   0.131  0.00  0.00    +0.049 C 
ATOM     17  C   UNL     1      -5.714  -0.926  -0.004  0.00  0.00    +0.032 C 
ATOM     18  C   UNL     1      -3.281  -0.261   1.916  0.00  0.00    +0.012 C 
ATOM     19  C   UNL     1      -0.780   0.292   0.008  0.00  0.00    +0.058 A 
ATOM     21  C   UNL     1      -5.186   2.653  -1.428  0.00  0.00    +0.016 C 
ATOM     22  C   UNL     1      -1.139   1.622   0.087  0.00  0.00    +0.015 A 
ATOM     25  C   UNL     1       1.219   1.201   0.050  0.00  0.00    +0.165 A 
ATOM     29  C   UNL     1       3.574   0.427  -0.024  0.00  0.00    +0.250 C 
ATOM     39  H   UNL     1       2.832   2.389   0.083  0.00  0.00    +0.157 HD
ENDROOT
BRANCH  29  30
ATOM      2  F   UNL     1       8.845   2.366  -0.042  0.00  0.00    -0.205 F 
ATOM     30  C   UNL     1       4.970   0.940  -0.028  0.00  0.00    +0.037 A 
ATOM     31  C   UNL     1       5.982   0.203  -0.645  0.00  0.00    +0.016 A 
ATOM     32  C   UNL     1       5.267   2.158   0.583  0.00  0.00    +0.016 A 
ATOM     33  C   UNL     1       7.291   0.685  -0.649  0.00  0.00    +0.039 A 
ATOM     34  C   UNL     1       6.576   2.639   0.579  0.00  0.00    +0.039 A 
ATOM     35  C   UNL     1       7.588   1.903  -0.038  0.00  0.00    +0.123 A 
ENDBRANCH  29  30
BRANCH  15   3
ATOM      3  O   UNL     1      -7.318   0.705  -0.731  0.00  0.00    -0.391 OA
ATOM     36  H   UNL     1      -7.840  -0.045  -1.064  0.00  0.00    +0.210 HD
ENDBRANCH  15   3
BRANCH  12  20
ATOM     20  C   UNL     1      -5.542   2.135   0.959  0.00  0.00    +0.165 C 
BRANCH  20   4
ATOM      4  O   UNL     1      -6.885   2.521   0.771  0.00  0.00    -0.394 OA
ATOM     37  H   UNL     1      -7.194   2.912   1.607  0.00  0.00    +0.209 HD
ENDBRANCH  20   4
ENDBRANCH  12  20
BRANCH  13  23
ATOM     23  C   UNL     1      -1.276  -2.095   0.618  0.00  0.00    +0.106 C 
BRANCH  23  24
ATOM      5  O   UNL     1       0.033  -2.536  -1.371  0.00  0.00    -0.276 OA
ATOM      8  N   UNL     1       0.123  -4.023   0.409  0.00  0.00    -0.312 N 
ATOM     24  C   UNL     1      -0.312  -2.878  -0.243  0.00  0.00    +0.214 C 
ATOM     38  H   UNL     1      -0.219  -4.234   1.343  0.00  0.00    +0.149 HD
BRANCH   8  26
ATOM     26  C   UNL     1       1.045  -4.947  -0.187  0.00  0.00    +0.073 C 
ATOM     27  C   UNL     1       2.527  -4.720  -0.116  0.00  0.00    +0.024 C 
ATOM     28  C   UNL     1       1.902  -5.842   0.660  0.00  0.00    +0.024 C 
ENDBRANCH   8  26
ENDBRANCH  23  24
ENDBRANCH  13  23
TORSDOF 7
