REMARK  Name = 28960506
REMARK  8 active torsions:
REMARK  status: ('A' for Active; 'I' for Inactive)
REMARK    1  A    between atoms: O_6  and  C_13
REMARK    2  A    between atoms: O_8  and  C_30
REMARK    3  A    between atoms: O_8  and  C_31
REMARK    4  A    between atoms: N_9  and  C_12
REMARK    5  A    between atoms: N_10  and  C_14
REMARK    6  A    between atoms: N_10  and  C_23
REMARK    7  A    between atoms: C_22  and  C_24
REMARK    8  A    between atoms: C_23  and  C_25
REMARK                            x       y       z     vdW  Elec       q    Type
REMARK                         _______ _______ _______ _____ _____    ______ ____
ROOT
ATOM      4  O   UNL     1      -3.057  -1.149  -1.750  0.00  0.00    -0.343 OA
ATOM      5  O   UNL     1      -5.071  -1.613  -0.699  0.00  0.00    -0.347 OA
ATOM     12  C   UNL     1      -3.492  -0.154   0.407  0.00  0.00    +0.143 C 
ATOM     13  C   UNL     1      -2.837  -1.363   1.113  0.00  0.00    +0.156 C 
ATOM     14  C   UNL     1      -2.201  -2.388   0.142  0.00  0.00    +0.116 C 
ATOM     15  C   UNL     1      -4.099  -0.583  -0.942  0.00  0.00    +0.270 C 
ATOM     16  C   UNL     1      -2.951  -2.470  -1.208  0.00  0.00    +0.166 C 
ATOM     17  C   UNL     1      -4.420  -2.833  -1.083  0.00  0.00    +0.196 C 
ENDROOT
BRANCH  12   9
ATOM      9  N   UNL     1      -2.515   0.916   0.198  0.00  0.00    -0.293 NA
ATOM     18  C   UNL     1      -2.982   1.842  -0.843  0.00  0.00    +0.085 C 
ATOM     19  C   UNL     1      -2.251   1.624   1.458  0.00  0.00    +0.085 C 
ATOM     20  C   UNL     1      -1.947   2.935  -1.112  0.00  0.00    +0.028 C 
ATOM     21  C   UNL     1      -1.191   2.710   1.269  0.00  0.00    +0.028 C 
ATOM     22  C   UNL     1      -1.593   3.690   0.167  0.00  0.00    +0.077 C 
BRANCH  22  24
ATOM      7  O   UNL     1       0.397   4.423  -0.932  0.00  0.00    -0.276 OA
ATOM     11  N   UNL     1      -0.495   5.761   0.714  0.00  0.00    -0.329 N 
ATOM     24  C   UNL     1      -0.469   4.645  -0.089  0.00  0.00    +0.214 C 
ATOM     34  H   UNL     1      -1.216   5.914   1.412  0.00  0.00    +0.145 HD
ATOM     35  H   UNL     1       0.219   6.477   0.634  0.00  0.00    +0.145 HD
ENDBRANCH  22  24
ENDBRANCH  12   9
BRANCH  13   6
ATOM      6  O   UNL     1      -3.858  -2.028   1.872  0.00  0.00    -0.388 OA
ATOM     33  H   UNL     1      -3.434  -2.752   2.363  0.00  0.00    +0.210 HD
ENDBRANCH  13   6
BRANCH  14  10
ATOM     10  N   UNL     1      -0.803  -2.039  -0.133  0.00  0.00    -0.305 NA
ATOM     32  H   UNL     1      -0.731  -1.038  -0.316  0.00  0.00    +0.123 HD
BRANCH  10  23
ATOM     23  C   UNL     1       0.044  -2.407   0.989  0.00  0.00    +0.116 C 
BRANCH  23  25
ATOM     25  C   UNL     1       1.487  -2.057   0.741  0.00  0.00    -0.033 A 
ATOM     26  C   UNL     1       2.261  -2.846  -0.110  0.00  0.00    +0.008 A 
ATOM     27  C   UNL     1       2.049  -0.941   1.361  0.00  0.00    +0.008 A 
ATOM     28  C   UNL     1       3.597  -2.521  -0.339  0.00  0.00    +0.046 A 
ATOM     29  C   UNL     1       3.386  -0.616   1.131  0.00  0.00    +0.046 A 
ATOM     30  C   UNL     1       4.160  -1.406   0.281  0.00  0.00    +0.130 A 
BRANCH  30   8
ATOM      8  O   UNL     1       5.464  -1.088   0.056  0.00  0.00    -0.406 OA
BRANCH   8  31
ATOM      1  F   UNL     1       6.877   0.071  -1.269  0.00  0.00    -0.133 F 
ATOM      2  F   UNL     1       4.757   0.598  -1.318  0.00  0.00    -0.133 F 
ATOM      3  F   UNL     1       5.994   1.104   0.443  0.00  0.00    -0.133 F 
ATOM     31  C   UNL     1       5.760   0.182  -0.515  0.00  0.00    +0.575 C 
ENDBRANCH   8  31
ENDBRANCH  30   8
ENDBRANCH  23  25
ENDBRANCH  10  23
ENDBRANCH  14  10
TORSDOF 8
