REMARK  Name = 11886000
REMARK  6 active torsions:
REMARK  status: ('A' for Active; 'I' for Inactive)
REMARK    1  A    between atoms: S_1  and  C_17
REMARK    2  A    between atoms: S_1  and  C_20
REMARK    3  A    between atoms: O_4  and  C_14
REMARK    4  A    between atoms: O_4  and  C_18
REMARK    5  A    between atoms: N_6  and  C_13
REMARK    6  A    between atoms: N_10  and  C_19
REMARK                            x       y       z     vdW  Elec       q    Type
REMARK                         _______ _______ _______ _____ _____    ______ ____
ROOT
ATOM      2  O   UNL     1       0.078  -0.634  -1.030  0.00  0.00    -0.368 OA
ATOM      3  O   UNL     1      -1.379  -2.687   0.764  0.00  0.00    -0.368 OA
ATOM     11  C   UNL     1      -1.582  -1.273   0.545  0.00  0.00    +0.177 C 
ATOM     12  C   UNL     1      -0.208  -0.655   0.377  0.00  0.00    +0.192 C 
ATOM     13  C   UNL     1      -2.262  -1.059  -0.793  0.00  0.00    +0.168 C 
ATOM     14  C   UNL     1       0.685  -1.624   1.115  0.00  0.00    +0.235 C 
ATOM     15  C   UNL     1      -1.087  -1.032  -1.766  0.00  0.00    +0.190 C 
ATOM     16  C   UNL     1       0.029  -2.951   0.814  0.00  0.00    +0.207 C 
ENDROOT
BRANCH  13   6
ATOM      6  N   UNL     1      -3.114   0.132  -0.805  0.00  0.00    -0.212 N 
ATOM      7  N   UNL     1      -2.597   1.324  -1.123  0.00  0.00    -0.043 NA
ATOM      8  N   UNL     1      -4.771   1.515  -0.668  0.00  0.00    -0.101 NA
ATOM      9  N   UNL     1      -3.618   2.169  -1.038  0.00  0.00    -0.022 NA
ATOM     17  C   UNL     1      -4.435   0.254  -0.530  0.00  0.00    +0.214 A 
BRANCH  17   1
ATOM      1  S   UNL     1      -5.450  -1.060  -0.081  0.00  0.00    -0.049 S 
BRANCH   1  20
ATOM     20  C   UNL     1      -7.003  -0.183   0.117  0.00  0.00    +0.016 A 
ATOM     24  C   UNL     1      -7.856  -0.045  -0.970  0.00  0.00    +0.015 A 
ATOM     25  C   UNL     1      -7.337   0.348   1.357  0.00  0.00    +0.015 A 
ATOM     30  C   UNL     1      -9.063   0.636  -0.816  0.00  0.00    +0.001 A 
ATOM     31  C   UNL     1      -8.545   1.029   1.510  0.00  0.00    +0.001 A 
ATOM     34  C   UNL     1      -9.408   1.173   0.424  0.00  0.00    +0.000 A 
ENDBRANCH   1  20
ENDBRANCH  17   1
ENDBRANCH  13   6
BRANCH  14   4
ATOM      4  O   UNL     1       2.029  -1.586   0.690  0.00  0.00    -0.442 OA
BRANCH   4  18
ATOM      5  O   UNL     1       2.195   0.584   1.392  0.00  0.00    -0.226 OA
ATOM     10  N   UNL     1       4.004  -0.534   0.414  0.00  0.00    -0.251 N 
ATOM     18  C   UNL     1       2.711  -0.402   0.880  0.00  0.00    +0.405 C 
ATOM     35  H   UNL     1       4.217  -1.446   0.028  0.00  0.00    +0.158 HD
BRANCH  10  19
ATOM     19  C   UNL     1       5.033   0.436   0.417  0.00  0.00    +0.044 A 
ATOM     21  C   UNL     1       6.302   0.150  -0.093  0.00  0.00    +0.003 A 
ATOM     22  C   UNL     1       4.726   1.681   0.951  0.00  0.00    +0.024 A 
ATOM     23  C   UNL     1       7.293   1.160  -0.063  0.00  0.00    -0.016 A 
ATOM     26  C   UNL     1       6.619  -1.107  -0.634  0.00  0.00    +0.010 A 
ATOM     27  C   UNL     1       5.700   2.674   0.980  0.00  0.00    +0.002 A 
ATOM     28  C   UNL     1       6.976   2.417   0.477  0.00  0.00    +0.008 A 
ATOM     29  C   UNL     1       8.571   0.884  -0.574  0.00  0.00    +0.008 A 
ATOM     32  C   UNL     1       7.895  -1.364  -1.137  0.00  0.00    +0.001 A 
ATOM     33  C   UNL     1       8.869  -0.371  -1.107  0.00  0.00    +0.001 A 
ENDBRANCH  10  19
ENDBRANCH   4  18
ENDBRANCH  14   4
TORSDOF 6
