REMARK  Name = 40780459
REMARK  10 active torsions:
REMARK  status: ('A' for Active; 'I' for Inactive)
REMARK    1  A    between atoms: N_3  and  C_9
REMARK    2  A    between atoms: N_4  and  C_17
REMARK    3  A    between atoms: N_6  and  C_28
REMARK    4  A    between atoms: N_6  and  C_31
REMARK    5  A    between atoms: N_6  and  C_32
REMARK    6  A    between atoms: C_7  and  C_10
REMARK    7  A    between atoms: C_13  and  C_15
REMARK    8  A    between atoms: C_14  and  C_16
REMARK    9  A    between atoms: C_18  and  C_20
REMARK   10  A    between atoms: C_19  and  C_23
REMARK                            x       y       z     vdW  Elec       q    Type
REMARK                         _______ _______ _______ _____ _____    ______ ____
ROOT
ATOM      7  C   UNL     1      -0.411   0.651  -0.489  0.00  0.00    +0.047 C 
ATOM      8  C   UNL     1       0.230  -0.637   0.068  0.00  0.00    +0.039 C 
ATOM      9  C   UNL     1       1.185  -1.135  -1.024  0.00  0.00    +0.097 C 
ATOM     11  C   UNL     1      -0.220   0.492  -1.970  0.00  0.00    -0.021 C 
ATOM     12  C   UNL     1       0.653  -0.480  -2.255  0.00  0.00    -0.009 C 
ENDROOT
BRANCH   7  10
ATOM      4  N   UNL     1      -3.985   0.596   0.313  0.00  0.00    -0.236 N 
ATOM      5  N   UNL     1      -3.705   1.779   0.885  0.00  0.00    -0.171 NA
ATOM     10  C   UNL     1      -1.846   0.841  -0.054  0.00  0.00    +0.003 A 
ATOM     13  C   UNL     1      -2.905  -0.007  -0.264  0.00  0.00    +0.046 A 
ATOM     14  C   UNL     1      -2.397   1.923   0.658  0.00  0.00    +0.064 A 
ATOM     15  C   UNL     1      -2.976  -1.313  -0.949  0.00  0.00    +0.066 C 
ATOM     16  C   UNL     1      -1.705   3.129   1.148  0.00  0.00    +0.068 C 
BRANCH   4  17
ATOM      1 CL   UNL     1      -9.480  -1.561   0.501  0.00  0.00    -0.084 Cl
ATOM     17  C   UNL     1      -5.289   0.101   0.349  0.00  0.00    +0.069 A 
ATOM     19  C   UNL     1      -6.343   0.813  -0.224  0.00  0.00    -0.024 A 
ATOM     21  C   UNL     1      -5.531  -1.125   0.969  0.00  0.00    +0.029 A 
ATOM     22  C   UNL     1      -7.639   0.299  -0.177  0.00  0.00    +0.025 A 
ATOM     23  C   UNL     1      -6.117   2.129  -0.895  0.00  0.00    +0.046 C 
ATOM     24  C   UNL     1      -6.827  -1.639   1.016  0.00  0.00    +0.022 A 
ATOM     27  C   UNL     1      -7.881  -0.927   0.443  0.00  0.00    +0.041 A 
ENDBRANCH   4  17
ENDBRANCH   7  10
BRANCH   9   3
ATOM      2  O   UNL     1       3.251  -2.601   0.330  0.00  0.00    -0.270 OA
ATOM      3  N   UNL     1       2.543  -0.710  -0.811  0.00  0.00    -0.305 N 
ATOM     18  C   UNL     1       3.478  -1.490  -0.141  0.00  0.00    +0.245 C 
ATOM     33  H   UNL     1       2.781   0.238  -1.087  0.00  0.00    +0.150 HD
BRANCH  18  20
ATOM     20  C   UNL     1       4.831  -0.896   0.019  0.00  0.00    +0.037 A 
ATOM     25  C   UNL     1       5.638  -1.279   1.091  0.00  0.00    +0.015 A 
ATOM     26  C   UNL     1       5.294   0.043  -0.903  0.00  0.00    +0.015 A 
ATOM     28  C   UNL     1       7.371   0.217   0.318  0.00  0.00    +0.029 A 
ATOM     29  C   UNL     1       6.908  -0.722   1.240  0.00  0.00    +0.024 A 
ATOM     30  C   UNL     1       6.564   0.599  -0.753  0.00  0.00    +0.024 A 
BRANCH  28   6
ATOM      6  N   UNL     1       8.656   0.778   0.469  0.00  0.00    -0.336 N 
ATOM     31  C   UNL     1       9.503   0.386   1.578  0.00  0.00    +0.129 C 
ATOM     32  C   UNL     1       9.150   1.749  -0.488  0.00  0.00    +0.129 C 
ENDBRANCH  28   6
ENDBRANCH  18  20
ENDBRANCH   9   3
TORSDOF 5
