REMARK  Name = 11884453
REMARK  7 active torsions:
REMARK  status: ('A' for Active; 'I' for Inactive)
REMARK    1  A    between atoms: S_1  and  N_10
REMARK    2  A    between atoms: S_1  and  C_24
REMARK    3  A    between atoms: O_9  and  C_37
REMARK    4  A    between atoms: O_9  and  C_38
REMARK    5  A    between atoms: N_12  and  C_22
REMARK    6  A    between atoms: C_27  and  C_31
REMARK    7  A    between atoms: C_30  and  C_32
REMARK                            x       y       z     vdW  Elec       q    Type
REMARK                         _______ _______ _______ _____ _____    ______ ____
ROOT
ATOM      7  O   UNL     1      -2.443   2.457  -0.147  0.00  0.00    -0.266 OA
ATOM     10  N   UNL     1       2.288   0.920  -0.440  0.00  0.00    -0.176 NA
ATOM     11  N   UNL     1      -0.481   1.699   0.872  0.00  0.00    -0.310 N 
ATOM     13  C   UNL     1       1.716   3.011   0.800  0.00  0.00    +0.025 C 
ATOM     14  C   UNL     1       1.627   0.846   1.957  0.00  0.00    +0.052 C 
ATOM     15  C   UNL     1       2.012   2.314   2.121  0.00  0.00    +0.017 C 
ATOM     16  C   UNL     1       2.541   2.386  -0.337  0.00  0.00    +0.114 C 
ATOM     17  C   UNL     1       2.493   0.207   0.856  0.00  0.00    +0.119 C 
ATOM     18  C   UNL     1       0.208   2.950   0.530  0.00  0.00    +0.130 C 
ATOM     19  C   UNL     1       0.154   0.703   1.620  0.00  0.00    +0.026 A 
ATOM     20  C   UNL     1      -0.530  -0.383   2.019  0.00  0.00    +0.024 A 
ATOM     21  C   UNL     1      -1.837   1.599   0.497  0.00  0.00    +0.273 A 
ATOM     22  C   UNL     1      -2.557   0.363   0.940  0.00  0.00    +0.099 A 
ATOM     23  C   UNL     1      -1.912  -0.554   1.669  0.00  0.00    +0.030 A 
ENDROOT
BRANCH  22  12
ATOM      8  O   UNL     1      -3.942  -2.101   0.547  0.00  0.00    -0.270 OA
ATOM     12  N   UNL     1      -3.866   0.224   0.587  0.00  0.00    -0.277 N 
ATOM     30  C   UNL     1      -4.484  -1.007   0.410  0.00  0.00    +0.248 C 
ATOM     39  H   UNL     1      -4.332   1.082   0.313  0.00  0.00    +0.155 HD
BRANCH  30  32
ATOM     32  C   UNL     1      -5.925  -0.958   0.048  0.00  0.00    +0.037 A 
ATOM     33  C   UNL     1      -6.734  -2.021   0.392  0.00  0.00    +0.016 A 
ATOM     34  C   UNL     1      -6.406   0.148  -0.621  0.00  0.00    +0.016 A 
ATOM     35  C   UNL     1      -8.085  -1.976   0.051  0.00  0.00    +0.046 A 
ATOM     36  C   UNL     1      -7.758   0.193  -0.962  0.00  0.00    +0.046 A 
ATOM     37  C   UNL     1      -8.598  -0.869  -0.626  0.00  0.00    +0.120 A 
BRANCH  37   9
ATOM      9  O   UNL     1      -9.917  -0.824  -0.957  0.00  0.00    -0.495 OA
ATOM     38  C   UNL     1     -10.374   0.337  -1.649  0.00  0.00    +0.277 C 
ENDBRANCH  37   9
ENDBRANCH  30  32
ENDBRANCH  22  12
BRANCH  10   1
ATOM      1  S   UNL     1       2.944   0.151  -1.820  0.00  0.00    +0.061 S 
ATOM      5  O   UNL     1       2.814   1.032  -2.961  0.00  0.00    -0.153 OA
ATOM      6  O   UNL     1       2.461  -1.213  -1.873  0.00  0.00    -0.153 OA
BRANCH   1  24
ATOM     24  C   UNL     1       4.650   0.105  -1.367  0.00  0.00    +0.106 A 
ATOM     25  C   UNL     1       5.138  -0.989  -0.671  0.00  0.00    +0.041 A 
ATOM     26  C   UNL     1       5.472   1.165  -1.714  0.00  0.00    +0.028 A 
ATOM     27  C   UNL     1       6.486  -1.025  -0.313  0.00  0.00    +0.057 A 
ATOM     28  C   UNL     1       6.819   1.129  -1.355  0.00  0.00    +0.002 A 
ATOM     29  C   UNL     1       7.326   0.035  -0.655  0.00  0.00    +0.012 A 
BRANCH  27  31
ATOM      2  F   UNL     1       8.360  -2.093   0.720  0.00  0.00    -0.166 F 
ATOM      3  F   UNL     1       6.422  -2.400   1.643  0.00  0.00    -0.166 F 
ATOM      4  F   UNL     1       6.887  -3.367  -0.248  0.00  0.00    -0.166 F 
ATOM     31  C   UNL     1       7.028  -2.195   0.436  0.00  0.00    +0.417 C 
ENDBRANCH  27  31
ENDBRANCH   1  24
ENDBRANCH  10   1
TORSDOF 6
