REMARK  Name = 40777105
REMARK  8 active torsions:
REMARK  status: ('A' for Active; 'I' for Inactive)
REMARK    1  A    between atoms: O_3  and  C_22
REMARK    2  A    between atoms: O_3  and  C_29
REMARK    3  A    between atoms: N_5  and  C_15
REMARK    4  A    between atoms: C_9  and  C_16
REMARK    5  A    between atoms: C_10  and  C_15
REMARK    6  A    between atoms: C_18  and  C_21
REMARK    7  A    between atoms: C_19  and  C_22
REMARK    8  A    between atoms: C_20  and  C_23
REMARK                            x       y       z     vdW  Elec       q    Type
REMARK                         _______ _______ _______ _____ _____    ______ ____
ROOT
ATOM      4  N   UNL     1      -1.796  -1.982   1.520  0.00  0.00    -0.297 NA
ATOM      8  C   UNL     1      -1.153  -2.320  -0.981  0.00  0.00    +0.002 C 
ATOM      9  C   UNL     1       0.113  -2.024  -0.130  0.00  0.00    +0.055 C 
ATOM     10  C   UNL     1      -2.664  -1.141   0.654  0.00  0.00    +0.074 C 
ATOM     11  C   UNL     1      -2.165  -1.168  -0.807  0.00  0.00    +0.024 C 
ATOM     12  C   UNL     1      -1.803  -3.588  -0.388  0.00  0.00    +0.019 C 
ATOM     13  C   UNL     1      -0.369  -1.637   1.298  0.00  0.00    +0.094 C 
ATOM     14  C   UNL     1      -1.997  -3.397   1.127  0.00  0.00    +0.085 C 
ENDROOT
BRANCH   9  16
ATOM      6  N   UNL     1       0.858  -0.483  -1.877  0.00  0.00    -0.237 NA
ATOM      7  N   UNL     1       2.935   0.729  -1.720  0.00  0.00    -0.232 NA
ATOM     16  C   UNL     1       1.136  -1.041  -0.680  0.00  0.00    +0.050 A 
ATOM     17  C   UNL     1       2.277  -0.768   0.046  0.00  0.00    +0.052 A 
ATOM     18  C   UNL     1       3.150   0.133  -0.528  0.00  0.00    +0.076 A 
ATOM     20  C   UNL     1       1.787   0.380  -2.330  0.00  0.00    +0.127 A 
ATOM     23  C   UNL     1       1.515   1.016  -3.652  0.00  0.00    +0.088 C 
BRANCH  18  21
ATOM      1 BR   UNL     1       2.941   2.656   1.427  0.00  0.00    -0.050 Br
ATOM     21  C   UNL     1       4.380   0.502   0.130  0.00  0.00    +0.014 A 
ATOM     24  C   UNL     1       4.452   1.580   1.013  0.00  0.00    +0.027 A 
ATOM     25  C   UNL     1       5.519  -0.256  -0.141  0.00  0.00    +0.011 A 
ATOM     26  C   UNL     1       5.664   1.899   1.626  0.00  0.00    +0.016 A 
ATOM     27  C   UNL     1       6.731   0.063   0.472  0.00  0.00    +0.001 A 
ATOM     28  C   UNL     1       6.804   1.141   1.355  0.00  0.00    +0.001 A 
ENDBRANCH  18  21
ENDBRANCH   9  16
BRANCH  10  15
ATOM     15  C   UNL     1      -2.804   0.289   1.181  0.00  0.00    +0.123 C 
BRANCH  15   5
ATOM      2  O   UNL     1      -5.656   0.521   1.600  0.00  0.00    -0.273 OA
ATOM      5  N   UNL     1      -3.734   1.035   0.392  0.00  0.00    -0.312 N 
ATOM     19  C   UNL     1      -5.100   1.093   0.667  0.00  0.00    +0.239 C 
ATOM     30  H   UNL     1      -3.375   1.544  -0.410  0.00  0.00    +0.149 HD
BRANCH  19  22
ATOM     22  C   UNL     1      -5.847   1.956  -0.328  0.00  0.00    +0.255 C 
BRANCH  22   3
ATOM      3  O   UNL     1      -7.222   2.003  -0.013  0.00  0.00    -0.374 OA
ATOM     29  C   UNL     1      -7.951   2.809  -0.934  0.00  0.00    +0.194 C 
ENDBRANCH  22   3
ENDBRANCH  19  22
ENDBRANCH  15   5
ENDBRANCH  10  15
TORSDOF 6
