REMARK  Name = 40776931
REMARK  7 active torsions:
REMARK  status: ('A' for Active; 'I' for Inactive)
REMARK    1  A    between atoms: N_4  and  C_15
REMARK    2  A    between atoms: N_7  and  C_23
REMARK    3  A    between atoms: C_9  and  C_16
REMARK    4  A    between atoms: C_10  and  C_15
REMARK    5  A    between atoms: C_18  and  C_21
REMARK    6  A    between atoms: C_19  and  C_22
REMARK    7  A    between atoms: C_23  and  C_28
REMARK                            x       y       z     vdW  Elec       q    Type
REMARK                         _______ _______ _______ _____ _____    ______ ____
ROOT
ATOM      3  N   UNL     1       0.269   3.976   0.464  0.00  0.00    -0.297 NA
ATOM      8  C   UNL     1       0.486   2.629  -1.754  0.00  0.00    +0.002 C 
ATOM      9  C   UNL     1      -0.911   2.401  -1.114  0.00  0.00    +0.055 C 
ATOM     10  C   UNL     1       1.533   3.193   0.467  0.00  0.00    +0.074 C 
ATOM     11  C   UNL     1       1.581   2.233  -0.741  0.00  0.00    +0.024 C 
ATOM     12  C   UNL     1       0.623   4.147  -1.999  0.00  0.00    +0.019 C 
ATOM     13  C   UNL     1      -0.891   3.067   0.291  0.00  0.00    +0.094 C 
ATOM     14  C   UNL     1       0.309   4.900  -0.694  0.00  0.00    +0.085 C 
ENDROOT
BRANCH   9  16
ATOM      5  N   UNL     1      -0.677   0.014  -1.592  0.00  0.00    -0.237 NA
ATOM      6  N   UNL     1      -2.394  -1.582  -1.031  0.00  0.00    -0.232 NA
ATOM     16  C   UNL     1      -1.461   0.983  -1.074  0.00  0.00    +0.050 A 
ATOM     17  C   UNL     1      -2.705   0.751  -0.524  0.00  0.00    +0.052 A 
ATOM     18  C   UNL     1      -3.125  -0.564  -0.530  0.00  0.00    +0.075 A 
ATOM     19  C   UNL     1      -1.198  -1.227  -1.539  0.00  0.00    +0.127 A 
ATOM     22  C   UNL     1      -0.362  -2.325  -2.104  0.00  0.00    +0.088 C 
BRANCH  18  21
ATOM      1  F   UNL     1      -8.080  -2.013   1.567  0.00  0.00    -0.205 F 
ATOM     21  C   UNL     1      -4.408  -0.939   0.013  0.00  0.00    +0.001 A 
ATOM     24  C   UNL     1      -4.699  -0.688   1.355  0.00  0.00    +0.013 A 
ATOM     25  C   UNL     1      -5.358  -1.553  -0.803  0.00  0.00    +0.013 A 
ATOM     26  C   UNL     1      -5.939  -1.051   1.879  0.00  0.00    +0.039 A 
ATOM     27  C   UNL     1      -6.599  -1.916  -0.278  0.00  0.00    +0.039 A 
ATOM     29  C   UNL     1      -6.889  -1.665   1.063  0.00  0.00    +0.123 A 
ENDBRANCH  18  21
ENDBRANCH   9  16
BRANCH  10  15
ATOM     15  C   UNL     1       1.761   2.458   1.789  0.00  0.00    +0.124 C 
BRANCH  15   4
ATOM      2  O   UNL     1       2.260  -0.356   2.094  0.00  0.00    -0.253 OA
ATOM      4  N   UNL     1       3.037   1.812   1.801  0.00  0.00    -0.298 N 
ATOM      7  N   UNL     1       4.539   0.060   1.930  0.00  0.00    -0.295 N 
ATOM     20  C   UNL     1       3.196   0.430   1.955  0.00  0.00    +0.300 C 
ATOM     35  H   UNL     1       3.871   2.388   1.739  0.00  0.00    +0.150 HD
ATOM     36  H   UNL     1       5.238   0.782   1.785  0.00  0.00    +0.151 HD
BRANCH   7  23
ATOM     23  C   UNL     1       4.985  -1.307   2.068  0.00  0.00    +0.141 C 
BRANCH  23  28
ATOM     28  C   UNL     1       5.089  -2.001   0.740  0.00  0.00    -0.030 A 
ATOM     30  C   UNL     1       3.990  -2.687   0.224  0.00  0.00    +0.005 A 
ATOM     31  C   UNL     1       6.285  -1.958   0.024  0.00  0.00    +0.005 A 
ATOM     32  C   UNL     1       4.087  -3.332  -1.010  0.00  0.00    +0.000 A 
ATOM     33  C   UNL     1       6.382  -2.602  -1.210  0.00  0.00    +0.000 A 
ATOM     34  C   UNL     1       5.283  -3.289  -1.726  0.00  0.00    +0.000 A 
ENDBRANCH  23  28
ENDBRANCH   7  23
ENDBRANCH  15   4
ENDBRANCH  10  15
TORSDOF 6
