REMARK  Name = 51137880
REMARK  6 active torsions:
REMARK  status: ('A' for Active; 'I' for Inactive)
REMARK    1  A    between atoms: O_1  and  C_25
REMARK    2  A    between atoms: N_3  and  C_11
REMARK    3  A    between atoms: N_4  and  C_15
REMARK    4  A    between atoms: C_6  and  C_10
REMARK    5  A    between atoms: C_11  and  C_13
REMARK    6  A    between atoms: C_24  and  C_25
REMARK                            x       y       z     vdW  Elec       q    Type
REMARK                         _______ _______ _______ _____ _____    ______ ____
ROOT
ATOM      3  N   UNL     1      -0.763  -0.236  -0.134  0.00  0.00    -0.297 NA
ATOM      6  C   UNL     1       1.410  -0.505   0.707  0.00  0.00    +0.070 C 
ATOM      7  C   UNL     1       0.657   0.540   1.550  0.00  0.00    +0.028 C 
ATOM      8  C   UNL     1       0.573  -0.649  -0.571  0.00  0.00    +0.096 C 
ATOM      9  C   UNL     1      -0.538   0.946   0.698  0.00  0.00    +0.085 C 
ENDROOT
BRANCH   6  10
ATOM      4  N   UNL     1       3.807  -1.141   0.254  0.00  0.00    -0.330 N 
ATOM      5  N   UNL     1       3.364   1.036   0.324  0.00  0.00    -0.232 NA
ATOM     10  C   UNL     1       2.857  -0.172   0.429  0.00  0.00    +0.115 A 
ATOM     12  C   UNL     1       5.005  -0.516   0.021  0.00  0.00    +0.069 A 
ATOM     14  C   UNL     1       4.702   0.842   0.070  0.00  0.00    +0.089 A 
ATOM     15  C   UNL     1       3.590  -2.569   0.305  0.00  0.00    +0.150 C 
ATOM     16  C   UNL     1       6.288  -1.007  -0.220  0.00  0.00    +0.028 A 
ATOM     19  C   UNL     1       5.728   1.780  -0.132  0.00  0.00    +0.030 A 
ATOM     20  C   UNL     1       7.298  -0.059  -0.419  0.00  0.00    +0.002 A 
ATOM     21  C   UNL     1       7.025   1.310  -0.376  0.00  0.00    +0.002 A 
ENDBRANCH   6  10
BRANCH   3  11
ATOM     11  C   UNL     1      -1.654   0.034  -1.252  0.00  0.00    +0.119 C 
BRANCH  11  13
ATOM     13  C   UNL     1      -3.100   0.026  -0.832  0.00  0.00    -0.033 A 
ATOM     17  C   UNL     1      -3.751  -1.185  -0.599  0.00  0.00    +0.006 A 
ATOM     18  C   UNL     1      -3.788   1.230  -0.676  0.00  0.00    +0.006 A 
ATOM     22  C   UNL     1      -5.090  -1.193  -0.209  0.00  0.00    +0.015 A 
ATOM     23  C   UNL     1      -5.127   1.222  -0.286  0.00  0.00    +0.015 A 
ATOM     24  C   UNL     1      -5.778   0.010  -0.053  0.00  0.00    +0.059 A 
BRANCH  24  25
ATOM      2  O   UNL     1      -7.847  -1.007   0.587  0.00  0.00    -0.245 OA
ATOM     25  C   UNL     1      -7.174   0.003   0.354  0.00  0.00    +0.337 C 
BRANCH  25   1
ATOM      1  O   UNL     1      -7.693   1.257   0.460  0.00  0.00    -0.477 OA
ATOM     26  H   UNL     1      -8.634   1.241   0.735  0.00  0.00    +0.295 HD
ENDBRANCH  25   1
ENDBRANCH  24  25
ENDBRANCH  11  13
ENDBRANCH   3  11
TORSDOF 5
