REMARK  Name = 11941677
REMARK  6 active torsions:
REMARK  status: ('A' for Active; 'I' for Inactive)
REMARK    1  A    between atoms: O_5  and  C_30
REMARK    2  A    between atoms: O_5  and  C_34
REMARK    3  A    between atoms: N_6  and  C_13
REMARK    4  A    between atoms: N_7  and  C_14
REMARK    5  A    between atoms: N_8  and  C_20
REMARK    6  A    between atoms: C_19  and  C_23
REMARK                            x       y       z     vdW  Elec       q    Type
REMARK                         _______ _______ _______ _____ _____    ______ ____
ROOT
ATOM      2  O   UNL     1      -1.550   3.706  -0.580  0.00  0.00    -0.370 OA
ATOM      3  O   UNL     1      -2.460   1.161  -2.138  0.00  0.00    -0.370 OA
ATOM     11  C   UNL     1      -2.424   1.499  -0.742  0.00  0.00    +0.171 C 
ATOM     12  C   UNL     1      -1.171   2.321  -0.510  0.00  0.00    +0.171 C 
ATOM     13  C   UNL     1      -3.553   2.442  -0.401  0.00  0.00    +0.130 C 
ATOM     14  C   UNL     1      -0.275   1.962  -1.674  0.00  0.00    +0.131 C 
ATOM     15  C   UNL     1      -2.971   3.799  -0.754  0.00  0.00    +0.185 C 
ATOM     16  C   UNL     1      -1.277   1.665  -2.776  0.00  0.00    +0.185 C 
ENDROOT
BRANCH  13   6
ATOM      6  N   UNL     1      -3.845   2.375   1.014  0.00  0.00    -0.306 N 
ATOM      9  N   UNL     1      -5.252   0.549   0.733  0.00  0.00    -0.214 NA
ATOM     10  N   UNL     1      -4.857   1.501   2.912  0.00  0.00    -0.223 NA
ATOM     17  C   UNL     1      -4.688   1.434   1.578  0.00  0.00    +0.216 A 
ATOM     19  C   UNL     1      -6.068  -0.353   1.316  0.00  0.00    +0.076 A 
ATOM     21  C   UNL     1      -5.686   0.569   3.428  0.00  0.00    +0.116 A 
ATOM     22  C   UNL     1      -6.325  -0.392   2.672  0.00  0.00    +0.048 A 
ATOM     40  H   UNL     1      -3.376   3.011   1.650  0.00  0.00    +0.149 HD
BRANCH  19  23
ATOM      1  F   UNL     1      -5.684  -3.879  -1.957  0.00  0.00    -0.205 F 
ATOM     23  C   UNL     1      -6.674  -1.304   0.415  0.00  0.00    +0.003 A 
ATOM     28  C   UNL     1      -5.870  -2.148  -0.351  0.00  0.00    +0.048 A 
ATOM     29  C   UNL     1      -8.063  -1.377   0.309  0.00  0.00    +0.010 A 
ATOM     31  C   UNL     1      -6.456  -3.067  -1.222  0.00  0.00    +0.124 A 
ATOM     32  C   UNL     1      -8.648  -2.296  -0.562  0.00  0.00    +0.003 A 
ATOM     33  C   UNL     1      -7.845  -3.141  -1.327  0.00  0.00    +0.038 A 
ENDBRANCH  19  23
ENDBRANCH  13   6
BRANCH  14   7
ATOM      4  O   UNL     1       2.402   1.957  -0.653  0.00  0.00    -0.252 OA
ATOM      7  N   UNL     1       0.532   0.804  -1.374  0.00  0.00    -0.292 N 
ATOM      8  N   UNL     1       2.368  -0.390  -0.682  0.00  0.00    -0.269 N 
ATOM     18  C   UNL     1       1.837   0.889  -0.875  0.00  0.00    +0.304 C 
ATOM     41  H   UNL     1       0.111  -0.115  -1.467  0.00  0.00    +0.151 HD
ATOM     42  H   UNL     1       1.765  -1.174  -0.918  0.00  0.00    +0.156 HD
BRANCH   8  20
ATOM     20  C   UNL     1       3.651  -0.733  -0.195  0.00  0.00    +0.035 A 
ATOM     24  C   UNL     1       4.554   0.270   0.156  0.00  0.00    +0.027 A 
ATOM     25  C   UNL     1       4.012  -2.074  -0.067  0.00  0.00    +0.027 A 
ATOM     26  C   UNL     1       5.820  -0.068   0.636  0.00  0.00    +0.048 A 
ATOM     27  C   UNL     1       5.278  -2.412   0.412  0.00  0.00    +0.048 A 
ATOM     30  C   UNL     1       6.181  -1.409   0.764  0.00  0.00    +0.129 A 
BRANCH  30   5
ATOM      5  O   UNL     1       7.416  -1.740   1.232  0.00  0.00    -0.456 OA
BRANCH   5  34
ATOM     34  C   UNL     1       8.503  -1.049   0.723  0.00  0.00    +0.128 A 
ATOM     35  C   UNL     1       8.607  -0.826  -0.650  0.00  0.00    +0.046 A 
ATOM     36  C   UNL     1       9.495  -0.578   1.583  0.00  0.00    +0.046 A 
ATOM     37  C   UNL     1       9.703  -0.130  -1.162  0.00  0.00    +0.004 A 
ATOM     38  C   UNL     1      10.590   0.118   1.071  0.00  0.00    +0.004 A 
ATOM     39  C   UNL     1      10.694   0.342  -0.302  0.00  0.00    +0.000 A 
ENDBRANCH   5  34
ENDBRANCH  30   5
ENDBRANCH   8  20
ENDBRANCH  14   7
TORSDOF 6
