REMARK  Name = 40777169
REMARK  8 active torsions:
REMARK  status: ('A' for Active; 'I' for Inactive)
REMARK    1  A    between atoms: S_1  and  N_8
REMARK    2  A    between atoms: S_1  and  C_23
REMARK    3  A    between atoms: N_8  and  C_18
REMARK    4  A    between atoms: C_12  and  C_19
REMARK    5  A    between atoms: C_13  and  C_18
REMARK    6  A    between atoms: C_21  and  C_24
REMARK    7  A    between atoms: C_22  and  C_25
REMARK    8  A    between atoms: C_30  and  C_31
REMARK                            x       y       z     vdW  Elec       q    Type
REMARK                         _______ _______ _______ _____ _____    ______ ____
ROOT
ATOM      9  N   UNL     1      -1.027  -1.098  -1.837  0.00  0.00    -0.237 NA
ATOM     10  N   UNL     1       1.183  -0.191  -2.154  0.00  0.00    -0.232 NA
ATOM     19  C   UNL     1      -0.676  -1.413  -0.573  0.00  0.00    +0.050 A 
ATOM     20  C   UNL     1       0.568  -1.152  -0.035  0.00  0.00    +0.052 A 
ATOM     21  C   UNL     1       1.466  -0.533  -0.880  0.00  0.00    +0.075 A 
ATOM     22  C   UNL     1      -0.063  -0.498  -2.562  0.00  0.00    +0.127 A 
ATOM     25  C   UNL     1      -0.413  -0.136  -3.965  0.00  0.00    +0.088 C 
ENDROOT
BRANCH  19  12
ATOM      7  N   UNL     1      -3.415  -1.418   2.038  0.00  0.00    -0.297 NA
ATOM     11  C   UNL     1      -3.119  -2.386  -0.361  0.00  0.00    +0.002 C 
ATOM     12  C   UNL     1      -1.735  -2.094   0.281  0.00  0.00    +0.055 C 
ATOM     13  C   UNL     1      -4.274  -0.673   1.080  0.00  0.00    +0.072 C 
ATOM     14  C   UNL     1      -3.960  -1.092  -0.372  0.00  0.00    +0.024 C 
ATOM     15  C   UNL     1      -3.839  -3.387   0.568  0.00  0.00    +0.019 C 
ATOM     16  C   UNL     1      -1.994  -1.338   1.615  0.00  0.00    +0.094 C 
ATOM     17  C   UNL     1      -3.827  -2.841   2.006  0.00  0.00    +0.085 C 
BRANCH  13  18
ATOM     18  C   UNL     1      -4.180   0.843   1.269  0.00  0.00    +0.124 C 
BRANCH  18   8
ATOM      8  N   UNL     1      -5.103   1.522   0.413  0.00  0.00    -0.193 NA
ATOM     32  H   UNL     1      -6.092   1.335   0.621  0.00  0.00    +0.148 HD
BRANCH   8   1
ATOM      1  S   UNL     1      -4.755   3.114  -0.164  0.00  0.00    +0.027 S 
ATOM      5  O   UNL     1      -5.951   3.667  -0.769  0.00  0.00    -0.158 OA
ATOM      6  O   UNL     1      -3.494   3.112  -0.880  0.00  0.00    -0.158 OA
ATOM     23  C   UNL     1      -4.486   3.952   1.381  0.00  0.00    +0.214 C 
ENDBRANCH   8   1
ENDBRANCH  18   8
ENDBRANCH  13  18
ENDBRANCH  19  12
BRANCH  21  24
ATOM     24  C   UNL     1       2.802  -0.208  -0.439  0.00  0.00    +0.000 A 
ATOM     26  C   UNL     1       2.988   0.650   0.644  0.00  0.00    +0.010 A 
ATOM     27  C   UNL     1       3.905  -0.752  -1.096  0.00  0.00    +0.010 A 
ATOM     28  C   UNL     1       4.279   0.965   1.071  0.00  0.00    +0.013 A 
ATOM     29  C   UNL     1       5.196  -0.437  -0.670  0.00  0.00    +0.013 A 
ATOM     30  C   UNL     1       5.382   0.421   0.413  0.00  0.00    +0.055 A 
BRANCH  30  31
ATOM      2  F   UNL     1       6.770   1.607   1.937  0.00  0.00    -0.166 F 
ATOM      3  F   UNL     1       7.489  -0.330   1.261  0.00  0.00    -0.166 F 
ATOM      4  F   UNL     1       7.521   1.367  -0.089  0.00  0.00    -0.166 F 
ATOM     31  C   UNL     1       6.762   0.757   0.869  0.00  0.00    +0.417 C 
ENDBRANCH  30  31
ENDBRANCH  21  24
TORSDOF 6
