REMARK  Name = 7662775
REMARK  6 active torsions:
REMARK  status: ('A' for Active; 'I' for Inactive)
REMARK    1  A    between atoms: O_3  and  C_29
REMARK    2  A    between atoms: N_4  and  C_14
REMARK    3  A    between atoms: C_14  and  C_19
REMARK    4  A    between atoms: C_15  and  C_20
REMARK    5  A    between atoms: C_24  and  C_29
REMARK    6  A    between atoms: C_26  and  C_30
REMARK                            x       y       z     vdW  Elec       q    Type
REMARK                         _______ _______ _______ _____ _____    ______ ____
ROOT
ATOM      1  O   UNL     1       4.030   0.115  -2.459  0.00  0.00    -0.268 OA
ATOM      4  N   UNL     1       1.357  -1.676   1.349  0.00  0.00    -0.294 NA
ATOM      5  N   UNL     1       2.720   0.479  -0.553  0.00  0.00    -0.311 N 
ATOM      7  C   UNL     1       3.443  -0.359   1.762  0.00  0.00    +0.024 C 
ATOM      8  C   UNL     1       1.315   0.820   1.502  0.00  0.00    +0.051 C 
ATOM      9  C   UNL     1       2.632   0.819   2.274  0.00  0.00    +0.017 C 
ATOM     10  C   UNL     1       2.677  -1.677   1.991  0.00  0.00    +0.090 C 
ATOM     11  C   UNL     1       0.566  -0.509   1.762  0.00  0.00    +0.094 C 
ATOM     12  C   UNL     1       3.768  -0.120   0.285  0.00  0.00    +0.130 C 
ATOM     13  C   UNL     1       1.548   1.030   0.003  0.00  0.00    +0.034 A 
ATOM     15  C   UNL     1       0.671   1.698  -0.791  0.00  0.00    +0.002 A 
ATOM     16  C   UNL     1       3.016   0.565  -1.925  0.00  0.00    +0.252 A 
ATOM     17  C   UNL     1       0.941   1.803  -2.212  0.00  0.00    +0.015 A 
ATOM     18  C   UNL     1       2.027   1.269  -2.772  0.00  0.00    +0.071 A 
ENDROOT
BRANCH  15  20
ATOM     20  C   UNL     1      -0.561   2.310  -0.248  0.00  0.00    -0.015 A 
ATOM     22  C   UNL     1      -1.734   1.565  -0.184  0.00  0.00    +0.027 A 
ATOM     23  C   UNL     1      -0.538   3.629   0.195  0.00  0.00    +0.008 A 
ATOM     26  C   UNL     1      -2.896   2.144   0.326  0.00  0.00    +0.052 A 
ATOM     27  C   UNL     1      -1.700   4.208   0.706  0.00  0.00    +0.002 A 
ATOM     28  C   UNL     1      -2.879   3.466   0.771  0.00  0.00    +0.019 A 
BRANCH  26  30
ATOM      6  N   UNL     1      -5.086   0.765   0.449  0.00  0.00    -0.191 NA
ATOM     30  C   UNL     1      -4.104   1.383   0.394  0.00  0.00    +0.099 C 
ENDBRANCH  26  30
ENDBRANCH  15  20
BRANCH   4  14
ATOM     14  C   UNL     1       0.640  -2.919   1.626  0.00  0.00    +0.158 C 
BRANCH  14  19
ATOM      2  O   UNL     1      -0.622  -2.606  -0.395  0.00  0.00    -0.461 OA
ATOM     19  C   UNL     1      -0.674  -2.982   0.894  0.00  0.00    +0.119 A 
ATOM     21  C   UNL     1      -1.913  -3.350   1.288  0.00  0.00    +0.046 A 
ATOM     24  C   UNL     1      -1.893  -2.738  -0.857  0.00  0.00    +0.131 A 
ATOM     25  C   UNL     1      -2.725  -3.192   0.140  0.00  0.00    +0.047 A 
BRANCH  24  29
ATOM     29  C   UNL     1      -2.112  -2.383  -2.266  0.00  0.00    +0.230 C 
BRANCH  29   3
ATOM      3  O   UNL     1      -1.914  -3.558  -3.055  0.00  0.00    -0.387 OA
ATOM     31  H   UNL     1      -0.975  -3.804  -2.985  0.00  0.00    +0.210 HD
ENDBRANCH  29   3
ENDBRANCH  24  29
ENDBRANCH  14  19
ENDBRANCH   4  14
TORSDOF 6
