REMARK  Name = 51136648
REMARK  10 active torsions:
REMARK  status: ('A' for Active; 'I' for Inactive)
REMARK    1  A    between atoms: O_2  and  C_19
REMARK    2  A    between atoms: O_5  and  C_29
REMARK    3  A    between atoms: O_5  and  C_32
REMARK    4  A    between atoms: C_9  and  C_14
REMARK    5  A    between atoms: C_10  and  C_15
REMARK    6  A    between atoms: C_14  and  C_16
REMARK    7  A    between atoms: C_15  and  C_19
REMARK    8  A    between atoms: C_17  and  C_21
REMARK    9  A    between atoms: C_26  and  C_30
REMARK   10  A    between atoms: C_27  and  C_31
REMARK                            x       y       z     vdW  Elec       q    Type
REMARK                         _______ _______ _______ _____ _____    ______ ____
ROOT
ATOM      1  O   UNL     1      -1.039   4.057   0.226  0.00  0.00    -0.270 OA
ATOM      6  N   UNL     1      -1.524   1.816  -0.233  0.00  0.00    -0.297 N 
ATOM      9  C   UNL     1      -1.869  -0.531   0.458  0.00  0.00    +0.016 C 
ATOM     10  C   UNL     1      -3.402  -0.357   0.298  0.00  0.00    +0.006 C 
ATOM     11  C   UNL     1      -3.775   1.128   0.476  0.00  0.00    +0.023 C 
ATOM     12  C   UNL     1      -1.092   0.429  -0.455  0.00  0.00    +0.112 C 
ATOM     13  C   UNL     1      -2.954   2.051  -0.423  0.00  0.00    +0.108 C 
ATOM     17  C   UNL     1      -0.685   2.887   0.084  0.00  0.00    +0.252 C 
ENDROOT
BRANCH  17  21
ATOM      4  O   UNL     1       2.680   2.109   1.265  0.00  0.00    -0.359 OA
ATOM      8  N   UNL     1       2.973   2.317  -0.078  0.00  0.00    -0.083 NA
ATOM     21  C   UNL     1       0.744   2.615   0.282  0.00  0.00    +0.101 A 
ATOM     26  C   UNL     1       1.350   2.289   1.467  0.00  0.00    +0.147 A 
ATOM     27  C   UNL     1       1.801   2.617  -0.644  0.00  0.00    +0.093 A 
ATOM     30  C   UNL     1       0.871   2.106   2.843  0.00  0.00    +0.090 C 
ATOM     31  C   UNL     1       1.742   2.903  -2.088  0.00  0.00    +0.070 C 
ENDBRANCH  17  21
BRANCH   9  14
ATOM     14  C   UNL     1      -1.404  -1.971   0.247  0.00  0.00    +0.061 C 
BRANCH  14  16
ATOM      7  N   UNL     1      -0.084  -2.571   2.162  0.00  0.00    -0.287 NA
ATOM     16  C   UNL     1      -0.074  -2.185   0.929  0.00  0.00    +0.044 C 
ATOM     18  C   UNL     1       1.172  -1.936   0.159  0.00  0.00    -0.001 A 
ATOM     20  C   UNL     1       2.348  -1.764   0.901  0.00  0.00    -0.033 A 
ATOM     22  C   UNL     1       2.271  -1.826   2.397  0.00  0.00    +0.059 C 
ATOM     23  C   UNL     1       1.207  -2.837   2.805  0.00  0.00    +0.146 C 
ATOM     24  C   UNL     1       1.196  -1.858  -1.234  0.00  0.00    +0.013 A 
ATOM     25  C   UNL     1       3.547  -1.487   0.239  0.00  0.00    +0.050 A 
ATOM     28  C   UNL     1       2.401  -1.597  -1.888  0.00  0.00    +0.046 A 
ATOM     29  C   UNL     1       3.573  -1.409  -1.154  0.00  0.00    +0.120 A 
BRANCH  29   5
ATOM      5  O   UNL     1       4.743  -1.146  -1.798  0.00  0.00    -0.495 OA
ATOM     32  C   UNL     1       4.698  -1.077  -3.223  0.00  0.00    +0.277 C 
ENDBRANCH  29   5
ENDBRANCH  14  16
ENDBRANCH   9  14
BRANCH  10  15
ATOM     15  C   UNL     1      -3.958  -0.903  -1.022  0.00  0.00    +0.124 C 
BRANCH  15  19
ATOM      3  O   UNL     1      -6.145  -1.013   0.047  0.00  0.00    -0.251 OA
ATOM     19  C   UNL     1      -5.432  -1.185  -0.930  0.00  0.00    +0.305 C 
BRANCH  19   2
ATOM      2  O   UNL     1      -5.880  -1.671  -2.116  0.00  0.00    -0.481 OA
ATOM     33  H   UNL     1      -6.841  -1.866  -2.091  0.00  0.00    +0.295 HD
ENDBRANCH  19   2
ENDBRANCH  15  19
ENDBRANCH  10  15
TORSDOF 7
