REMARK  Name = 75367001
REMARK  9 active torsions:
REMARK  status: ('A' for Active; 'I' for Inactive)
REMARK    1  A    between atoms: O_3  and  C_12
REMARK    2  A    between atoms: O_6  and  C_21
REMARK    3  A    between atoms: O_6  and  C_25
REMARK    4  A    between atoms: N_7  and  C_16
REMARK    5  A    between atoms: N_9  and  C_22
REMARK    6  A    between atoms: C_10  and  C_15
REMARK    7  A    between atoms: C_11  and  C_16
REMARK    8  A    between atoms: C_15  and  C_17
REMARK    9  A    between atoms: C_20  and  C_21
REMARK                            x       y       z     vdW  Elec       q    Type
REMARK                         _______ _______ _______ _____ _____    ______ ____
ROOT
ATOM      2  O   UNL     1       3.366  -1.075   0.195  0.00  0.00    -0.369 OA
ATOM     10  C   UNL     1       3.920  -0.306  -0.876  0.00  0.00    +0.125 C 
ATOM     11  C   UNL     1       3.880  -0.767   1.497  0.00  0.00    +0.164 C 
ATOM     12  C   UNL     1       5.409  -0.889   1.537  0.00  0.00    +0.145 C 
ATOM     13  C   UNL     1       5.434  -0.493  -0.946  0.00  0.00    +0.034 C 
ATOM     14  C   UNL     1       6.083  -0.141   0.390  0.00  0.00    +0.036 C 
ENDROOT
BRANCH  12   3
ATOM      3  O   UNL     1       5.763  -2.270   1.425  0.00  0.00    -0.389 OA
ATOM     34  H   UNL     1       6.731  -2.333   1.500  0.00  0.00    +0.210 HD
ENDBRANCH  12   3
BRANCH  10  15
ATOM     15  C   UNL     1       3.255  -0.771  -2.166  0.00  0.00    +0.090 C 
BRANCH  15  17
ATOM      4  O   UNL     1      -0.173   0.326  -2.335  0.00  0.00    -0.356 OA
ATOM      8  N   UNL     1       1.191   0.520  -2.518  0.00  0.00    -0.083 NA
ATOM     17  C   UNL     1       1.759  -0.618  -2.109  0.00  0.00    +0.086 A 
ATOM     18  C   UNL     1       0.813  -1.557  -1.662  0.00  0.00    +0.074 A 
ATOM     20  C   UNL     1      -0.386  -0.914  -1.826  0.00  0.00    +0.175 A 
BRANCH  20  21
ATOM     21  C   UNL     1      -1.782  -1.287  -1.570  0.00  0.00    +0.306 C 
BRANCH  21   6
ATOM      6  O   UNL     1      -1.969  -1.587  -0.184  0.00  0.00    -0.484 OA
BRANCH   6  25
ATOM     25  C   UNL     1      -3.215  -2.014   0.184  0.00  0.00    +0.121 A 
ATOM     28  C   UNL     1      -4.221  -2.136  -0.774  0.00  0.00    +0.045 A 
ATOM     29  C   UNL     1      -3.479  -2.326   1.517  0.00  0.00    +0.045 A 
ATOM     31  C   UNL     1      -5.492  -2.570  -0.399  0.00  0.00    +0.004 A 
ATOM     32  C   UNL     1      -4.751  -2.760   1.893  0.00  0.00    +0.004 A 
ATOM     33  C   UNL     1      -5.757  -2.883   0.934  0.00  0.00    +0.000 A 
ENDBRANCH   6  25
ENDBRANCH  21   6
ENDBRANCH  20  21
ENDBRANCH  15  17
ENDBRANCH  10  15
BRANCH  11  16
ATOM     16  C   UNL     1       3.378   0.593   1.979  0.00  0.00    +0.140 C 
BRANCH  16   7
ATOM      5  O   UNL     1       1.816   2.449   0.457  0.00  0.00    -0.253 OA
ATOM      7  N   UNL     1       1.950   0.662   1.920  0.00  0.00    -0.297 N 
ATOM      9  N   UNL     1      -0.131   1.433   1.287  0.00  0.00    -0.269 N 
ATOM     19  C   UNL     1       1.249   1.605   1.147  0.00  0.00    +0.304 C 
ATOM     35  H   UNL     1       1.415   0.025   2.502  0.00  0.00    +0.150 HD
ATOM     36  H   UNL     1      -0.436   0.681   1.899  0.00  0.00    +0.156 HD
BRANCH   9  22
ATOM      1  F   UNL     1      -4.800   2.294   0.576  0.00  0.00    -0.205 F 
ATOM     22  C   UNL     1      -1.165   2.179   0.675  0.00  0.00    +0.037 A 
ATOM     23  C   UNL     1      -2.499   1.863   0.933  0.00  0.00    +0.061 A 
ATOM     24  C   UNL     1      -0.851   3.229  -0.187  0.00  0.00    +0.023 A 
ATOM     26  C   UNL     1      -3.519   2.598   0.329  0.00  0.00    +0.125 A 
ATOM     27  C   UNL     1      -1.871   3.964  -0.791  0.00  0.00    +0.005 A 
ATOM     30  C   UNL     1      -3.205   3.649  -0.533  0.00  0.00    +0.038 A 
ENDBRANCH   9  22
ENDBRANCH  16   7
ENDBRANCH  11  16
TORSDOF 9
