REMARK  Name = 7143842
REMARK  6 active torsions:
REMARK  status: ('A' for Active; 'I' for Inactive)
REMARK    1  A    between atoms: S_1  and  C_27
REMARK    2  A    between atoms: S_1  and  C_28
REMARK    3  A    between atoms: N_6  and  C_20
REMARK    4  A    between atoms: C_17  and  C_19
REMARK    5  A    between atoms: C_20  and  C_23
REMARK    6  A    between atoms: C_20  and  C_24
REMARK                            x       y       z     vdW  Elec       q    Type
REMARK                         _______ _______ _______ _____ _____    ______ ____
ROOT
ATOM      2  O   UNL     1      -1.101  -0.379   1.846  0.00  0.00    -0.267 OA
ATOM      3  O   UNL     1       3.348   1.300  -1.862  0.00  0.00    -0.253 OA
ATOM      4  N   UNL     1       3.517  -0.319  -0.206  0.00  0.00    -0.285 N 
ATOM      5  N   UNL     1       0.605  -1.409   0.635  0.00  0.00    -0.311 N 
ATOM      6  N   UNL     1       3.618   1.987   0.310  0.00  0.00    -0.297 N 
ATOM      7  C   UNL     1       2.904  -1.906   1.642  0.00  0.00    +0.027 C 
ATOM      8  C   UNL     1       2.438  -2.518  -0.688  0.00  0.00    +0.054 C 
ATOM      9  C   UNL     1       2.945  -3.057   0.647  0.00  0.00    +0.018 C 
ATOM     10  C   UNL     1       3.793  -0.737   1.177  0.00  0.00    +0.114 C 
ATOM     11  C   UNL     1       1.445  -1.474   1.837  0.00  0.00    +0.130 C 
ATOM     12  C   UNL     1       3.386  -1.411  -1.179  0.00  0.00    +0.119 C 
ATOM     13  C   UNL     1       1.027  -1.975  -0.570  0.00  0.00    +0.027 A 
ATOM     14  C   UNL     1       0.196  -2.013  -1.623  0.00  0.00    +0.022 A 
ATOM     15  C   UNL     1      -0.680  -0.853   0.789  0.00  0.00    +0.259 A 
ATOM     16  C   UNL     1       3.483   1.009  -0.669  0.00  0.00    +0.302 C 
ATOM     17  C   UNL     1      -1.576  -0.877  -0.420  0.00  0.00    +0.047 A 
ATOM     18  C   UNL     1      -1.122  -1.450  -1.545  0.00  0.00    +0.015 A 
ATOM     29  H   UNL     1       3.875   1.748   1.257  0.00  0.00    +0.150 HD
ENDROOT
BRANCH  17  19
ATOM     19  C   UNL     1      -2.922  -0.281  -0.385  0.00  0.00    -0.013 A 
ATOM     21  C   UNL     1      -4.021  -1.058  -0.014  0.00  0.00    +0.010 A 
ATOM     22  C   UNL     1      -3.101   1.061  -0.722  0.00  0.00    +0.010 A 
ATOM     25  C   UNL     1      -5.296  -0.493   0.019  0.00  0.00    +0.015 A 
ATOM     26  C   UNL     1      -4.377   1.626  -0.689  0.00  0.00    +0.015 A 
ATOM     27  C   UNL     1      -5.474   0.848  -0.319  0.00  0.00    +0.008 A 
BRANCH  27   1
ATOM      1  S   UNL     1      -7.103   1.569  -0.278  0.00  0.00    -0.129 S 
ATOM     28  C   UNL     1      -7.566   1.337   1.462  0.00  0.00    +0.090 C 
ENDBRANCH  27   1
ENDBRANCH  17  19
BRANCH   6  20
ATOM     20  C   UNL     1       3.610   3.398  -0.006  0.00  0.00    +0.068 C 
ATOM     23  C   UNL     1       5.019   3.876  -0.330  0.00  0.00    +0.027 C 
ATOM     24  C   UNL     1       3.004   4.199   1.140  0.00  0.00    +0.027 C 
ENDBRANCH   6  20
TORSDOF 3
