REMARK  Name = 71694202
REMARK  6 active torsions:
REMARK  status: ('A' for Active; 'I' for Inactive)
REMARK    1  A    between atoms: N_3  and  C_11
REMARK    2  A    between atoms: N_6  and  C_22
REMARK    3  A    between atoms: C_8  and  C_13
REMARK    4  A    between atoms: C_11  and  C_14
REMARK    5  A    between atoms: C_15  and  C_19
REMARK    6  A    between atoms: C_27  and  C_28
REMARK                            x       y       z     vdW  Elec       q    Type
REMARK                         _______ _______ _______ _____ _____    ______ ____
ROOT
ATOM      1  O   UNL     1      -0.477   4.711  -0.455  0.00  0.00    -0.377 OA
ATOM      3  N   UNL     1       0.464   2.078   0.166  0.00  0.00    -0.285 NA
ATOM      8  C   UNL     1      -0.986   2.366   0.015  0.00  0.00    +0.149 C 
ATOM      9  C   UNL     1       1.185   3.296   0.577  0.00  0.00    +0.113 C 
ATOM     10  C   UNL     1      -1.191   3.568  -0.927  0.00  0.00    +0.186 C 
ATOM     12  C   UNL     1       0.921   4.435  -0.399  0.00  0.00    +0.175 C 
ENDROOT
BRANCH   8  13
ATOM      4  N   UNL     1      -2.818   0.647   0.213  0.00  0.00    -0.341 N 
ATOM      5  N   UNL     1      -1.618   0.561  -1.653  0.00  0.00    -0.238 NA
ATOM     13  C   UNL     1      -1.790   1.185  -0.509  0.00  0.00    +0.127 A 
ATOM     15  C   UNL     1      -3.335  -0.386  -0.516  0.00  0.00    +0.066 A 
ATOM     16  C   UNL     1      -2.578  -0.420  -1.664  0.00  0.00    +0.139 A 
ATOM     29  H   UNL     1      -3.138   0.968   1.118  0.00  0.00    +0.167 HD
BRANCH  15  19
ATOM      7  N   UNL     1      -6.580  -2.771   0.793  0.00  0.00    -0.263 NA
ATOM     19  C   UNL     1      -4.438  -1.196  -0.072  0.00  0.00    +0.003 A 
ATOM     23  C   UNL     1      -5.303  -1.768  -0.998  0.00  0.00    +0.029 A 
ATOM     24  C   UNL     1      -4.644  -1.411   1.287  0.00  0.00    +0.029 A 
ATOM     25  C   UNL     1      -6.348  -2.541  -0.519  0.00  0.00    +0.111 A 
ATOM     26  C   UNL     1      -5.719  -2.199   1.664  0.00  0.00    +0.111 A 
ENDBRANCH  15  19
ENDBRANCH   8  13
BRANCH   3  11
ATOM     11  C   UNL     1       0.717   1.016   1.147  0.00  0.00    +0.120 C 
BRANCH  11  14
ATOM     14  C   UNL     1       2.052   0.355   0.925  0.00  0.00    -0.033 A 
ATOM     17  C   UNL     1       2.212  -0.560  -0.115  0.00  0.00    +0.007 A 
ATOM     18  C   UNL     1       3.127   0.658   1.760  0.00  0.00    +0.007 A 
ATOM     20  C   UNL     1       3.448  -1.173  -0.320  0.00  0.00    +0.023 A 
ATOM     21  C   UNL     1       4.363   0.045   1.555  0.00  0.00    +0.023 A 
ATOM     22  C   UNL     1       4.524  -0.871   0.515  0.00  0.00    +0.033 A 
BRANCH  22   6
ATOM      2  O   UNL     1       5.390  -2.881  -1.552  0.00  0.00    -0.276 OA
ATOM      6  N   UNL     1       5.760  -1.484   0.310  0.00  0.00    -0.286 N 
ATOM     27  C   UNL     1       6.109  -2.419  -0.673  0.00  0.00    +0.214 C 
ATOM     28  C   UNL     1       7.553  -2.841  -0.555  0.00  0.00    +0.109 C 
ATOM     30  H   UNL     1       6.493  -1.210   0.961  0.00  0.00    +0.155 HD
ENDBRANCH  22   6
ENDBRANCH  11  14
ENDBRANCH   3  11
TORSDOF 5
