REMARK  Name = 11883264
REMARK  7 active torsions:
REMARK  status: ('A' for Active; 'I' for Inactive)
REMARK    1  A    between atoms: O_3  and  C_12
REMARK    2  A    between atoms: O_3  and  C_16
REMARK    3  A    between atoms: O_6  and  C_23
REMARK    4  A    between atoms: O_6  and  C_24
REMARK    5  A    between atoms: N_7  and  C_11
REMARK    6  A    between atoms: C_15  and  C_17
REMARK    7  A    between atoms: C_16  and  C_18
REMARK                            x       y       z     vdW  Elec       q    Type
REMARK                         _______ _______ _______ _____ _____    ______ ____
ROOT
ATOM      1  O   UNL     1      -2.089   0.362  -0.919  0.00  0.00    -0.369 OA
ATOM      2  O   UNL     1      -2.373   2.501   1.273  0.00  0.00    -0.369 OA
ATOM      9  C   UNL     1      -1.396   1.459   1.067  0.00  0.00    +0.172 C 
ATOM     10  C   UNL     1      -2.141   0.261   0.513  0.00  0.00    +0.180 C 
ATOM     11  C   UNL     1      -0.455   1.849  -0.045  0.00  0.00    +0.130 C 
ATOM     12  C   UNL     1      -3.541   0.472   1.039  0.00  0.00    +0.176 C 
ATOM     13  C   UNL     1      -1.218   1.441  -1.290  0.00  0.00    +0.185 C 
ATOM     14  C   UNL     1      -3.677   1.977   0.984  0.00  0.00    +0.194 C 
ENDROOT
BRANCH  11   7
ATOM      4  O   UNL     1       2.156   2.580  -1.061  0.00  0.00    -0.270 OA
ATOM      7  N   UNL     1       0.799   1.065   0.054  0.00  0.00    -0.304 N 
ATOM     15  C   UNL     1       2.002   1.513  -0.472  0.00  0.00    +0.244 C 
ATOM     25  H   UNL     1       0.719   0.124   0.426  0.00  0.00    +0.149 HD
BRANCH  15  17
ATOM     17  C   UNL     1       3.162   0.598  -0.314  0.00  0.00    +0.037 A 
ATOM     19  C   UNL     1       4.189   0.660  -1.232  0.00  0.00    +0.016 A 
ATOM     20  C   UNL     1       3.174  -0.285   0.746  0.00  0.00    +0.016 A 
ATOM     21  C   UNL     1       5.278  -0.200  -1.083  0.00  0.00    +0.046 A 
ATOM     22  C   UNL     1       4.262  -1.144   0.895  0.00  0.00    +0.046 A 
ATOM     23  C   UNL     1       5.314  -1.102  -0.020  0.00  0.00    +0.120 A 
BRANCH  23   6
ATOM      6  O   UNL     1       6.376  -1.941   0.125  0.00  0.00    -0.495 OA
ATOM     24  C   UNL     1       6.349  -2.838   1.234  0.00  0.00    +0.277 C 
ENDBRANCH  23   6
ENDBRANCH  15  17
ENDBRANCH  11   7
BRANCH  12   3
ATOM      3  O   UNL     1      -4.532  -0.179   0.278  0.00  0.00    -0.362 OA
BRANCH   3  16
ATOM     16  C   UNL     1      -4.401  -1.597   0.332  0.00  0.00    +0.255 C 
BRANCH  16  18
ATOM      5  O   UNL     1      -6.339  -1.600  -1.112  0.00  0.00    -0.274 OA
ATOM      8  N   UNL     1      -5.411  -3.613  -0.493  0.00  0.00    -0.327 N 
ATOM     18  C   UNL     1      -5.487  -2.237  -0.500  0.00  0.00    +0.236 C 
ATOM     26  H   UNL     1      -4.696  -4.115   0.022  0.00  0.00    +0.145 HD
ATOM     27  H   UNL     1      -6.079  -4.175  -1.011  0.00  0.00    +0.145 HD
ENDBRANCH  16  18
ENDBRANCH   3  16
ENDBRANCH  12   3
TORSDOF 6
