REMARK  Name = 26762930
REMARK  8 active torsions:
REMARK  status: ('A' for Active; 'I' for Inactive)
REMARK    1  A    between atoms: N_6  and  C_11
REMARK    2  A    between atoms: N_8  and  C_30
REMARK    3  A    between atoms: N_8  and  C_31
REMARK    4  A    between atoms: N_8  and  C_32
REMARK    5  A    between atoms: C_10  and  C_15
REMARK    6  A    between atoms: C_15  and  C_17
REMARK    7  A    between atoms: C_17  and  C_18
REMARK    8  A    between atoms: C_19  and  C_25
REMARK                            x       y       z     vdW  Elec       q    Type
REMARK                         _______ _______ _______ _____ _____    ______ ____
ROOT
ATOM      1  O   UNL     1       2.634  -2.282  -2.862  0.00  0.00    -0.274 OA
ATOM      4  N   UNL     1       2.496  -1.852   0.543  0.00  0.00    -0.285 NA
ATOM      5  N   UNL     1       4.222  -1.348  -1.467  0.00  0.00    -0.313 N 
ATOM      9  C   UNL     1       2.608  -2.862  -0.508  0.00  0.00    +0.145 C 
ATOM     10  C   UNL     1       3.787  -1.325   0.991  0.00  0.00    +0.075 C 
ATOM     11  C   UNL     1       0.556  -3.114   0.762  0.00  0.00    +0.089 C 
ATOM     12  C   UNL     1       1.193  -3.421  -0.601  0.00  0.00    +0.052 C 
ATOM     13  C   UNL     1       1.667  -2.455   1.582  0.00  0.00    +0.107 C 
ATOM     14  C   UNL     1       4.831  -1.346  -0.149  0.00  0.00    +0.123 C 
ATOM     16  C   UNL     1       3.118  -2.143  -1.743  0.00  0.00    +0.230 C 
ATOM     33  H   UNL     1       4.669  -0.841  -2.225  0.00  0.00    +0.149 HD
ENDROOT
BRANCH  11   6
ATOM      3  O   UNL     1      -2.182  -3.921   0.438  0.00  0.00    -0.270 OA
ATOM      6  N   UNL     1      -0.589  -2.245   0.623  0.00  0.00    -0.307 N 
ATOM     19  C   UNL     1      -1.880  -2.731   0.470  0.00  0.00    +0.244 C 
ATOM     34  H   UNL     1      -0.401  -1.252   0.529  0.00  0.00    +0.149 HD
BRANCH  19  25
ATOM     25  C   UNL     1      -2.945  -1.707   0.312  0.00  0.00    +0.037 A 
ATOM     26  C   UNL     1      -4.114  -2.019  -0.383  0.00  0.00    +0.015 A 
ATOM     27  C   UNL     1      -2.776  -0.435   0.857  0.00  0.00    +0.015 A 
ATOM     28  C   UNL     1      -5.113  -1.058  -0.532  0.00  0.00    +0.024 A 
ATOM     29  C   UNL     1      -3.776   0.526   0.708  0.00  0.00    +0.024 A 
ATOM     30  C   UNL     1      -4.944   0.215   0.013  0.00  0.00    +0.029 A 
BRANCH  30   8
ATOM      8  N   UNL     1      -5.955   1.187  -0.138  0.00  0.00    -0.336 N 
ATOM     31  C   UNL     1      -7.173   0.874  -0.857  0.00  0.00    +0.129 C 
ATOM     32  C   UNL     1      -5.791   2.510   0.432  0.00  0.00    +0.129 C 
ENDBRANCH  30   8
ENDBRANCH  19  25
ENDBRANCH  11   6
BRANCH  10  15
ATOM     15  C   UNL     1       3.583   0.107   1.494  0.00  0.00    +0.029 C 
BRANCH  15  17
ATOM     17  C   UNL     1       3.022   1.025   0.419  0.00  0.00    +0.097 C 
BRANCH  17  18
ATOM      2  O   UNL     1       3.060   2.655   2.139  0.00  0.00    -0.276 OA
ATOM      7  N   UNL     1       2.276   3.354   0.066  0.00  0.00    -0.301 N 
ATOM     18  C   UNL     1       2.791   2.414   0.959  0.00  0.00    +0.216 C 
ATOM     20  C   UNL     1       2.023   4.724   0.515  0.00  0.00    +0.108 C 
ATOM     21  C   UNL     1       1.989   3.109  -1.353  0.00  0.00    +0.108 C 
ATOM     22  C   UNL     1       0.585   5.140   0.216  0.00  0.00    +0.019 C 
ATOM     23  C   UNL     1       0.550   3.495  -1.689  0.00  0.00    +0.019 C 
ATOM     24  C   UNL     1       0.244   4.928  -1.258  0.00  0.00    +0.003 C 
ENDBRANCH  17  18
ENDBRANCH  15  17
ENDBRANCH  10  15
TORSDOF 6
