REMARK  Name = 11941649
REMARK  5 active torsions:
REMARK  status: ('A' for Active; 'I' for Inactive)
REMARK    1  A    between atoms: N_5  and  C_12
REMARK    2  A    between atoms: N_6  and  C_13
REMARK    3  A    between atoms: N_7  and  C_18
REMARK    4  A    between atoms: C_18  and  C_22
REMARK    5  A    between atoms: C_19  and  C_23
REMARK                            x       y       z     vdW  Elec       q    Type
REMARK                         _______ _______ _______ _____ _____    ______ ____
ROOT
ATOM      1  O   UNL     1      -0.243   2.982  -1.766  0.00  0.00    -0.370 OA
ATOM      2  O   UNL     1       0.902   2.426   1.083  0.00  0.00    -0.370 OA
ATOM     10  C   UNL     1       0.728   1.606  -0.085  0.00  0.00    +0.171 C 
ATOM     11  C   UNL     1      -0.572   2.029  -0.742  0.00  0.00    +0.171 C 
ATOM     12  C   UNL     1       1.785   1.930  -1.115  0.00  0.00    +0.130 C 
ATOM     13  C   UNL     1      -1.345   2.698   0.371  0.00  0.00    +0.131 C 
ATOM     14  C   UNL     1       1.183   3.116  -1.847  0.00  0.00    +0.185 C 
ATOM     15  C   UNL     1      -0.238   3.284   1.229  0.00  0.00    +0.185 C 
ENDROOT
BRANCH  12   5
ATOM      5  N   UNL     1       1.951   0.815  -2.021  0.00  0.00    -0.306 N 
ATOM      8  N   UNL     1       3.467  -0.264  -0.591  0.00  0.00    -0.211 NA
ATOM      9  N   UNL     1       2.841  -1.247  -2.700  0.00  0.00    -0.223 NA
ATOM     16  C   UNL     1       2.778  -0.264  -1.763  0.00  0.00    +0.216 A 
ATOM     19  C   UNL     1       4.263  -1.331  -0.371  0.00  0.00    +0.111 A 
ATOM     20  C   UNL     1       3.657  -2.284  -2.416  0.00  0.00    +0.116 A 
ATOM     21  C   UNL     1       4.399  -2.381  -1.256  0.00  0.00    +0.051 A 
ATOM     32  H   UNL     1       1.403   0.779  -2.873  0.00  0.00    +0.149 HD
BRANCH  19  23
ATOM      4  O   UNL     1       4.753  -0.209   1.649  0.00  0.00    -0.461 OA
ATOM     23  C   UNL     1       4.979  -1.302   0.876  0.00  0.00    +0.153 A 
ATOM     26  C   UNL     1       5.870  -2.152   1.484  0.00  0.00    +0.051 A 
ATOM     29  C   UNL     1       6.215  -1.544   2.713  0.00  0.00    +0.042 A 
ATOM     31  C   UNL     1       5.509  -0.364   2.767  0.00  0.00    +0.196 A 
ENDBRANCH  19  23
ENDBRANCH  12   5
BRANCH  13   6
ATOM      3  O   UNL     1      -4.119   2.021  -0.052  0.00  0.00    -0.253 OA
ATOM      6  N   UNL     1      -2.129   1.740   1.112  0.00  0.00    -0.292 N 
ATOM      7  N   UNL     1      -3.981   0.509   1.703  0.00  0.00    -0.295 N 
ATOM     17  C   UNL     1      -3.470   1.474   0.839  0.00  0.00    +0.300 C 
ATOM     33  H   UNL     1      -1.667   1.185   1.826  0.00  0.00    +0.151 HD
ATOM     34  H   UNL     1      -3.363   0.096   2.395  0.00  0.00    +0.151 HD
BRANCH   7  18
ATOM     18  C   UNL     1      -5.348   0.047   1.639  0.00  0.00    +0.141 C 
BRANCH  18  22
ATOM     22  C   UNL     1      -5.500  -1.133   0.723  0.00  0.00    -0.030 A 
ATOM     24  C   UNL     1      -5.778  -0.926  -0.623  0.00  0.00    +0.005 A 
ATOM     25  C   UNL     1      -5.360  -2.420   1.230  0.00  0.00    +0.005 A 
ATOM     27  C   UNL     1      -5.919  -2.022  -1.474  0.00  0.00    +0.000 A 
ATOM     28  C   UNL     1      -5.501  -3.515   0.378  0.00  0.00    +0.000 A 
ATOM     30  C   UNL     1      -5.780  -3.317  -0.974  0.00  0.00    +0.000 A 
ENDBRANCH  18  22
ENDBRANCH   7  18
ENDBRANCH  13   6
TORSDOF 5
