REMARK  Name = 11883280
REMARK  5 active torsions:
REMARK  status: ('A' for Active; 'I' for Inactive)
REMARK    1  A    between atoms: O_3  and  C_12
REMARK    2  A    between atoms: O_3  and  C_16
REMARK    3  A    between atoms: N_6  and  C_11
REMARK    4  A    between atoms: N_7  and  C_18
REMARK    5  A    between atoms: C_16  and  C_17
REMARK                            x       y       z     vdW  Elec       q    Type
REMARK                         _______ _______ _______ _____ _____    ______ ____
ROOT
ATOM      4  O   UNL     1      -1.307  -2.321  -0.420  0.00  0.00    -0.252 OA
ATOM      6  N   UNL     1       0.093  -0.503  -0.697  0.00  0.00    -0.292 N 
ATOM      7  N   UNL     1      -2.082  -0.136  -0.056  0.00  0.00    -0.269 N 
ATOM     15  C   UNL     1      -1.133  -1.106  -0.389  0.00  0.00    +0.304 C 
ATOM     28  H   UNL     1       0.178   0.502  -0.578  0.00  0.00    +0.151 HD
ATOM     29  H   UNL     1      -1.805   0.815  -0.274  0.00  0.00    +0.156 HD
ENDROOT
BRANCH   7  18
ATOM     18  C   UNL     1      -3.433  -0.334   0.314  0.00  0.00    +0.042 A 
ATOM     19  C   UNL     1      -4.410   0.623   0.033  0.00  0.00    +0.003 A 
ATOM     20  C   UNL     1      -3.740  -1.520   0.968  0.00  0.00    +0.024 A 
ATOM     21  C   UNL     1      -5.746   0.370   0.427  0.00  0.00    -0.016 A 
ATOM     22  C   UNL     1      -4.106   1.824  -0.629  0.00  0.00    +0.010 A 
ATOM     23  C   UNL     1      -5.053  -1.769   1.356  0.00  0.00    +0.002 A 
ATOM     24  C   UNL     1      -6.050  -0.832   1.088  0.00  0.00    +0.008 A 
ATOM     25  C   UNL     1      -6.737   1.325   0.150  0.00  0.00    +0.008 A 
ATOM     26  C   UNL     1      -5.104   2.762  -0.896  0.00  0.00    +0.001 A 
ATOM     27  C   UNL     1      -6.417   2.513  -0.508  0.00  0.00    +0.001 A 
ENDBRANCH   7  18
BRANCH   6  11
ATOM      1  O   UNL     1       3.093   0.271  -1.126  0.00  0.00    -0.369 OA
ATOM      2  O   UNL     1       3.025  -2.639  -0.162  0.00  0.00    -0.369 OA
ATOM      9  C   UNL     1       2.156  -1.521   0.113  0.00  0.00    +0.172 C 
ATOM     10  C   UNL     1       3.036  -0.290   0.196  0.00  0.00    +0.180 C 
ATOM     11  C   UNL     1       1.267  -1.250  -1.079  0.00  0.00    +0.131 C 
ATOM     12  C   UNL     1       4.366  -0.869   0.617  0.00  0.00    +0.176 C 
ATOM     13  C   UNL     1       2.175  -0.430  -1.979  0.00  0.00    +0.185 C 
ATOM     14  C   UNL     1       4.387  -2.189  -0.120  0.00  0.00    +0.194 C 
BRANCH  12   3
ATOM      3  O   UNL     1       5.466  -0.055   0.278  0.00  0.00    -0.362 OA
BRANCH   3  16
ATOM     16  C   UNL     1       5.444   1.189   0.974  0.00  0.00    +0.255 C 
BRANCH  16  17
ATOM      5  O   UNL     1       7.489   1.637  -0.233  0.00  0.00    -0.274 OA
ATOM      8  N   UNL     1       6.676   3.236   1.208  0.00  0.00    -0.327 N 
ATOM     17  C   UNL     1       6.643   2.014   0.571  0.00  0.00    +0.236 C 
ATOM     30  H   UNL     1       5.962   3.523   1.869  0.00  0.00    +0.145 HD
ATOM     31  H   UNL     1       7.427   3.895   1.032  0.00  0.00    +0.145 HD
ENDBRANCH  16  17
ENDBRANCH   3  16
ENDBRANCH  12   3
ENDBRANCH   6  11
TORSDOF 5
