REMARK  Name = 28960500
REMARK  8 active torsions:
REMARK  status: ('A' for Active; 'I' for Inactive)
REMARK    1  A    between atoms: O_3  and  C_10
REMARK    2  A    between atoms: O_5  and  C_27
REMARK    3  A    between atoms: O_5  and  C_28
REMARK    4  A    between atoms: N_6  and  C_9
REMARK    5  A    between atoms: N_7  and  C_11
REMARK    6  A    between atoms: N_7  and  C_20
REMARK    7  A    between atoms: C_19  and  C_21
REMARK    8  A    between atoms: C_20  and  C_22
REMARK                            x       y       z     vdW  Elec       q    Type
REMARK                         _______ _______ _______ _____ _____    ______ ____
ROOT
ATOM      1  O   UNL     1      -2.429  -1.434  -1.624  0.00  0.00    -0.343 OA
ATOM      2  O   UNL     1      -4.262  -2.132  -0.387  0.00  0.00    -0.347 OA
ATOM      9  C   UNL     1      -2.796  -0.453   0.551  0.00  0.00    +0.143 C 
ATOM     10  C   UNL     1      -1.927  -1.549   1.209  0.00  0.00    +0.156 C 
ATOM     11  C   UNL     1      -1.251  -2.506   0.196  0.00  0.00    +0.116 C 
ATOM     12  C   UNL     1      -3.459  -0.990  -0.731  0.00  0.00    +0.270 C 
ATOM     13  C   UNL     1      -2.101  -2.717  -1.078  0.00  0.00    +0.166 C 
ATOM     14  C   UNL     1      -3.492  -3.266  -0.814  0.00  0.00    +0.196 C 
ENDROOT
BRANCH   9   6
ATOM      6  N   UNL     1      -1.992   0.729   0.240  0.00  0.00    -0.293 NA
ATOM     15  C   UNL     1      -2.668   1.561  -0.765  0.00  0.00    +0.085 C 
ATOM     16  C   UNL     1      -1.711   1.496   1.462  0.00  0.00    +0.085 C 
ATOM     17  C   UNL     1      -1.814   2.773  -1.142  0.00  0.00    +0.028 C 
ATOM     18  C   UNL     1      -0.825   2.706   1.162  0.00  0.00    +0.028 C 
ATOM     19  C   UNL     1      -1.449   3.599   0.091  0.00  0.00    +0.077 C 
BRANCH  19  21
ATOM      4  O   UNL     1       0.320   4.558  -1.196  0.00  0.00    -0.276 OA
ATOM      8  N   UNL     1      -0.590   5.808   0.508  0.00  0.00    -0.329 N 
ATOM     21  C   UNL     1      -0.488   4.686  -0.280  0.00  0.00    +0.214 C 
ATOM     31  H   UNL     1      -1.259   5.882   1.268  0.00  0.00    +0.145 HD
ATOM     32  H   UNL     1       0.013   6.609   0.354  0.00  0.00    +0.145 HD
ENDBRANCH  19  21
ENDBRANCH   9   6
BRANCH  10   3
ATOM      3  O   UNL     1      -2.779  -2.322   2.066  0.00  0.00    -0.388 OA
ATOM     30  H   UNL     1      -2.221  -2.973   2.526  0.00  0.00    +0.210 HD
ENDBRANCH  10   3
BRANCH  11   7
ATOM      7  N   UNL     1       0.059  -1.984  -0.210  0.00  0.00    -0.305 NA
ATOM     29  H   UNL     1      -0.018  -0.987  -0.412  0.00  0.00    +0.123 HD
BRANCH   7  20
ATOM     20  C   UNL     1       1.044  -2.212   0.833  0.00  0.00    +0.116 C 
BRANCH  20  22
ATOM     22  C   UNL     1       2.400  -1.683   0.448  0.00  0.00    -0.033 A 
ATOM     23  C   UNL     1       3.192  -2.385  -0.460  0.00  0.00    +0.008 A 
ATOM     24  C   UNL     1       2.863  -0.488   0.999  0.00  0.00    +0.008 A 
ATOM     25  C   UNL     1       4.447  -1.893  -0.818  0.00  0.00    +0.046 A 
ATOM     26  C   UNL     1       4.118   0.004   0.641  0.00  0.00    +0.046 A 
ATOM     27  C   UNL     1       4.910  -0.699  -0.267  0.00  0.00    +0.120 A 
BRANCH  27   5
ATOM      5  O   UNL     1       6.135  -0.218  -0.617  0.00  0.00    -0.495 OA
ATOM     28  C   UNL     1       6.546   1.009  -0.016  0.00  0.00    +0.277 C 
ENDBRANCH  27   5
ENDBRANCH  20  22
ENDBRANCH   7  20
ENDBRANCH  11   7
TORSDOF 7
