REMARK  Name = 51136770
REMARK  6 active torsions:
REMARK  status: ('A' for Active; 'I' for Inactive)
REMARK    1  A    between atoms: O_4  and  C_18
REMARK    2  A    between atoms: C_8  and  C_13
REMARK    3  A    between atoms: C_9  and  C_14
REMARK    4  A    between atoms: C_13  and  C_15
REMARK    5  A    between atoms: C_14  and  C_18
REMARK    6  A    between atoms: C_16  and  C_22
REMARK                            x       y       z     vdW  Elec       q    Type
REMARK                         _______ _______ _______ _____ _____    ______ ____
ROOT
ATOM      3  O   UNL     1       0.592   3.482   1.680  0.00  0.00    -0.270 OA
ATOM      6  N   UNL     1       1.580   2.082   0.087  0.00  0.00    -0.297 N 
ATOM      8  C   UNL     1       2.106  -0.203  -0.736  0.00  0.00    +0.016 C 
ATOM      9  C   UNL     1       3.558  -0.009  -0.229  0.00  0.00    +0.006 C 
ATOM     10  C   UNL     1       3.621   0.994   0.935  0.00  0.00    +0.023 C 
ATOM     11  C   UNL     1       1.475   1.165  -1.056  0.00  0.00    +0.112 C 
ATOM     12  C   UNL     1       2.941   2.310   0.568  0.00  0.00    +0.108 C 
ATOM     16  C   UNL     1       0.509   2.718   0.720  0.00  0.00    +0.247 C 
ENDROOT
BRANCH  16  22
ATOM      2  F   UNL     1      -4.647   1.750  -1.229  0.00  0.00    -0.205 F 
ATOM     22  C   UNL     1      -0.843   2.465   0.209  0.00  0.00    +0.037 A 
ATOM     26  C   UNL     1      -1.162   2.788  -1.110  0.00  0.00    +0.016 A 
ATOM     27  C   UNL     1      -1.809   1.899   1.042  0.00  0.00    +0.016 A 
ATOM     29  C   UNL     1      -2.447   2.547  -1.595  0.00  0.00    +0.039 A 
ATOM     30  C   UNL     1      -3.094   1.658   0.556  0.00  0.00    +0.039 A 
ATOM     31  C   UNL     1      -3.413   1.982  -0.762  0.00  0.00    +0.123 A 
ENDBRANCH  16  22
BRANCH   8  13
ATOM     13  C   UNL     1       1.209  -0.990   0.229  0.00  0.00    +0.061 C 
BRANCH  13  15
ATOM      1  F   UNL     1      -4.916  -2.241   2.041  0.00  0.00    -0.205 F 
ATOM      7  N   UNL     1       0.189  -1.846  -1.770  0.00  0.00    -0.287 NA
ATOM     15  C   UNL     1       0.029  -1.562  -0.519  0.00  0.00    +0.044 C 
ATOM     17  C   UNL     1      -1.250  -1.761   0.208  0.00  0.00    -0.001 A 
ATOM     19  C   UNL     1      -2.403  -1.915  -0.573  0.00  0.00    -0.034 A 
ATOM     20  C   UNL     1      -2.275  -1.855  -2.066  0.00  0.00    +0.059 C 
ATOM     21  C   UNL     1      -0.939  -2.458  -2.481  0.00  0.00    +0.146 C 
ATOM     23  C   UNL     1      -1.331  -1.784   1.602  0.00  0.00    +0.013 A 
ATOM     24  C   UNL     1      -3.644  -2.066   0.052  0.00  0.00    +0.042 A 
ATOM     25  C   UNL     1      -2.573  -1.951   2.216  0.00  0.00    +0.039 A 
ATOM     28  C   UNL     1      -3.727  -2.089   1.444  0.00  0.00    +0.124 A 
ENDBRANCH  13  15
ENDBRANCH   8  13
BRANCH   9  14
ATOM     14  C   UNL     1       4.241  -1.322   0.153  0.00  0.00    +0.124 C 
BRANCH  14  18
ATOM      5  O   UNL     1       6.380  -0.202  -0.179  0.00  0.00    -0.251 OA
ATOM     18  C   UNL     1       5.739  -1.201   0.112  0.00  0.00    +0.305 C 
BRANCH  18   4
ATOM      4  O   UNL     1       6.304  -2.388   0.452  0.00  0.00    -0.481 OA
ATOM     32  H   UNL     1       7.284  -2.344   0.436  0.00  0.00    +0.295 HD
ENDBRANCH  18   4
ENDBRANCH  14  18
ENDBRANCH   9  14
TORSDOF 6
