REMARK  Name = 7144233
REMARK  6 active torsions:
REMARK  status: ('A' for Active; 'I' for Inactive)
REMARK    1  A    between atoms: S_1  and  C_26
REMARK    2  A    between atoms: S_1  and  C_32
REMARK    3  A    between atoms: O_4  and  C_27
REMARK    4  A    between atoms: O_4  and  C_33
REMARK    5  A    between atoms: N_7  and  C_23
REMARK    6  A    between atoms: C_15  and  C_20
REMARK                            x       y       z     vdW  Elec       q    Type
REMARK                         _______ _______ _______ _____ _____    ______ ____
ROOT
ATOM      2  O   UNL     1      -2.765   2.595   2.380  0.00  0.00    -0.268 OA
ATOM      3  O   UNL     1      -3.346   0.204  -1.862  0.00  0.00    -0.252 OA
ATOM      5  N   UNL     1      -1.067   2.403   0.778  0.00  0.00    -0.311 N 
ATOM      6  N   UNL     1      -1.238   1.130  -2.093  0.00  0.00    -0.284 N 
ATOM      7  N   UNL     1      -1.501  -1.053  -1.240  0.00  0.00    -0.266 N 
ATOM      8  C   UNL     1      -1.249   3.546  -1.507  0.00  0.00    +0.027 C 
ATOM      9  C   UNL     1       0.719   2.166  -0.980  0.00  0.00    +0.054 C 
ATOM     10  C   UNL     1       0.272   3.544  -1.467  0.00  0.00    +0.018 C 
ATOM     11  C   UNL     1      -1.764   3.373  -0.078  0.00  0.00    +0.130 C 
ATOM     12  C   UNL     1      -1.772   2.446  -2.449  0.00  0.00    +0.114 C 
ATOM     13  C   UNL     1       0.230   1.094  -1.981  0.00  0.00    +0.119 C 
ATOM     14  C   UNL     1       0.185   1.860   0.424  0.00  0.00    +0.034 A 
ATOM     15  C   UNL     1       0.850   1.065   1.304  0.00  0.00    +0.002 A 
ATOM     16  C   UNL     1      -1.682   2.137   2.015  0.00  0.00    +0.252 A 
ATOM     17  C   UNL     1      -2.124   0.091  -1.736  0.00  0.00    +0.307 C 
ATOM     18  C   UNL     1       0.245   0.768   2.588  0.00  0.00    +0.015 A 
ATOM     19  C   UNL     1      -0.947   1.247   2.941  0.00  0.00    +0.071 A 
ATOM     34  H   UNL     1      -0.558  -1.265  -1.541  0.00  0.00    +0.156 HD
ENDROOT
BRANCH  15  20
ATOM     20  C   UNL     1       2.164   0.469   0.977  0.00  0.00    -0.016 A 
ATOM     21  C   UNL     1       2.222  -0.767   0.342  0.00  0.00    +0.009 A 
ATOM     22  C   UNL     1       3.333   1.148   1.310  0.00  0.00    +0.009 A 
ATOM     24  C   UNL     1       3.461  -1.331   0.035  0.00  0.00    +0.015 A 
ATOM     25  C   UNL     1       4.571   0.584   1.003  0.00  0.00    +0.015 A 
ATOM     26  C   UNL     1       4.636  -0.655   0.366  0.00  0.00    +0.008 A 
BRANCH  26   1
ATOM      1  S   UNL     1       6.218  -1.374  -0.026  0.00  0.00    -0.129 S 
ATOM     32  C   UNL     1       6.119  -1.524  -1.832  0.00  0.00    +0.090 C 
ENDBRANCH  26   1
ENDBRANCH  15  20
BRANCH   7  23
ATOM     23  C   UNL     1      -2.057  -2.014  -0.361  0.00  0.00    +0.077 A 
ATOM     27  C   UNL     1      -1.336  -3.155  -0.013  0.00  0.00    +0.141 A 
ATOM     28  C   UNL     1      -3.334  -1.806   0.154  0.00  0.00    +0.027 A 
ATOM     29  C   UNL     1      -1.897  -4.092   0.854  0.00  0.00    +0.047 A 
ATOM     30  C   UNL     1      -3.894  -2.744   1.021  0.00  0.00    +0.002 A 
ATOM     31  C   UNL     1      -3.176  -3.887   1.371  0.00  0.00    +0.004 A 
BRANCH  27   4
ATOM      4  O   UNL     1      -0.085  -3.374  -0.507  0.00  0.00    -0.493 OA
ATOM     33  C   UNL     1       0.009  -4.096  -1.733  0.00  0.00    +0.277 C 
ENDBRANCH  27   4
ENDBRANCH   7  23
TORSDOF 4
