REMARK  Name = 45784318
REMARK  4 active torsions:
REMARK  status: ('A' for Active; 'I' for Inactive)
REMARK    1  A    between atoms: N_3  and  C_12
REMARK    2  A    between atoms: C_7  and  C_11
REMARK    3  A    between atoms: C_12  and  C_13
REMARK    4  A    between atoms: C_20  and  C_25
REMARK                            x       y       z     vdW  Elec       q    Type
REMARK                         _______ _______ _______ _____ _____    ______ ____
ROOT
ATOM      3  N   UNL     1      -1.754  -0.404  -0.156  0.00  0.00    -0.297 NA
ATOM      7  C   UNL     1       0.449  -0.772   0.559  0.00  0.00    +0.070 C 
ATOM      8  C   UNL     1      -0.308   0.042   1.623  0.00  0.00    +0.028 C 
ATOM      9  C   UNL     1      -0.421  -0.668  -0.702  0.00  0.00    +0.096 C 
ATOM     10  C   UNL     1      -1.539   0.580   0.905  0.00  0.00    +0.085 C 
ENDROOT
BRANCH   7  11
ATOM      4  N   UNL     1       2.922  -1.198   0.524  0.00  0.00    -0.342 N 
ATOM      5  N   UNL     1       2.285   0.846  -0.072  0.00  0.00    -0.232 NA
ATOM     11  C   UNL     1       1.878  -0.339   0.326  0.00  0.00    +0.113 A 
ATOM     14  C   UNL     1       4.080  -0.524   0.234  0.00  0.00    +0.067 A 
ATOM     15  C   UNL     1       3.656   0.749  -0.135  0.00  0.00    +0.089 A 
ATOM     18  C   UNL     1       5.422  -0.907   0.262  0.00  0.00    +0.046 A 
ATOM     19  C   UNL     1       4.613   1.711  -0.501  0.00  0.00    +0.031 A 
ATOM     20  C   UNL     1       6.361   0.062  -0.105  0.00  0.00    +0.054 A 
ATOM     21  C   UNL     1       5.966   1.349  -0.479  0.00  0.00    +0.021 A 
ATOM     26  H   UNL     1       2.856  -2.160   0.829  0.00  0.00    +0.167 HD
BRANCH  20  25
ATOM      6  N   UNL     1       8.880  -0.543  -0.087  0.00  0.00    -0.191 NA
ATOM     25  C   UNL     1       7.751  -0.272  -0.095  0.00  0.00    +0.099 C 
ENDBRANCH  20  25
ENDBRANCH   7  11
BRANCH   3  12
ATOM     12  C   UNL     1      -2.685   0.069  -1.170  0.00  0.00    +0.119 C 
BRANCH  12  13
ATOM      1  F   UNL     1      -6.848   1.979   0.515  0.00  0.00    -0.202 F 
ATOM      2  F   UNL     1      -8.044  -0.480   0.480  0.00  0.00    -0.202 F 
ATOM     13  C   UNL     1      -4.117  -0.078  -0.729  0.00  0.00    -0.030 A 
ATOM     16  C   UNL     1      -4.833   1.041  -0.303  0.00  0.00    +0.046 A 
ATOM     17  C   UNL     1      -4.727  -1.332  -0.747  0.00  0.00    +0.008 A 
ATOM     22  C   UNL     1      -6.160   0.905   0.105  0.00  0.00    +0.159 A 
ATOM     23  C   UNL     1      -6.054  -1.468  -0.338  0.00  0.00    +0.041 A 
ATOM     24  C   UNL     1      -6.771  -0.349   0.088  0.00  0.00    +0.158 A 
ENDBRANCH  12  13
ENDBRANCH   3  12
TORSDOF 4
