REMARK  Name = 45783312
REMARK  6 active torsions:
REMARK  status: ('A' for Active; 'I' for Inactive)
REMARK    1  A    between atoms: N_3  and  C_15
REMARK    2  A    between atoms: C_10  and  C_20
REMARK    3  A    between atoms: C_14  and  C_23
REMARK    4  A    between atoms: C_15  and  C_21
REMARK    5  A    between atoms: C_24  and  C_26
REMARK    6  A    between atoms: C_33  and  C_34
REMARK                            x       y       z     vdW  Elec       q    Type
REMARK                         _______ _______ _______ _____ _____    ______ ____
ROOT
ATOM      1  O   UNL     1      -3.632   1.242  -1.745  0.00  0.00    -0.336 OA
ATOM      5  N   UNL     1      -1.959   1.089  -0.264  0.00  0.00    -0.190 NA
ATOM      6  N   UNL     1      -2.449   1.234  -2.494  0.00  0.00    -0.056 NA
ATOM     20  C   UNL     1      -3.254   1.153  -0.443  0.00  0.00    +0.245 A 
ATOM     24  C   UNL     1      -1.507   1.142  -1.551  0.00  0.00    +0.202 A 
ENDROOT
BRANCH  24  26
ATOM      4  N   UNL     1       3.104   0.872  -0.147  0.00  0.00    -0.315 N 
ATOM      7  N   UNL     1       2.623   1.020  -2.461  0.00  0.00    -0.240 NA
ATOM     14  C   UNL     1       5.082   0.708   1.972  0.00  0.00    +0.078 C 
ATOM     16  C   UNL     1       3.705   0.060   2.101  0.00  0.00    +0.031 C 
ATOM     17  C   UNL     1       5.059   1.864   0.974  0.00  0.00    +0.031 C 
ATOM     18  C   UNL     1       3.064  -0.283   0.754  0.00  0.00    +0.107 C 
ATOM     19  C   UNL     1       4.422   1.482  -0.362  0.00  0.00    +0.107 C 
ATOM     22  C   UNL     1       2.172   0.968  -1.187  0.00  0.00    +0.122 A 
ATOM     25  C   UNL     1       0.832   1.005  -0.837  0.00  0.00    +0.055 A 
ATOM     26  C   UNL     1      -0.105   1.101  -1.859  0.00  0.00    +0.027 A 
ATOM     29  C   UNL     1       0.320   1.157  -3.182  0.00  0.00    +0.031 A 
ATOM     30  C   UNL     1       1.683   1.114  -3.428  0.00  0.00    +0.113 A 
BRANCH  14  23
ATOM      2  O   UNL     1       5.857  -1.478   1.388  0.00  0.00    -0.276 OA
ATOM      8  N   UNL     1       7.398   0.226   1.518  0.00  0.00    -0.329 N 
ATOM     23  C   UNL     1       6.129  -0.297   1.592  0.00  0.00    +0.214 C 
ATOM     35  H   UNL     1       8.186  -0.363   1.267  0.00  0.00    +0.145 HD
ATOM     36  H   UNL     1       7.614   1.189   1.751  0.00  0.00    +0.145 HD
ENDBRANCH  14  23
ENDBRANCH  24  26
BRANCH  20  10
ATOM      3  N   UNL     1      -3.991   0.429   1.821  0.00  0.00    -0.287 NA
ATOM     10  C   UNL     1      -4.367   1.142   0.583  0.00  0.00    +0.146 C 
ATOM     11  C   UNL     1      -4.760   2.555   1.050  0.00  0.00    +0.030 C 
ATOM     12  C   UNL     1      -4.632   2.523   2.567  0.00  0.00    +0.017 C 
ATOM     13  C   UNL     1      -4.753   1.051   2.904  0.00  0.00    +0.085 C 
BRANCH   3  15
ATOM     15  C   UNL     1      -4.217  -1.009   1.747  0.00  0.00    +0.120 C 
BRANCH  15  21
ATOM     21  C   UNL     1      -3.118  -1.711   0.995  0.00  0.00    -0.033 A 
ATOM     27  C   UNL     1      -3.419  -2.460  -0.143  0.00  0.00    +0.006 A 
ATOM     28  C   UNL     1      -1.798  -1.613   1.437  0.00  0.00    +0.006 A 
ATOM     31  C   UNL     1      -2.401  -3.110  -0.839  0.00  0.00    +0.019 A 
ATOM     32  C   UNL     1      -0.780  -2.264   0.740  0.00  0.00    +0.019 A 
ATOM     33  C   UNL     1      -1.081  -3.012  -0.398  0.00  0.00    +0.052 A 
BRANCH  33  34
ATOM      9  N   UNL     1       0.810  -4.220  -1.691  0.00  0.00    -0.191 NA
ATOM     34  C   UNL     1      -0.038  -3.679  -1.111  0.00  0.00    +0.099 C 
ENDBRANCH  33  34
ENDBRANCH  15  21
ENDBRANCH   3  15
ENDBRANCH  20  10
TORSDOF 6
