REMARK  Name = 11879859
REMARK  7 active torsions:
REMARK  status: ('A' for Active; 'I' for Inactive)
REMARK    1  A    between atoms: S_1  and  N_11
REMARK    2  A    between atoms: S_1  and  C_27
REMARK    3  A    between atoms: O_7  and  C_26
REMARK    4  A    between atoms: N_11  and  C_22
REMARK    5  A    between atoms: C_21  and  C_24
REMARK    6  A    between atoms: C_24  and  C_25
REMARK    7  A    between atoms: C_25  and  C_26
REMARK                            x       y       z     vdW  Elec       q    Type
REMARK                         _______ _______ _______ _____ _____    ______ ____
ROOT
ATOM      3  O   UNL     1       1.377  -0.277  -2.067  0.00  0.00    -0.266 OA
ATOM      4  O   UNL     1      -3.956  -0.757  -1.849  0.00  0.00    -0.276 OA
ATOM      9  N   UNL     1      -2.968  -1.699   0.032  0.00  0.00    -0.301 N 
ATOM     10  N   UNL     1       0.168  -1.155  -0.262  0.00  0.00    -0.310 N 
ATOM     12  C   UNL     1      -1.142  -3.349  -0.394  0.00  0.00    +0.027 C 
ATOM     13  C   UNL     1      -1.149  -2.048   1.693  0.00  0.00    +0.054 C 
ATOM     14  C   UNL     1      -0.882  -3.432   1.105  0.00  0.00    +0.018 C 
ATOM     15  C   UNL     1      -2.597  -2.930  -0.667  0.00  0.00    +0.113 C 
ATOM     16  C   UNL     1      -0.135  -2.377  -1.019  0.00  0.00    +0.130 C 
ATOM     17  C   UNL     1      -2.623  -1.662   1.461  0.00  0.00    +0.117 C 
ATOM     18  C   UNL     1      -0.239  -1.005   1.070  0.00  0.00    +0.027 A 
ATOM     19  C   UNL     1       0.147   0.069   1.784  0.00  0.00    +0.024 A 
ATOM     20  C   UNL     1       0.974  -0.194  -0.908  0.00  0.00    +0.274 A 
ATOM     21  C   UNL     1      -3.676  -0.707  -0.648  0.00  0.00    +0.216 C 
ATOM     22  C   UNL     1       1.348   0.978  -0.077  0.00  0.00    +0.112 A 
ATOM     23  C   UNL     1       0.965   1.095   1.195  0.00  0.00    +0.031 A 
ENDROOT
BRANCH  22  11
ATOM     11  N   UNL     1       2.141   2.005  -0.617  0.00  0.00    -0.211 N 
ATOM     31  H   UNL     1       2.201   1.956  -1.643  0.00  0.00    +0.174 HD
BRANCH  11   1
ATOM      1  S   UNL     1       3.642   2.258   0.151  0.00  0.00    +0.079 S 
ATOM      5  O   UNL     1       4.457   3.160  -0.640  0.00  0.00    -0.149 OA
ATOM      6  O   UNL     1       3.415   2.482   1.566  0.00  0.00    -0.149 OA
BRANCH   1  27
ATOM      2  S   UNL     1       5.056   0.301  -1.498  0.00  0.00    -0.077 S 
ATOM     27  C   UNL     1       4.539   0.708   0.068  0.00  0.00    +0.146 A 
ATOM     28  C   UNL     1       4.880  -0.195   1.017  0.00  0.00    +0.036 A 
ATOM     29  C   UNL     1       5.603  -1.284   0.449  0.00  0.00    +0.010 A 
ATOM     30  C   UNL     1       5.769  -1.141  -0.911  0.00  0.00    +0.047 A 
ENDBRANCH   1  27
ENDBRANCH  11   1
ENDBRANCH  22  11
BRANCH  21  24
ATOM     24  C   UNL     1      -4.105   0.491   0.160  0.00  0.00    +0.107 C 
BRANCH  24  25
ATOM     25  C   UNL     1      -4.857   1.465  -0.725  0.00  0.00    +0.129 C 
BRANCH  25  26
ATOM      8  O   UNL     1      -4.995   2.889   1.223  0.00  0.00    -0.251 OA
ATOM     26  C   UNL     1      -5.242   2.709   0.038  0.00  0.00    +0.305 C 
BRANCH  26   7
ATOM      7  O   UNL     1      -5.915   3.603  -0.728  0.00  0.00    -0.481 OA
ATOM     32  H   UNL     1      -6.169   4.403  -0.220  0.00  0.00    +0.295 HD
ENDBRANCH  26   7
ENDBRANCH  25  26
ENDBRANCH  24  25
ENDBRANCH  21  24
TORSDOF 7
