REMARK  Name = 11911859
REMARK  8 active torsions:
REMARK  status: ('A' for Active; 'I' for Inactive)
REMARK    1  A    between atoms: S_1  and  N_7
REMARK    2  A    between atoms: S_1  and  C_19
REMARK    3  A    between atoms: N_7  and  C_14
REMARK    4  A    between atoms: N_8  and  C_15
REMARK    5  A    between atoms: N_11  and  C_29
REMARK    6  A    between atoms: N_11  and  C_32
REMARK    7  A    between atoms: N_11  and  C_33
REMARK    8  A    between atoms: C_21  and  C_26
REMARK                            x       y       z     vdW  Elec       q    Type
REMARK                         _______ _______ _______ _____ _____    ______ ____
ROOT
ATOM      3  O   UNL     1       0.806   1.248   1.434  0.00  0.00    -0.370 OA
ATOM      4  O   UNL     1       2.801  -1.092   1.994  0.00  0.00    -0.370 OA
ATOM     12  C   UNL     1       2.509  -0.300   0.830  0.00  0.00    +0.170 C 
ATOM     13  C   UNL     1       1.016  -0.037   0.825  0.00  0.00    +0.171 C 
ATOM     14  C   UNL     1       3.125   1.071   0.964  0.00  0.00    +0.133 C 
ATOM     15  C   UNL     1       0.445  -1.130   1.698  0.00  0.00    +0.130 C 
ATOM     16  C   UNL     1       2.077   1.834   1.751  0.00  0.00    +0.183 C 
ATOM     17  C   UNL     1       1.575  -1.401   2.674  0.00  0.00    +0.185 C 
ENDROOT
BRANCH  15   8
ATOM      8  N   UNL     1       0.176  -2.309   0.904  0.00  0.00    -0.306 N 
ATOM      9  N   UNL     1      -1.937  -1.523   0.253  0.00  0.00    -0.214 NA
ATOM     10  N   UNL     1      -1.119  -3.655  -0.516  0.00  0.00    -0.223 NA
ATOM     18  C   UNL     1      -0.995  -2.501   0.192  0.00  0.00    +0.216 A 
ATOM     21  C   UNL     1      -3.066  -1.744  -0.452  0.00  0.00    +0.076 A 
ATOM     22  C   UNL     1      -2.273  -3.811  -1.197  0.00  0.00    +0.116 A 
ATOM     24  C   UNL     1      -3.291  -2.880  -1.203  0.00  0.00    +0.048 A 
ATOM     35  H   UNL     1       0.892  -3.020   0.810  0.00  0.00    +0.149 HD
BRANCH  21  26
ATOM     26  C   UNL     1      -4.052  -0.693  -0.375  0.00  0.00    +0.001 A 
ATOM     27  C   UNL     1      -5.410  -0.996  -0.488  0.00  0.00    +0.012 A 
ATOM     28  C   UNL     1      -3.651   0.632  -0.190  0.00  0.00    +0.012 A 
ATOM     29  C   UNL     1      -5.960   1.342  -0.230  0.00  0.00    +0.029 A 
ATOM     30  C   UNL     1      -6.363   0.020  -0.415  0.00  0.00    +0.024 A 
ATOM     31  C   UNL     1      -4.604   1.648  -0.117  0.00  0.00    +0.024 A 
BRANCH  29  11
ATOM     11  N   UNL     1      -6.923   2.370  -0.156  0.00  0.00    -0.336 N 
ATOM     32  C   UNL     1      -6.676   3.551   0.647  0.00  0.00    +0.129 C 
ATOM     33  C   UNL     1      -8.179   2.251  -0.870  0.00  0.00    +0.129 C 
ENDBRANCH  29  11
ENDBRANCH  21  26
ENDBRANCH  15   8
BRANCH  14   7
ATOM      7  N   UNL     1       3.281   1.682  -0.379  0.00  0.00    -0.182 NA
ATOM     34  H   UNL     1       2.611   1.371  -1.094  0.00  0.00    +0.149 HD
BRANCH   7   1
ATOM      1  S   UNL     1       4.802   2.246  -0.880  0.00  0.00    +0.065 S 
ATOM      5  O   UNL     1       5.321   3.175   0.105  0.00  0.00    -0.153 OA
ATOM      6  O   UNL     1       4.721   2.631  -2.275  0.00  0.00    -0.153 OA
BRANCH   1  19
ATOM      2  S   UNL     1       5.398  -0.388  -2.001  0.00  0.00    -0.077 S 
ATOM     19  C   UNL     1       5.778   0.774  -0.807  0.00  0.00    +0.142 A 
ATOM     20  C   UNL     1       6.792   0.367   0.021  0.00  0.00    +0.036 A 
ATOM     23  C   UNL     1       7.272  -0.929  -0.329  0.00  0.00    +0.010 A 
ATOM     25  C   UNL     1       6.601  -1.454  -1.411  0.00  0.00    +0.047 A 
ENDBRANCH   1  19
ENDBRANCH   7   1
ENDBRANCH  14   7
TORSDOF 6
