REMARK  Name = 75536624
REMARK  8 active torsions:
REMARK  status: ('A' for Active; 'I' for Inactive)
REMARK    1  A    between atoms: O_2  and  C_8
REMARK    2  A    between atoms: O_4  and  C_15
REMARK    3  A    between atoms: N_5  and  C_7
REMARK    4  A    between atoms: N_5  and  C_12
REMARK    5  A    between atoms: N_6  and  C_11
REMARK    6  A    between atoms: C_9  and  C_11
REMARK    7  A    between atoms: C_12  and  C_13
REMARK    8  A    between atoms: C_14  and  C_17
REMARK                            x       y       z     vdW  Elec       q    Type
REMARK                         _______ _______ _______ _____ _____    ______ ____
ROOT
ATOM      1  O   UNL     1       0.601   0.839   0.109  0.00  0.00    -0.371 OA
ATOM      7  C   UNL     1      -1.437  -0.367   0.296  0.00  0.00    +0.111 C 
ATOM      8  C   UNL     1      -0.526  -1.083  -0.685  0.00  0.00    +0.164 C 
ATOM      9  C   UNL     1       0.833  -0.523  -0.285  0.00  0.00    +0.165 C 
ATOM     10  C   UNL     1      -0.809   1.016   0.335  0.00  0.00    +0.181 C 
ENDROOT
BRANCH   8   2
ATOM      2  O   UNL     1      -0.577  -2.490  -0.551  0.00  0.00    -0.388 OA
ATOM     27  H   UNL     1      -0.357  -2.717   0.368  0.00  0.00    +0.210 HD
ENDBRANCH   8   2
BRANCH   7   5
ATOM      5  N   UNL     1      -2.832  -0.345  -0.113  0.00  0.00    -0.305 NA
ATOM     26  H   UNL     1      -3.100  -1.276  -0.433  0.00  0.00    +0.123 HD
BRANCH   5  12
ATOM     12  C   UNL     1      -3.698   0.042   0.994  0.00  0.00    +0.120 C 
BRANCH  12  13
ATOM     13  C   UNL     1      -5.146   0.087   0.585  0.00  0.00    +0.008 A 
ATOM     15  C   UNL     1      -5.640   1.151  -0.170  0.00  0.00    +0.121 A 
ATOM     16  C   UNL     1      -5.995  -0.950   0.968  0.00  0.00    +0.008 A 
ATOM     18  C   UNL     1      -6.984   1.178  -0.541  0.00  0.00    +0.046 A 
ATOM     19  C   UNL     1      -7.340  -0.924   0.597  0.00  0.00    +0.001 A 
ATOM     20  C   UNL     1      -7.834   0.140  -0.157  0.00  0.00    +0.004 A 
BRANCH  15   4
ATOM      4  O   UNL     1      -4.824   2.173  -0.552  0.00  0.00    -0.506 OA
ATOM     29  H   UNL     1      -5.341   2.817  -1.067  0.00  0.00    +0.292 HD
ENDBRANCH  15   4
ENDBRANCH  12  13
ENDBRANCH   5  12
ENDBRANCH   7   5
BRANCH   9  11
ATOM     11  C   UNL     1       1.853  -0.566  -1.408  0.00  0.00    +0.138 C 
BRANCH  11   6
ATOM      3  O   UNL     1       4.028  -2.015  -0.219  0.00  0.00    -0.270 OA
ATOM      6  N   UNL     1       3.114  -0.026  -0.988  0.00  0.00    -0.309 N 
ATOM     14  C   UNL     1       4.116  -0.807  -0.418  0.00  0.00    +0.244 C 
ATOM     28  H   UNL     1       3.224   0.980  -1.059  0.00  0.00    +0.149 HD
BRANCH  14  17
ATOM     17  C   UNL     1       5.354  -0.092  -0.012  0.00  0.00    +0.037 A 
ATOM     21  C   UNL     1       6.144  -0.597   1.020  0.00  0.00    +0.013 A 
ATOM     22  C   UNL     1       5.726   1.083  -0.665  0.00  0.00    +0.013 A 
ATOM     23  C   UNL     1       7.306   0.074   1.401  0.00  0.00    +0.001 A 
ATOM     24  C   UNL     1       6.889   1.753  -0.286  0.00  0.00    +0.001 A 
ATOM     25  C   UNL     1       7.679   1.248   0.747  0.00  0.00    +0.000 A 
ENDBRANCH  14  17
ENDBRANCH  11   6
ENDBRANCH   9  11
TORSDOF 8
