REMARK  Name = 75537025
REMARK  5 active torsions:
REMARK  status: ('A' for Active; 'I' for Inactive)
REMARK    1  A    between atoms: O_3  and  C_18
REMARK    2  A    between atoms: O_3  and  C_19
REMARK    3  A    between atoms: N_6  and  C_17
REMARK    4  A    between atoms: C_8  and  C_15
REMARK    5  A    between atoms: C_17  and  C_18
REMARK                            x       y       z     vdW  Elec       q    Type
REMARK                         _______ _______ _______ _____ _____    ______ ____
ROOT
ATOM      1  O   UNL     1      -4.138   1.389   0.517  0.00  0.00    -0.275 OA
ATOM      2  O   UNL     1       2.619   1.681  -1.163  0.00  0.00    -0.252 OA
ATOM      4  N   UNL     1       0.502   0.774  -0.695  0.00  0.00    -0.278 N 
ATOM      5  N   UNL     1      -1.974   0.534   0.547  0.00  0.00    -0.298 N 
ATOM      6  N   UNL     1       2.254  -0.626  -0.838  0.00  0.00    -0.281 N 
ATOM      7  C   UNL     1      -0.077  -0.552  -0.571  0.00  0.00    +0.112 C 
ATOM     11  C   UNL     1      -1.040  -0.605   0.612  0.00  0.00    +0.132 C 
ATOM     12  C   UNL     1       1.138  -1.469  -0.448  0.00  0.00    +0.133 C 
ATOM     13  C   UNL     1      -0.360   1.942  -0.681  0.00  0.00    +0.128 C 
ATOM     14  C   UNL     1      -1.333   1.856   0.492  0.00  0.00    +0.127 C 
ATOM     15  C   UNL     1      -3.367   0.434   0.554  0.00  0.00    +0.219 C 
ATOM     16  C   UNL     1       1.883   0.730  -0.931  0.00  0.00    +0.305 C 
ENDROOT
BRANCH  15   8
ATOM      8  C   UNL     1      -3.954  -0.940   0.608  0.00  0.00    +0.075 C 
ATOM      9  C   UNL     1      -4.132  -1.687  -0.670  0.00  0.00    +0.013 C 
ATOM     10  C   UNL     1      -5.325  -1.148   0.060  0.00  0.00    +0.013 C 
ENDBRANCH  15   8
BRANCH   6  17
ATOM     17  C   UNL     1       3.598  -1.145  -0.964  0.00  0.00    +0.137 C 
BRANCH  17  18
ATOM     18  C   UNL     1       4.287  -1.242   0.386  0.00  0.00    +0.178 C 
BRANCH  18   3
ATOM      3  O   UNL     1       4.388   0.055   0.959  0.00  0.00    -0.381 OA
ATOM     19  C   UNL     1       5.032   0.017   2.225  0.00  0.00    +0.194 C 
ENDBRANCH  18   3
ENDBRANCH  17  18
ENDBRANCH   6  17
TORSDOF 4
