REMARK  Name = 28960638
REMARK  6 active torsions:
REMARK  status: ('A' for Active; 'I' for Inactive)
REMARK    1  A    between atoms: O_1  and  C_9
REMARK    2  A    between atoms: N_3  and  C_11
REMARK    3  A    between atoms: C_7  and  C_12
REMARK    4  A    between atoms: C_11  and  C_13
REMARK    5  A    between atoms: C_11  and  C_14
REMARK    6  A    between atoms: C_15  and  C_16
REMARK                            x       y       z     vdW  Elec       q    Type
REMARK                         _______ _______ _______ _____ _____    ______ ____
ROOT
ATOM      2  O   UNL     1      -0.073   1.319  -1.735  0.00  0.00    -0.336 OA
ATOM      4  N   UNL     1       0.333   0.106   0.104  0.00  0.00    -0.190 NA
ATOM      5  N   UNL     1       1.321   1.240  -1.620  0.00  0.00    -0.056 NA
ATOM     12  C   UNL     1      -0.577   0.625  -0.681  0.00  0.00    +0.245 A 
ATOM     15  C   UNL     1       1.481   0.509  -0.512  0.00  0.00    +0.204 A 
ENDROOT
BRANCH  15  16
ATOM      6  N   UNL     1       4.123  -1.271   1.405  0.00  0.00    -0.263 NA
ATOM     16  C   UNL     1       2.774   0.167   0.006  0.00  0.00    +0.041 A 
ATOM     17  C   UNL     1       3.906   0.890  -0.355  0.00  0.00    +0.014 A 
ATOM     18  C   UNL     1       2.935  -0.895   0.881  0.00  0.00    +0.122 A 
ATOM     19  C   UNL     1       5.146   0.534   0.163  0.00  0.00    +0.020 A 
ATOM     20  C   UNL     1       5.201  -0.544   1.032  0.00  0.00    +0.111 A 
ENDBRANCH  15  16
BRANCH  12   7
ATOM      3  N   UNL     1      -2.555  -0.653   0.125  0.00  0.00    -0.286 NA
ATOM      7  C   UNL     1      -2.087   0.559  -0.577  0.00  0.00    +0.149 C 
ATOM      8  C   UNL     1      -2.680   1.732   0.225  0.00  0.00    +0.061 C 
ATOM      9  C   UNL     1      -3.503   1.079   1.329  0.00  0.00    +0.130 C 
ATOM     10  C   UNL     1      -3.817  -0.296   0.771  0.00  0.00    +0.116 C 
BRANCH   3  11
ATOM     11  C   UNL     1      -2.697  -1.807  -0.754  0.00  0.00    +0.051 C 
ATOM     13  C   UNL     1      -3.193  -3.015   0.034  0.00  0.00    +0.024 C 
ATOM     14  C   UNL     1      -1.359  -2.101  -1.425  0.00  0.00    +0.024 C 
ENDBRANCH   3  11
BRANCH   9   1
ATOM      1  O   UNL     1      -4.679   1.822   1.585  0.00  0.00    -0.390 OA
ATOM     21  H   UNL     1      -4.407   2.713   1.865  0.00  0.00    +0.210 HD
ENDBRANCH   9   1
ENDBRANCH  12   7
TORSDOF 4
