REMARK  Name = 86768995
REMARK  9 active torsions:
REMARK  status: ('A' for Active; 'I' for Inactive)
REMARK    1  A    between atoms: O_2  and  C_9
REMARK    2  A    between atoms: O_4  and  C_23
REMARK    3  A    between atoms: O_4  and  C_24
REMARK    4  A    between atoms: N_5  and  C_11
REMARK    5  A    between atoms: N_5  and  C_14
REMARK    6  A    between atoms: C_8  and  C_14
REMARK    7  A    between atoms: C_10  and  C_17
REMARK    8  A    between atoms: C_17  and  C_20
REMARK    9  A    between atoms: C_22  and  C_23
REMARK                            x       y       z     vdW  Elec       q    Type
REMARK                         _______ _______ _______ _____ _____    ______ ____
ROOT
ATOM      1  O   UNL     1       2.183  -0.320   0.807  0.00  0.00    -0.369 OA
ATOM      8  C   UNL     1       2.448   1.089   0.818  0.00  0.00    +0.161 C 
ATOM      9  C   UNL     1       3.882   1.390   0.362  0.00  0.00    +0.145 C 
ATOM     10  C   UNL     1       2.417  -0.973  -0.443  0.00  0.00    +0.125 C 
ATOM     12  C   UNL     1       4.238   0.683  -0.943  0.00  0.00    +0.036 C 
ATOM     13  C   UNL     1       3.871  -0.797  -0.879  0.00  0.00    +0.034 C 
ENDROOT
BRANCH   9   2
ATOM      2  O   UNL     1       4.790   0.934   1.367  0.00  0.00    -0.389 OA
ATOM     27  H   UNL     1       5.689   1.176   1.083  0.00  0.00    +0.210 HD
ENDBRANCH   9   2
BRANCH   8  14
ATOM     14  C   UNL     1       1.395   1.853   0.019  0.00  0.00    +0.115 C 
BRANCH  14   5
ATOM      5  N   UNL     1       0.057   1.553   0.504  0.00  0.00    -0.311 NA
ATOM     25  H   UNL     1      -0.112   0.551   0.405  0.00  0.00    +0.122 HD
BRANCH   5  11
ATOM      6  N   UNL     1      -3.435   3.857  -0.272  0.00  0.00    -0.316 NA
ATOM     11  C   UNL     1      -0.952   2.300  -0.243  0.00  0.00    +0.056 C 
ATOM     15  C   UNL     1      -2.328   1.646  -0.079  0.00  0.00    +0.034 C 
ATOM     16  C   UNL     1      -1.005   3.762   0.216  0.00  0.00    +0.034 C 
ATOM     18  C   UNL     1      -3.412   2.478  -0.765  0.00  0.00    +0.082 C 
ATOM     19  C   UNL     1      -2.141   4.511  -0.482  0.00  0.00    +0.082 C 
ATOM     26  H   UNL     1      -4.159   4.378  -0.765  0.00  0.00    +0.122 HD
ENDBRANCH   5  11
ENDBRANCH  14   5
ENDBRANCH   8  14
BRANCH  10  17
ATOM     17  C   UNL     1       2.081  -2.448  -0.260  0.00  0.00    +0.090 C 
BRANCH  17  20
ATOM      3  O   UNL     1      -1.355  -3.118  -1.116  0.00  0.00    -0.357 OA
ATOM      7  N   UNL     1      -0.016  -2.949  -1.446  0.00  0.00    -0.083 NA
ATOM     20  C   UNL     1       0.596  -2.689  -0.286  0.00  0.00    +0.086 A 
ATOM     21  C   UNL     1      -0.298  -2.682   0.798  0.00  0.00    +0.073 A 
ATOM     22  C   UNL     1      -1.511  -2.957   0.223  0.00  0.00    +0.163 A 
BRANCH  22  23
ATOM     23  C   UNL     1      -2.874  -3.104   0.747  0.00  0.00    +0.236 C 
BRANCH  23   4
ATOM      4  O   UNL     1      -3.655  -1.948   0.429  0.00  0.00    -0.375 OA
ATOM     24  C   UNL     1      -4.977  -2.070   0.926  0.00  0.00    +0.194 C 
ENDBRANCH  23   4
ENDBRANCH  22  23
ENDBRANCH  17  20
ENDBRANCH  10  17
TORSDOF 8
