REMARK  Name = 38027853
REMARK  13 active torsions:
REMARK  status: ('A' for Active; 'I' for Inactive)
REMARK    1  A    between atoms: O_4  and  C_31
REMARK    2  A    between atoms: O_4  and  C_32
REMARK    3  A    between atoms: N_5  and  C_14
REMARK    4  A    between atoms: N_6  and  C_21
REMARK    5  A    between atoms: C_7  and  C_11
REMARK    6  A    between atoms: C_8  and  C_14
REMARK    7  A    between atoms: C_10  and  C_15
REMARK    8  A    between atoms: C_11  and  C_16
REMARK    9  A    between atoms: C_11  and  C_17
REMARK   10  A    between atoms: C_12  and  C_18
REMARK   11  A    between atoms: C_15  and  C_19
REMARK   12  A    between atoms: C_20  and  C_22
REMARK   13  A    between atoms: C_21  and  C_23
REMARK                            x       y       z     vdW  Elec       q    Type
REMARK                         _______ _______ _______ _____ _____    ______ ____
ROOT
ATOM      7  C   UNL     1       1.020   1.329  -1.377  0.00  0.00    +0.000 C 
ATOM      8  C   UNL     1       2.508   1.452  -1.792  0.00  0.00    +0.032 C 
ATOM      9  C   UNL     1       0.590   2.554  -0.556  0.00  0.00    +0.012 C 
ATOM     10  C   UNL     1       1.438   2.730   0.718  0.00  0.00    +0.023 C 
ATOM     12  C   UNL     1       2.920   2.595   0.430  0.00  0.00    -0.073 C 
ATOM     13  C   UNL     1       3.379   2.034  -0.703  0.00  0.00    -0.022 C 
ATOM     18  C   UNL     1       3.863   3.162   1.454  0.00  0.00    +0.039 C 
ENDROOT
BRANCH   7  11
ATOM     11  C   UNL     1       0.102   1.171  -2.593  0.00  0.00    -0.013 C 
ATOM     16  C   UNL     1      -1.194   0.473  -2.193  0.00  0.00    +0.007 C 
ATOM     17  C   UNL     1      -0.187   2.530  -3.222  0.00  0.00    +0.007 C 
ENDBRANCH   7  11
BRANCH   8  14
ATOM     14  C   UNL     1       3.074   0.096  -2.229  0.00  0.00    +0.112 C 
BRANCH  14   5
ATOM      2  O   UNL     1       1.723  -2.431  -2.049  0.00  0.00    -0.267 OA
ATOM      5  N   UNL     1       3.113  -0.816  -1.129  0.00  0.00    -0.308 N 
ATOM     20  C   UNL     1       2.424  -2.028  -1.124  0.00  0.00    +0.279 C 
ATOM     33  H   UNL     1       3.700  -0.589  -0.332  0.00  0.00    +0.149 HD
BRANCH  20  22
ATOM      3  O   UNL     1       3.310  -2.368   1.121  0.00  0.00    -0.458 OA
ATOM     22  C   UNL     1       2.547  -2.852   0.106  0.00  0.00    +0.189 A 
ATOM     24  C   UNL     1       2.012  -4.074   0.443  0.00  0.00    +0.054 A 
ATOM     27  C   UNL     1       2.476  -4.359   1.749  0.00  0.00    +0.042 A 
ATOM     28  C   UNL     1       3.262  -3.291   2.117  0.00  0.00    +0.196 A 
ENDBRANCH  20  22
ENDBRANCH  14   5
ENDBRANCH   8  14
BRANCH  10  15
ATOM     15  C   UNL     1       1.001   1.751   1.812  0.00  0.00    +0.103 C 
BRANCH  15  19
ATOM      1  O   UNL     1      -1.127   2.887   1.993  0.00  0.00    -0.276 OA
ATOM      6  N   UNL     1      -0.989   0.627   2.515  0.00  0.00    -0.311 N 
ATOM     19  C   UNL     1      -0.479   1.850   2.106  0.00  0.00    +0.214 C 
ATOM     34  H   UNL     1      -0.372  -0.178   2.575  0.00  0.00    +0.149 HD
BRANCH   6  21
ATOM     21  C   UNL     1      -2.376   0.427   2.864  0.00  0.00    +0.139 C 
BRANCH  21  23
ATOM     23  C   UNL     1      -3.202   0.026   1.676  0.00  0.00    -0.030 A 
ATOM     25  C   UNL     1      -4.280   0.817   1.276  0.00  0.00    +0.009 A 
ATOM     26  C   UNL     1      -2.892  -1.138   0.972  0.00  0.00    +0.009 A 
ATOM     29  C   UNL     1      -5.046   0.444   0.172  0.00  0.00    +0.046 A 
ATOM     30  C   UNL     1      -3.659  -1.511  -0.132  0.00  0.00    +0.046 A 
ATOM     31  C   UNL     1      -4.736  -0.720  -0.532  0.00  0.00    +0.120 A 
BRANCH  31   4
ATOM      4  O   UNL     1      -5.484  -1.083  -1.609  0.00  0.00    -0.495 OA
ATOM     32  C   UNL     1      -5.111  -2.284  -2.283  0.00  0.00    +0.277 C 
ENDBRANCH  31   4
ENDBRANCH  21  23
ENDBRANCH   6  21
ENDBRANCH  15  19
ENDBRANCH  10  15
TORSDOF 9
