REMARK  Name = 45783393
REMARK  8 active torsions:
REMARK  status: ('A' for Active; 'I' for Inactive)
REMARK    1  A    between atoms: O_3  and  C_26
REMARK    2  A    between atoms: O_3  and  C_27
REMARK    3  A    between atoms: N_4  and  C_13
REMARK    4  A    between atoms: N_7  and  C_23
REMARK    5  A    between atoms: C_9  and  C_14
REMARK    6  A    between atoms: C_13  and  C_15
REMARK    7  A    between atoms: C_16  and  C_18
REMARK    8  A    between atoms: C_23  and  C_26
REMARK                            x       y       z     vdW  Elec       q    Type
REMARK                         _______ _______ _______ _____ _____    ______ ____
ROOT
ATOM      2  O   UNL     1      -0.564   2.226   1.355  0.00  0.00    -0.336 OA
ATOM      5  N   UNL     1       0.144   0.121   1.065  0.00  0.00    -0.190 NA
ATOM      6  N   UNL     1       0.811   2.309   1.101  0.00  0.00    -0.056 NA
ATOM     14  C   UNL     1      -0.875   0.904   1.316  0.00  0.00    +0.245 A 
ATOM     16  C   UNL     1       1.156   1.028   0.941  0.00  0.00    +0.205 A 
ENDROOT
BRANCH  16  18
ATOM      7  N   UNL     1       1.733  -1.307  -0.570  0.00  0.00    -0.326 N 
ATOM      8  N   UNL     1       4.059  -0.923  -0.361  0.00  0.00    -0.240 NA
ATOM     18  C   UNL     1       2.502   0.622   0.657  0.00  0.00    +0.062 A 
ATOM     21  C   UNL     1       2.801  -0.514  -0.078  0.00  0.00    +0.130 A 
ATOM     22  C   UNL     1       3.560   1.388   1.132  0.00  0.00    +0.016 A 
ATOM     24  C   UNL     1       4.868   1.000   0.861  0.00  0.00    +0.020 A 
ATOM     25  C   UNL     1       5.062  -0.153   0.117  0.00  0.00    +0.113 A 
ATOM     28  H   UNL     1       0.882  -0.821  -0.830  0.00  0.00    +0.148 HD
BRANCH   7  23
ATOM     23  C   UNL     1       1.902  -2.668  -0.959  0.00  0.00    +0.131 C 
BRANCH  23  26
ATOM     26  C   UNL     1       0.586  -3.229  -1.472  0.00  0.00    +0.178 C 
BRANCH  26   3
ATOM      3  O   UNL     1      -0.384  -3.187  -0.433  0.00  0.00    -0.381 OA
ATOM     27  C   UNL     1      -1.633  -3.708  -0.865  0.00  0.00    +0.194 C 
ENDBRANCH  26   3
ENDBRANCH  23  26
ENDBRANCH   7  23
ENDBRANCH  16  18
BRANCH  14   9
ATOM      4  N   UNL     1      -2.918  -0.220   0.446  0.00  0.00    -0.287 NA
ATOM      9  C   UNL     1      -2.325   0.544   1.562  0.00  0.00    +0.146 C 
ATOM     10  C   UNL     1      -2.512  -0.358   2.796  0.00  0.00    +0.030 C 
ATOM     11  C   UNL     1      -3.271  -1.575   2.288  0.00  0.00    +0.017 C 
ATOM     12  C   UNL     1      -3.953  -1.071   1.032  0.00  0.00    +0.085 C 
BRANCH   4  13
ATOM     13  C   UNL     1      -3.442   0.629  -0.616  0.00  0.00    +0.127 C 
BRANCH  13  15
ATOM      1  S   UNL     1      -2.116   2.815  -1.711  0.00  0.00    -0.100 S 
ATOM     15  C   UNL     1      -2.350   1.129  -1.524  0.00  0.00    +0.004 A 
ATOM     17  C   UNL     1      -1.456   0.397  -2.274  0.00  0.00    +0.012 A 
ATOM     19  C   UNL     1      -0.567   1.231  -3.012  0.00  0.00    +0.008 A 
ATOM     20  C   UNL     1      -0.816   2.569  -2.797  0.00  0.00    +0.045 A 
ENDBRANCH  13  15
ENDBRANCH   4  13
ENDBRANCH  14   9
TORSDOF 7
