REMARK  Name = 7674768
REMARK  5 active torsions:
REMARK  status: ('A' for Active; 'I' for Inactive)
REMARK    1  A    between atoms: O_5  and  C_31
REMARK    2  A    between atoms: O_5  and  C_32
REMARK    3  A    between atoms: N_6  and  C_14
REMARK    4  A    between atoms: N_8  and  C_25
REMARK    5  A    between atoms: C_23  and  C_26
REMARK                            x       y       z     vdW  Elec       q    Type
REMARK                         _______ _______ _______ _____ _____    ______ ____
ROOT
ATOM      4  O   UNL     1       0.476  -0.991  -1.771  0.00  0.00    -0.267 OA
ATOM      6  N   UNL     1      -4.122   0.101  -0.096  0.00  0.00    -0.298 NA
ATOM      7  N   UNL     1      -1.435  -1.554  -0.560  0.00  0.00    -0.311 N 
ATOM      9  C   UNL     1      -3.737  -1.825  -1.654  0.00  0.00    +0.024 C 
ATOM     10  C   UNL     1      -3.492  -2.161   0.758  0.00  0.00    +0.050 C 
ATOM     11  C   UNL     1      -3.993  -2.815  -0.526  0.00  0.00    +0.017 C 
ATOM     12  C   UNL     1      -4.490  -0.506  -1.381  0.00  0.00    +0.090 C 
ATOM     13  C   UNL     1      -4.277  -0.853   1.012  0.00  0.00    +0.094 C 
ATOM     15  C   UNL     1      -2.223  -1.621  -1.800  0.00  0.00    +0.130 C 
ATOM     16  C   UNL     1      -2.003  -1.878   0.674  0.00  0.00    +0.026 A 
ATOM     21  C   UNL     1      -1.239  -1.919   1.777  0.00  0.00    +0.022 A 
ATOM     22  C   UNL     1      -0.067  -1.249  -0.696  0.00  0.00    +0.259 A 
ATOM     23  C   UNL     1       0.757  -1.270   0.564  0.00  0.00    +0.047 A 
ATOM     24  C   UNL     1       0.160  -1.604   1.717  0.00  0.00    +0.015 A 
ENDROOT
BRANCH   6  14
ATOM      8  N   UNL     1      -2.983   3.562   0.217  0.00  0.00    -0.305 NA
ATOM     14  C   UNL     1      -4.896   1.320   0.150  0.00  0.00    +0.059 C 
ATOM     17  C   UNL     1      -4.723   2.302  -1.013  0.00  0.00    +0.034 C 
ATOM     18  C   UNL     1      -4.439   1.986   1.452  0.00  0.00    +0.034 C 
ATOM     19  C   UNL     1      -3.320   2.915  -1.059  0.00  0.00    +0.085 C 
ATOM     20  C   UNL     1      -3.044   2.608   1.334  0.00  0.00    +0.085 C 
ATOM     25  C   UNL     1      -1.660   4.182   0.144  0.00  0.00    +0.104 C 
ENDBRANCH   6  14
BRANCH  23  26
ATOM     26  C   UNL     1       2.190  -0.924   0.545  0.00  0.00    -0.012 A 
ATOM     27  C   UNL     1       3.146  -1.919   0.344  0.00  0.00    +0.012 A 
ATOM     28  C   UNL     1       2.590   0.400   0.730  0.00  0.00    +0.012 A 
ATOM     29  C   UNL     1       4.502  -1.591   0.327  0.00  0.00    +0.046 A 
ATOM     30  C   UNL     1       3.946   0.728   0.713  0.00  0.00    +0.046 A 
ATOM     31  C   UNL     1       4.902  -0.268   0.511  0.00  0.00    +0.130 A 
BRANCH  31   5
ATOM      5  O   UNL     1       6.225   0.052   0.495  0.00  0.00    -0.406 OA
BRANCH   5  32
ATOM      1  F   UNL     1       7.957   0.667  -0.815  0.00  0.00    -0.133 F 
ATOM      2  F   UNL     1       5.934   0.908  -1.606  0.00  0.00    -0.133 F 
ATOM      3  F   UNL     1       6.673   2.239  -0.004  0.00  0.00    -0.133 F 
ATOM     32  C   UNL     1       6.683   0.977  -0.485  0.00  0.00    +0.575 C 
ENDBRANCH   5  32
ENDBRANCH  31   5
ENDBRANCH  23  26
TORSDOF 4
