REMARK  Name = 45783684
REMARK  6 active torsions:
REMARK  status: ('A' for Active; 'I' for Inactive)
REMARK    1  A    between atoms: O_3  and  C_26
REMARK    2  A    between atoms: O_3  and  C_27
REMARK    3  A    between atoms: N_4  and  C_9
REMARK    4  A    between atoms: C_10  and  C_18
REMARK    5  A    between atoms: C_19  and  C_20
REMARK    6  A    between atoms: C_21  and  C_22
REMARK                            x       y       z     vdW  Elec       q    Type
REMARK                         _______ _______ _______ _____ _____    ______ ____
ROOT
ATOM      4  N   UNL     1       2.408   1.672  -0.579  0.00  0.00    -0.288 NA
ATOM     10  C   UNL     1       1.649   2.513   0.368  0.00  0.00    +0.146 C 
ATOM     11  C   UNL     1       3.357   2.560  -1.251  0.00  0.00    +0.085 C 
ATOM     12  C   UNL     1       1.663   3.919  -0.259  0.00  0.00    +0.030 C 
ATOM     15  C   UNL     1       2.504   3.783  -1.520  0.00  0.00    +0.017 C 
ENDROOT
BRANCH   4   9
ATOM      2  O   UNL     1       3.949  -4.278  -0.774  0.00  0.00    -0.276 OA
ATOM      5  N   UNL     1       3.448  -2.315   0.364  0.00  0.00    -0.302 N 
ATOM      9  C   UNL     1       3.074   0.540   0.062  0.00  0.00    +0.060 C 
ATOM     13  C   UNL     1       3.830  -0.287  -0.985  0.00  0.00    +0.038 C 
ATOM     14  C   UNL     1       2.045  -0.332   0.793  0.00  0.00    +0.038 C 
ATOM     16  C   UNL     1       4.455  -1.529  -0.352  0.00  0.00    +0.109 C 
ATOM     17  C   UNL     1       2.705  -1.574   1.391  0.00  0.00    +0.109 C 
ATOM     19  C   UNL     1       3.287  -3.668   0.070  0.00  0.00    +0.212 C 
ATOM     20  C   UNL     1       2.227  -4.407   0.848  0.00  0.00    +0.109 C 
ENDBRANCH   4   9
BRANCH  10  18
ATOM      1  O   UNL     1      -0.311   2.299   1.812  0.00  0.00    -0.336 OA
ATOM      6  N   UNL     1      -0.524   1.285  -0.174  0.00  0.00    -0.190 NA
ATOM      7  N   UNL     1      -1.587   1.721   1.804  0.00  0.00    -0.056 NA
ATOM     18  C   UNL     1       0.247   1.995   0.611  0.00  0.00    +0.245 A 
ATOM     21  C   UNL     1      -1.638   1.142   0.601  0.00  0.00    +0.204 A 
BRANCH  21  22
ATOM      8  N   UNL     1      -5.024  -0.396   0.568  0.00  0.00    -0.221 NA
ATOM     22  C   UNL     1      -2.786   0.415   0.142  0.00  0.00    +0.041 A 
ATOM     23  C   UNL     1      -2.805  -0.174  -1.117  0.00  0.00    +0.018 A 
ATOM     24  C   UNL     1      -3.911   0.276   0.940  0.00  0.00    +0.126 A 
ATOM     25  C   UNL     1      -3.931  -0.874  -1.535  0.00  0.00    +0.068 A 
ATOM     26  C   UNL     1      -5.005  -0.955  -0.662  0.00  0.00    +0.214 A 
BRANCH  26   3
ATOM      3  O   UNL     1      -6.127  -1.639  -1.051  0.00  0.00    -0.480 OA
ATOM     27  C   UNL     1      -7.199  -1.692  -0.118  0.00  0.00    +0.279 C 
ENDBRANCH  26   3
ENDBRANCH  21  22
ENDBRANCH  10  18
TORSDOF 4
