REMARK  Name = 75536567
REMARK  7 active torsions:
REMARK  status: ('A' for Active; 'I' for Inactive)
REMARK    1  A    between atoms: O_2  and  C_9
REMARK    2  A    between atoms: N_4  and  C_17
REMARK    3  A    between atoms: N_5  and  C_10
REMARK    4  A    between atoms: N_5  and  C_19
REMARK    5  A    between atoms: C_8  and  C_17
REMARK    6  A    between atoms: C_11  and  C_18
REMARK    7  A    between atoms: C_19  and  C_20
REMARK                            x       y       z     vdW  Elec       q    Type
REMARK                         _______ _______ _______ _____ _____    ______ ____
ROOT
ATOM      1  O   UNL     1       0.224  -1.204  -0.262  0.00  0.00    -0.371 OA
ATOM      8  C   UNL     1       0.563   0.128   0.157  0.00  0.00    +0.165 C 
ATOM      9  C   UNL     1      -0.735   0.761   0.638  0.00  0.00    +0.164 C 
ATOM     10  C   UNL     1      -1.736   0.136  -0.316  0.00  0.00    +0.111 C 
ATOM     14  C   UNL     1      -1.204  -1.283  -0.423  0.00  0.00    +0.181 C 
ENDROOT
BRANCH   9   2
ATOM      2  O   UNL     1      -0.700   2.172   0.545  0.00  0.00    -0.388 OA
ATOM     25  H   UNL     1      -0.509   2.413  -0.377  0.00  0.00    +0.210 HD
ENDBRANCH   9   2
BRANCH  10   5
ATOM      5  N   UNL     1      -3.109   0.191   0.161  0.00  0.00    -0.302 NA
ATOM     24  H   UNL     1      -3.301   1.127   0.519  0.00  0.00    +0.123 HD
BRANCH   5  19
ATOM     19  C   UNL     1      -4.050  -0.106  -0.913  0.00  0.00    +0.156 C 
BRANCH  19  20
ATOM      6  N   UNL     1      -6.007  -1.094   0.300  0.00  0.00    -0.347 N 
ATOM      7  N   UNL     1      -6.354   0.887  -0.641  0.00  0.00    -0.240 NA
ATOM     20  C   UNL     1      -5.476  -0.070  -0.434  0.00  0.00    +0.121 A 
ATOM     21  C   UNL     1      -7.305  -0.770   0.578  0.00  0.00    +0.104 A 
ATOM     22  C   UNL     1      -7.495   0.457  -0.013  0.00  0.00    +0.130 A 
ATOM     26  H   UNL     1      -5.528  -1.938   0.586  0.00  0.00    +0.167 HD
ENDBRANCH  19  20
ENDBRANCH   5  19
ENDBRANCH  10   5
BRANCH   8  17
ATOM     17  C   UNL     1       1.637   0.071   1.230  0.00  0.00    +0.138 C 
BRANCH  17   4
ATOM      3  O   UNL     1       3.886   1.394  -0.043  0.00  0.00    -0.276 OA
ATOM      4  N   UNL     1       2.838  -0.536   0.734  0.00  0.00    -0.313 N 
ATOM     18  C   UNL     1       3.869   0.179   0.135  0.00  0.00    +0.216 C 
ATOM     23  H   UNL     1       2.929  -1.543   0.833  0.00  0.00    +0.149 HD
BRANCH  18  11
ATOM     11  C   UNL     1       5.017  -0.695  -0.270  0.00  0.00    +0.075 C 
ATOM     12  C   UNL     1       6.038  -0.792   0.869  0.00  0.00    +0.013 C 
ATOM     13  C   UNL     1       5.761  -0.090  -1.461  0.00  0.00    +0.013 C 
ATOM     15  C   UNL     1       7.367  -0.337   0.276  0.00  0.00    +0.001 C 
ATOM     16  C   UNL     1       6.971   0.601  -0.849  0.00  0.00    +0.001 C 
ENDBRANCH  18  11
ENDBRANCH  17   4
ENDBRANCH   8  17
TORSDOF 7
