REMARK  Name = 51136608
REMARK  13 active torsions:
REMARK  status: ('A' for Active; 'I' for Inactive)
REMARK    1  A    between atoms: O_2  and  C_18
REMARK    2  A    between atoms: O_4  and  C_28
REMARK    3  A    between atoms: O_4  and  C_30
REMARK    4  A    between atoms: O_5  and  C_29
REMARK    5  A    between atoms: O_5  and  C_31
REMARK    6  A    between atoms: C_8  and  C_13
REMARK    7  A    between atoms: C_9  and  C_14
REMARK    8  A    between atoms: C_13  and  C_16
REMARK    9  A    between atoms: C_14  and  C_18
REMARK   10  A    between atoms: C_15  and  C_17
REMARK   11  A    between atoms: C_17  and  C_20
REMARK   12  A    between atoms: C_17  and  C_21
REMARK   13  A    between atoms: C_17  and  C_22
REMARK                            x       y       z     vdW  Elec       q    Type
REMARK                         _______ _______ _______ _____ _____    ______ ____
ROOT
ATOM      1  O   UNL     1      -2.500  -3.108   0.324  0.00  0.00    -0.275 OA
ATOM      6  N   UNL     1      -2.887  -0.826   0.108  0.00  0.00    -0.301 N 
ATOM      8  C   UNL     1      -0.878   0.558   0.542  0.00  0.00    +0.016 C 
ATOM      9  C   UNL     1      -1.597   1.798  -0.046  0.00  0.00    +0.006 C 
ATOM     10  C   UNL     1      -1.876  -0.465   1.106  0.00  0.00    +0.112 C 
ATOM     11  C   UNL     1      -2.664   1.339  -1.056  0.00  0.00    +0.023 C 
ATOM     12  C   UNL     1      -3.623   0.305  -0.469  0.00  0.00    +0.108 C 
ATOM     15  C   UNL     1      -3.131  -2.171  -0.172  0.00  0.00    +0.221 C 
ENDROOT
BRANCH  15  17
ATOM     17  C   UNL     1      -4.240  -2.468  -1.150  0.00  0.00    +0.039 C 
ATOM     20  C   UNL     1      -3.887  -1.799  -2.479  0.00  0.00    +0.020 C 
ATOM     21  C   UNL     1      -5.550  -1.901  -0.597  0.00  0.00    +0.020 C 
ATOM     22  C   UNL     1      -4.350  -3.983  -1.326  0.00  0.00    +0.020 C 
ENDBRANCH  15  17
BRANCH   8  13
ATOM     13  C   UNL     1       0.174   0.917   1.590  0.00  0.00    +0.061 C 
BRANCH  13  16
ATOM      7  N   UNL     1       0.947  -1.130   2.581  0.00  0.00    -0.287 NA
ATOM     16  C   UNL     1       1.180  -0.203   1.712  0.00  0.00    +0.044 C 
ATOM     19  C   UNL     1       2.382  -0.183   0.840  0.00  0.00    +0.003 A 
ATOM     23  C   UNL     1       3.459  -0.989   1.230  0.00  0.00    -0.033 A 
ATOM     24  C   UNL     1       3.336  -1.794   2.490  0.00  0.00    +0.059 C 
ATOM     25  C   UNL     1       1.892  -2.249   2.657  0.00  0.00    +0.146 C 
ATOM     26  C   UNL     1       2.466   0.603  -0.311  0.00  0.00    +0.059 A 
ATOM     27  C   UNL     1       4.634  -0.984   0.475  0.00  0.00    +0.053 A 
ATOM     28  C   UNL     1       3.639   0.590  -1.068  0.00  0.00    +0.162 A 
ATOM     29  C   UNL     1       4.721  -0.199  -0.675  0.00  0.00    +0.162 A 
BRANCH  28   4
ATOM      4  O   UNL     1       3.717   1.356  -2.192  0.00  0.00    -0.491 OA
ATOM     30  C   UNL     1       2.569   2.134  -2.526  0.00  0.00    +0.277 C 
ENDBRANCH  28   4
BRANCH  29   5
ATOM      5  O   UNL     1       5.870  -0.209  -1.407  0.00  0.00    -0.491 OA
ATOM     31  C   UNL     1       5.966  -1.179  -2.449  0.00  0.00    +0.277 C 
ENDBRANCH  29   5
ENDBRANCH  13  16
ENDBRANCH   8  13
BRANCH   9  14
ATOM     14  C   UNL     1      -2.207   2.725   1.012  0.00  0.00    +0.124 C 
BRANCH  14  18
ATOM      3  O   UNL     1      -2.173   4.502  -0.656  0.00  0.00    -0.251 OA
ATOM     18  C   UNL     1      -2.426   4.112   0.473  0.00  0.00    +0.305 C 
BRANCH  18   2
ATOM      2  O   UNL     1      -2.961   4.900   1.442  0.00  0.00    -0.481 OA
ATOM     32  H   UNL     1      -3.117   5.814   1.124  0.00  0.00    +0.295 HD
ENDBRANCH  18   2
ENDBRANCH  14  18
ENDBRANCH   9  14
TORSDOF 8
