REMARK  Name = 75536925
REMARK  6 active torsions:
REMARK  status: ('A' for Active; 'I' for Inactive)
REMARK    1  A    between atoms: O_2  and  C_8
REMARK    2  A    between atoms: O_2  and  C_16
REMARK    3  A    between atoms: O_3  and  C_19
REMARK    4  A    between atoms: O_3  and  C_23
REMARK    5  A    between atoms: N_4  and  C_10
REMARK    6  A    between atoms: C_10  and  C_13
REMARK                            x       y       z     vdW  Elec       q    Type
REMARK                         _______ _______ _______ _____ _____    ______ ____
ROOT
ATOM      1  O   UNL     1       3.999   0.807   1.302  0.00  0.00    -0.375 OA
ATOM      4  N   UNL     1       1.741   1.757  -0.210  0.00  0.00    -0.292 NA
ATOM      7  C   UNL     1       1.865   0.415  -0.780  0.00  0.00    +0.131 C 
ATOM      8  C   UNL     1       2.243  -0.607   0.301  0.00  0.00    +0.215 C 
ATOM      9  C   UNL     1       3.001   2.507  -0.140  0.00  0.00    +0.113 C 
ATOM     11  C   UNL     1       3.667  -0.496   0.840  0.00  0.00    +0.205 C 
ATOM     12  C   UNL     1       4.249   1.711   0.232  0.00  0.00    +0.175 C 
ENDROOT
BRANCH   8   2
ATOM      2  O   UNL     1       2.068  -1.913  -0.249  0.00  0.00    -0.468 OA
BRANCH   2  16
ATOM      5  N   UNL     1      -0.140  -1.721   0.456  0.00  0.00    -0.219 NA
ATOM      6  N   UNL     1      -0.658  -4.279  -0.573  0.00  0.00    -0.256 NA
ATOM     16  C   UNL     1       0.816  -2.455  -0.148  0.00  0.00    +0.234 A 
ATOM     20  C   UNL     1       0.561  -3.711  -0.653  0.00  0.00    +0.177 A 
ATOM     21  C   UNL     1      -1.359  -2.289   0.536  0.00  0.00    +0.134 A 
ATOM     22  C   UNL     1      -1.614  -3.545   0.031  0.00  0.00    +0.130 A 
ENDBRANCH   2  16
ENDBRANCH   8   2
BRANCH   4  10
ATOM     10  C   UNL     1       0.728   2.545  -0.912  0.00  0.00    +0.119 C 
BRANCH  10  13
ATOM     13  C   UNL     1      -0.666   2.068  -0.603  0.00  0.00    -0.033 A 
ATOM     14  C   UNL     1      -1.502   1.640  -1.635  0.00  0.00    +0.008 A 
ATOM     15  C   UNL     1      -1.122   2.054   0.715  0.00  0.00    +0.008 A 
ATOM     17  C   UNL     1      -2.794   1.198  -1.348  0.00  0.00    +0.046 A 
ATOM     18  C   UNL     1      -2.414   1.612   1.002  0.00  0.00    +0.046 A 
ATOM     19  C   UNL     1      -3.249   1.184  -0.030  0.00  0.00    +0.120 A 
BRANCH  19   3
ATOM      3  O   UNL     1      -4.509   0.752   0.249  0.00  0.00    -0.495 OA
ATOM     23  C   UNL     1      -4.911   0.764   1.619  0.00  0.00    +0.277 C 
ENDBRANCH  19   3
ENDBRANCH  10  13
ENDBRANCH   4  10
TORSDOF 5
