REMARK  Name = 51137080
REMARK  3 active torsions:
REMARK  status: ('A' for Active; 'I' for Inactive)
REMARK    1  A    between atoms: N_2  and  C_9
REMARK    2  A    between atoms: C_5  and  C_10
REMARK    3  A    between atoms: C_9  and  C_11
REMARK                            x       y       z     vdW  Elec       q    Type
REMARK                         _______ _______ _______ _____ _____    ______ ____
ROOT
ATOM      2  N   UNL     1      -0.934   0.172   0.033  0.00  0.00    -0.297 NA
ATOM      5  C   UNL     1       1.174  -0.621   0.685  0.00  0.00    +0.060 C 
ATOM      6  C   UNL     1       0.303  -0.353  -0.549  0.00  0.00    +0.095 C 
ATOM      7  C   UNL     1       0.627   0.330   1.763  0.00  0.00    +0.027 C 
ATOM      8  C   UNL     1      -0.495   1.099   1.077  0.00  0.00    +0.085 C 
ENDROOT
BRANCH   5  10
ATOM      1  S   UNL     1       3.678  -1.828   0.644  0.00  0.00    -0.072 S 
ATOM      3  N   UNL     1       3.224   0.624  -0.017  0.00  0.00    -0.244 NA
ATOM     10  C   UNL     1       2.653  -0.480   0.405  0.00  0.00    +0.084 A 
ATOM     15  C   UNL     1       5.027  -0.877   0.144  0.00  0.00    +0.039 A 
ATOM     16  C   UNL     1       4.587   0.411  -0.171  0.00  0.00    +0.078 A 
ATOM     19  C   UNL     1       6.378  -1.246   0.038  0.00  0.00    +0.017 A 
ATOM     20  C   UNL     1       5.534   1.363  -0.608  0.00  0.00    +0.029 A 
ATOM     23  C   UNL     1       7.295  -0.285  -0.397  0.00  0.00    +0.001 A 
ATOM     24  C   UNL     1       6.880   1.003  -0.716  0.00  0.00    +0.002 A 
ENDBRANCH   5  10
BRANCH   2   9
ATOM      9  C   UNL     1      -1.784   0.816  -0.958  0.00  0.00    +0.121 C 
BRANCH   9  11
ATOM      4  N   UNL     1      -5.078   1.833   0.330  0.00  0.00    -0.360 N 
ATOM     11  C   UNL     1      -3.202   0.957  -0.472  0.00  0.00    -0.008 A 
ATOM     12  C   UNL     1      -4.179  -0.075  -0.399  0.00  0.00    +0.004 A 
ATOM     13  C   UNL     1      -3.784   2.118  -0.017  0.00  0.00    +0.088 A 
ATOM     14  C   UNL     1      -5.346   0.501   0.108  0.00  0.00    +0.047 A 
ATOM     17  C   UNL     1      -4.183  -1.448  -0.715  0.00  0.00    +0.010 A 
ATOM     18  C   UNL     1      -6.521  -0.231   0.314  0.00  0.00    +0.026 A 
ATOM     21  C   UNL     1      -5.351  -2.192  -0.514  0.00  0.00    +0.001 A 
ATOM     22  C   UNL     1      -6.501  -1.591  -0.007  0.00  0.00    +0.002 A 
ATOM     25  H   UNL     1      -5.740   2.502   0.697  0.00  0.00    +0.165 HD
ENDBRANCH   9  11
ENDBRANCH   2   9
TORSDOF 3
