REMARK  Name = 11882964
REMARK  11 active torsions:
REMARK  status: ('A' for Active; 'I' for Inactive)
REMARK    1  A    between atoms: O_2  and  C_16
REMARK    2  A    between atoms: O_3  and  C_21
REMARK    3  A    between atoms: N_8  and  C_27
REMARK    4  A    between atoms: N_10  and  C_30
REMARK    5  A    between atoms: C_11  and  C_19
REMARK    6  A    between atoms: C_13  and  C_21
REMARK    7  A    between atoms: C_13  and  C_22
REMARK    8  A    between atoms: C_14  and  C_24
REMARK    9  A    between atoms: C_24  and  C_25
REMARK   10  A    between atoms: C_27  and  C_30
REMARK   11  A    between atoms: C_28  and  C_29
REMARK                            x       y       z     vdW  Elec       q    Type
REMARK                         _______ _______ _______ _____ _____    ______ ____
ROOT
ATOM      1  S   UNL     1      -1.566   3.255   0.264  0.00  0.00    -0.057 S 
ATOM      5  O   UNL     1       2.701   1.368   0.352  0.00  0.00    -0.275 OA
ATOM      7  N   UNL     1      -0.250   1.028   0.217  0.00  0.00    -0.229 NA
ATOM      9  N   UNL     1       1.046   3.055   0.363  0.00  0.00    -0.264 N 
ATOM     11  C   UNL     1      -3.628  -0.822   0.398  0.00  0.00    -0.019 C 
ATOM     12  C   UNL     1      -4.392   0.332  -0.390  0.00  0.00    +0.011 C 
ATOM     13  C   UNL     1      -5.955   0.184  -0.538  0.00  0.00    +0.021 C 
ATOM     14  C   UNL     1      -2.072  -0.708   0.052  0.00  0.00    +0.054 C 
ATOM     15  C   UNL     1      -4.138  -2.203  -0.089  0.00  0.00    +0.010 C 
ATOM     16  C   UNL     1      -6.293  -1.266  -0.986  0.00  0.00    +0.123 C 
ATOM     17  C   UNL     1      -3.938   1.743   0.086  0.00  0.00    +0.049 C 
ATOM     18  C   UNL     1      -5.654  -2.332  -0.103  0.00  0.00    +0.032 C 
ATOM     19  C   UNL     1      -3.823  -0.733   1.931  0.00  0.00    +0.012 C 
ATOM     20  C   UNL     1      -1.596   0.718   0.159  0.00  0.00    +0.058 A 
ATOM     22  C   UNL     1      -6.452   1.142  -1.658  0.00  0.00    +0.016 C 
ATOM     23  C   UNL     1      -2.449   1.803   0.153  0.00  0.00    +0.015 A 
ATOM     26  C   UNL     1      -0.116   2.335   0.283  0.00  0.00    +0.165 A 
ATOM     28  C   UNL     1       2.354   2.544   0.392  0.00  0.00    +0.222 C 
ATOM     43  H   UNL     1       0.919   4.063   0.397  0.00  0.00    +0.157 HD
ENDROOT
BRANCH  28  29
ATOM     29  C   UNL     1       3.377   3.639   0.481  0.00  0.00    +0.075 C 
ATOM     31  C   UNL     1       4.603   3.183   1.275  0.00  0.00    +0.013 C 
ATOM     32  C   UNL     1       3.733   4.142  -0.920  0.00  0.00    +0.013 C 
ATOM     33  C   UNL     1       5.527   2.254   0.488  0.00  0.00    +0.001 C 
ATOM     34  C   UNL     1       4.653   3.190  -1.682  0.00  0.00    +0.001 C 
ATOM     35  C   UNL     1       5.895   2.838  -0.872  0.00  0.00    +0.000 C 
ENDBRANCH  28  29
BRANCH  16   2
ATOM      2  O   UNL     1      -7.705  -1.471  -1.004  0.00  0.00    -0.391 OA
ATOM     40  H   UNL     1      -7.868  -2.371  -1.334  0.00  0.00    +0.210 HD
ENDBRANCH  16   2
BRANCH  13  21
ATOM     21  C   UNL     1      -6.758   0.571   0.724  0.00  0.00    +0.165 C 
BRANCH  21   3
ATOM      3  O   UNL     1      -8.127   0.399   0.435  0.00  0.00    -0.394 OA
ATOM     41  H   UNL     1      -8.625   0.653   1.230  0.00  0.00    +0.209 HD
ENDBRANCH  21   3
ENDBRANCH  13  21
BRANCH  14  24
ATOM     24  C   UNL     1      -1.171  -1.662   0.848  0.00  0.00    +0.106 C 
BRANCH  24  25
ATOM      4  O   UNL     1       0.372  -1.557  -1.013  0.00  0.00    -0.276 OA
ATOM      8  N   UNL     1       0.904  -2.846   0.846  0.00  0.00    -0.314 N 
ATOM     25  C   UNL     1       0.102  -1.993   0.103  0.00  0.00    +0.214 C 
ATOM     42  H   UNL     1       0.594  -3.144   1.766  0.00  0.00    +0.149 HD
BRANCH   8  27
ATOM     27  C   UNL     1       2.183  -3.332   0.381  0.00  0.00    +0.119 C 
BRANCH  27  30
ATOM     30  C   UNL     1       3.311  -2.399   0.795  0.00  0.00    +0.103 C 
BRANCH  30  10
ATOM      6  O   UNL     1       7.153  -2.555  -0.887  0.00  0.00    -0.377 OA
ATOM     10  N   UNL     1       4.593  -2.904   0.307  0.00  0.00    -0.297 NA
ATOM     36  C   UNL     1       4.741  -2.645  -1.132  0.00  0.00    +0.112 C 
ATOM     37  C   UNL     1       5.708  -2.297   1.046  0.00  0.00    +0.112 C 
ATOM     38  C   UNL     1       6.090  -3.170  -1.616  0.00  0.00    +0.175 C 
ATOM     39  C   UNL     1       7.035  -2.828   0.510  0.00  0.00    +0.175 C 
ENDBRANCH  30  10
ENDBRANCH  27  30
ENDBRANCH   8  27
ENDBRANCH  24  25
ENDBRANCH  14  24
TORSDOF 9
