REMARK  Name = 75537108
REMARK  4 active torsions:
REMARK  status: ('A' for Active; 'I' for Inactive)
REMARK    1  A    between atoms: N_6  and  C_14
REMARK    2  A    between atoms: N_7  and  C_15
REMARK    3  A    between atoms: C_14  and  C_16
REMARK    4  A    between atoms: C_21  and  C_22
REMARK                            x       y       z     vdW  Elec       q    Type
REMARK                         _______ _______ _______ _____ _____    ______ ____
ROOT
ATOM      4  O   UNL     1       5.918  -0.370   0.500  0.00  0.00    -0.252 OA
ATOM      5  N   UNL     1       3.569  -0.384   0.442  0.00  0.00    -0.278 N 
ATOM      6  N   UNL     1       0.963  -1.269  -0.137  0.00  0.00    -0.295 NA
ATOM      7  N   UNL     1       4.633   1.546   0.006  0.00  0.00    -0.287 N 
ATOM      8  C   UNL     1       2.509   0.594   0.308  0.00  0.00    +0.109 C 
ATOM      9  C   UNL     1       1.406   0.060  -0.605  0.00  0.00    +0.109 C 
ATOM     10  C   UNL     1       3.227   1.838  -0.211  0.00  0.00    +0.132 C 
ATOM     11  C   UNL     1       3.232  -1.757   0.753  0.00  0.00    +0.125 C 
ATOM     12  C   UNL     1       2.085  -2.230  -0.143  0.00  0.00    +0.104 C 
ATOM     13  C   UNL     1       4.843   0.193   0.341  0.00  0.00    +0.305 C 
ATOM     15  C   UNL     1       5.668   2.522  -0.254  0.00  0.00    +0.133 C 
ENDROOT
BRANCH   6  14
ATOM     14  C   UNL     1      -0.135  -1.762  -0.969  0.00  0.00    +0.119 C 
BRANCH  14  16
ATOM     16  C   UNL     1      -1.441  -1.097  -0.625  0.00  0.00    -0.033 A 
ATOM     17  C   UNL     1      -2.135  -1.475   0.524  0.00  0.00    +0.005 A 
ATOM     18  C   UNL     1      -1.957  -0.102  -1.455  0.00  0.00    +0.005 A 
ATOM     19  C   UNL     1      -3.344  -0.859   0.843  0.00  0.00    +0.012 A 
ATOM     20  C   UNL     1      -3.167   0.515  -1.136  0.00  0.00    +0.012 A 
ATOM     21  C   UNL     1      -3.861   0.136   0.013  0.00  0.00    +0.055 A 
BRANCH  21  22
ATOM      1  F   UNL     1      -6.117   0.642  -0.598  0.00  0.00    -0.166 F 
ATOM      2  F   UNL     1      -5.045   2.147   0.539  0.00  0.00    -0.166 F 
ATOM      3  F   UNL     1      -5.699   0.315   1.510  0.00  0.00    -0.166 F 
ATOM     22  C   UNL     1      -5.152   0.797   0.356  0.00  0.00    +0.417 C 
ENDBRANCH  21  22
ENDBRANCH  14  16
ENDBRANCH   6  14
TORSDOF 3
