REMARK  Name = 7155434
REMARK  3 active torsions:
REMARK  status: ('A' for Active; 'I' for Inactive)
REMARK    1  A    between atoms: S_1  and  N_5
REMARK    2  A    between atoms: S_1  and  C_18
REMARK    3  A    between atoms: C_14  and  C_19
REMARK                            x       y       z     vdW  Elec       q    Type
REMARK                         _______ _______ _______ _____ _____    ______ ____
ROOT
ATOM      4  O   UNL     1      -2.662  -4.023   0.587  0.00  0.00    -0.268 OA
ATOM      5  N   UNL     1       1.193  -0.942   0.169  0.00  0.00    -0.176 NA
ATOM      6  N   UNL     1      -1.703  -2.082  -0.308  0.00  0.00    -0.311 N 
ATOM      7  C   UNL     1       0.361  -2.179  -1.825  0.00  0.00    +0.025 C 
ATOM      8  C   UNL     1      -0.630  -0.010  -1.245  0.00  0.00    +0.053 C 
ATOM      9  C   UNL     1      -0.190  -0.890  -2.412  0.00  0.00    +0.017 C 
ATOM     10  C   UNL     1       1.564  -1.895  -0.913  0.00  0.00    +0.114 C 
ATOM     11  C   UNL     1       0.589   0.316  -0.360  0.00  0.00    +0.119 C 
ATOM     12  C   UNL     1      -0.768  -2.902  -1.089  0.00  0.00    +0.130 C 
ATOM     13  C   UNL     1      -1.735  -0.677  -0.421  0.00  0.00    +0.034 A 
ATOM     14  C   UNL     1      -2.712   0.030   0.206  0.00  0.00    +0.002 A 
ATOM     15  C   UNL     1      -2.635  -2.797   0.465  0.00  0.00    +0.252 A 
ATOM     16  C   UNL     1      -3.688  -0.675   1.016  0.00  0.00    +0.015 A 
ATOM     17  C   UNL     1      -3.666  -1.999   1.165  0.00  0.00    +0.071 A 
ENDROOT
BRANCH  14  19
ATOM     19  C   UNL     1      -2.799   1.503   0.100  0.00  0.00    -0.016 A 
ATOM     22  C   UNL     1      -2.120   2.303   1.014  0.00  0.00    +0.008 A 
ATOM     23  C   UNL     1      -3.558   2.079  -0.915  0.00  0.00    +0.008 A 
ATOM     26  C   UNL     1      -2.201   3.691   0.913  0.00  0.00    +0.001 A 
ATOM     27  C   UNL     1      -3.639   3.467  -1.015  0.00  0.00    +0.001 A 
ATOM     29  C   UNL     1      -2.961   4.274  -0.101  0.00  0.00    +0.000 A 
ENDBRANCH  14  19
BRANCH   5   1
ATOM      1  S   UNL     1       2.353  -0.741   1.410  0.00  0.00    +0.061 S 
ATOM      2  O   UNL     1       2.964  -2.021   1.700  0.00  0.00    -0.153 OA
ATOM      3  O   UNL     1       1.778   0.066   2.466  0.00  0.00    -0.153 OA
BRANCH   1  18
ATOM     18  C   UNL     1       3.546   0.247   0.562  0.00  0.00    +0.105 A 
ATOM     20  C   UNL     1       3.437   1.627   0.604  0.00  0.00    +0.028 A 
ATOM     21  C   UNL     1       4.571  -0.376  -0.132  0.00  0.00    +0.028 A 
ATOM     24  C   UNL     1       4.379   2.407  -0.067  0.00  0.00    +0.002 A 
ATOM     25  C   UNL     1       5.512   0.404  -0.803  0.00  0.00    +0.002 A 
ATOM     28  C   UNL     1       5.417   1.795  -0.771  0.00  0.00    +0.000 A 
ENDBRANCH   1  18
ENDBRANCH   5   1
TORSDOF 3
