REMARK  Name = 75536413
REMARK  8 active torsions:
REMARK  status: ('A' for Active; 'I' for Inactive)
REMARK    1  A    between atoms: O_2  and  C_11
REMARK    2  A    between atoms: N_6  and  C_15
REMARK    3  A    between atoms: N_7  and  C_18
REMARK    4  A    between atoms: C_9  and  C_14
REMARK    5  A    between atoms: C_10  and  C_15
REMARK    6  A    between atoms: C_14  and  C_16
REMARK    7  A    between atoms: C_18  and  C_19
REMARK    8  A    between atoms: C_24  and  C_25
REMARK                            x       y       z     vdW  Elec       q    Type
REMARK                         _______ _______ _______ _____ _____    ______ ____
ROOT
ATOM      1  O   UNL     1       3.072  -0.327   0.567  0.00  0.00    -0.369 OA
ATOM      9  C   UNL     1       3.054  -1.575  -0.130  0.00  0.00    +0.125 C 
ATOM     10  C   UNL     1       3.603   0.779  -0.175  0.00  0.00    +0.164 C 
ATOM     11  C   UNL     1       5.016   0.478  -0.691  0.00  0.00    +0.145 C 
ATOM     12  C   UNL     1       4.465  -1.972  -0.562  0.00  0.00    +0.034 C 
ATOM     13  C   UNL     1       5.100  -0.869  -1.403  0.00  0.00    +0.036 C 
ENDROOT
BRANCH  11   2
ATOM      2  O   UNL     1       5.914   0.441   0.421  0.00  0.00    -0.389 OA
ATOM     31  H   UNL     1       6.810   0.297   0.071  0.00  0.00    +0.210 HD
ENDBRANCH  11   2
BRANCH   9  14
ATOM     14  C   UNL     1       2.460  -2.617   0.810  0.00  0.00    +0.090 C 
BRANCH  14  16
ATOM      3  O   UNL     1      -0.973  -1.853   1.597  0.00  0.00    -0.358 OA
ATOM      8  N   UNL     1       0.395  -1.721   1.803  0.00  0.00    -0.083 NA
ATOM     16  C   UNL     1       0.961  -2.511   0.885  0.00  0.00    +0.086 A 
ATOM     17  C   UNL     1       0.009  -3.159   0.080  0.00  0.00    +0.072 A 
ATOM     19  C   UNL     1      -1.190  -2.712   0.568  0.00  0.00    +0.151 A 
BRANCH  19  18
ATOM     18  C   UNL     1      -2.591  -2.968   0.213  0.00  0.00    +0.161 C 
BRANCH  18   7
ATOM      4  O   UNL     1      -5.169  -0.322  -1.778  0.00  0.00    -0.377 OA
ATOM      7  N   UNL     1      -3.322  -1.758  -0.158  0.00  0.00    -0.291 NA
ATOM     20  C   UNL     1      -2.982  -1.341  -1.525  0.00  0.00    +0.113 C 
ATOM     21  C   UNL     1      -4.772  -1.968  -0.041  0.00  0.00    +0.113 C 
ATOM     22  C   UNL     1      -3.766  -0.084  -1.893  0.00  0.00    +0.175 C 
ATOM     23  C   UNL     1      -5.513  -0.697  -0.444  0.00  0.00    +0.175 C 
ENDBRANCH  18   7
ENDBRANCH  19  18
ENDBRANCH  14  16
ENDBRANCH   9  14
BRANCH  10  15
ATOM     15  C   UNL     1       2.643   1.210  -1.281  0.00  0.00    +0.138 C 
BRANCH  15   6
ATOM      5  O   UNL     1       1.668   3.727  -0.303  0.00  0.00    -0.270 OA
ATOM      6  N   UNL     1       1.338   1.475  -0.755  0.00  0.00    -0.309 N 
ATOM     24  C   UNL     1       0.947   2.733  -0.300  0.00  0.00    +0.244 C 
ATOM     32  H   UNL     1       0.679   0.705  -0.762  0.00  0.00    +0.149 HD
BRANCH  24  25
ATOM     25  C   UNL     1      -0.432   2.838   0.242  0.00  0.00    +0.037 A 
ATOM     26  C   UNL     1      -1.111   4.055   0.192  0.00  0.00    +0.013 A 
ATOM     27  C   UNL     1      -1.049   1.718   0.799  0.00  0.00    +0.013 A 
ATOM     28  C   UNL     1      -2.406   4.153   0.700  0.00  0.00    +0.001 A 
ATOM     29  C   UNL     1      -2.345   1.815   1.306  0.00  0.00    +0.001 A 
ATOM     30  C   UNL     1      -3.023   3.033   1.257  0.00  0.00    +0.000 A 
ENDBRANCH  24  25
ENDBRANCH  15   6
ENDBRANCH  10  15
TORSDOF 8
