REMARK  Name = 51137546
REMARK  8 active torsions:
REMARK  status: ('A' for Active; 'I' for Inactive)
REMARK    1  A    between atoms: N_2  and  C_11
REMARK    2  A    between atoms: N_3  and  C_20
REMARK    3  A    between atoms: N_6  and  C_26
REMARK    4  A    between atoms: N_6  and  C_29
REMARK    5  A    between atoms: N_6  and  C_30
REMARK    6  A    between atoms: C_7  and  C_12
REMARK    7  A    between atoms: C_11  and  C_13
REMARK    8  A    between atoms: C_18  and  C_23
REMARK                            x       y       z     vdW  Elec       q    Type
REMARK                         _______ _______ _______ _____ _____    ______ ____
ROOT
ATOM      2  N   UNL     1      -2.033  -0.510   0.047  0.00  0.00    -0.297 NA
ATOM      7  C   UNL     1      -0.281  -1.980   0.568  0.00  0.00    +0.092 C 
ATOM      8  C   UNL     1      -0.916  -1.206  -0.596  0.00  0.00    +0.097 C 
ATOM      9  C   UNL     1      -0.680  -1.189   1.826  0.00  0.00    +0.029 C 
ATOM     10  C   UNL     1      -1.488  -0.006   1.308  0.00  0.00    +0.085 C 
ENDROOT
BRANCH   7  12
ATOM      1  O   UNL     1       1.977  -1.072   0.298  0.00  0.00    -0.420 OA
ATOM      4  N   UNL     1       1.889  -3.307   0.319  0.00  0.00    -0.112 NA
ATOM      5  N   UNL     1       3.211  -2.933   0.162  0.00  0.00    -0.107 NA
ATOM     12  C   UNL     1       1.206  -2.189   0.394  0.00  0.00    +0.222 A 
ATOM     18  C   UNL     1       3.214  -1.621   0.156  0.00  0.00    +0.248 A 
BRANCH  18  23
ATOM     23  C   UNL     1       4.300  -0.693   0.024  0.00  0.00    +0.039 A 
ATOM     24  C   UNL     1       5.605  -1.164  -0.126  0.00  0.00    +0.015 A 
ATOM     25  C   UNL     1       4.052   0.679   0.046  0.00  0.00    +0.015 A 
ATOM     26  C   UNL     1       6.413   1.111  -0.233  0.00  0.00    +0.029 A 
ATOM     27  C   UNL     1       6.661  -0.262  -0.255  0.00  0.00    +0.024 A 
ATOM     28  C   UNL     1       5.108   1.581  -0.083  0.00  0.00    +0.024 A 
BRANCH  26   6
ATOM      6  N   UNL     1       7.481   2.022  -0.361  0.00  0.00    -0.336 N 
ATOM     29  C   UNL     1       8.840   1.544  -0.517  0.00  0.00    +0.129 C 
ATOM     30  C   UNL     1       7.233   3.451  -0.347  0.00  0.00    +0.129 C 
ENDBRANCH  26   6
ENDBRANCH  18  23
ENDBRANCH   7  12
BRANCH   2  11
ATOM     11  C   UNL     1      -2.578   0.552  -0.785  0.00  0.00    +0.121 C 
BRANCH  11  13
ATOM      3  N   UNL     1      -5.622   2.109   0.575  0.00  0.00    -0.349 N 
ATOM     13  C   UNL     1      -3.957   0.961  -0.340  0.00  0.00    -0.008 A 
ATOM     14  C   UNL     1      -5.167   0.249  -0.570  0.00  0.00    +0.004 A 
ATOM     15  C   UNL     1      -4.269   2.100   0.366  0.00  0.00    +0.091 A 
ATOM     16  C   UNL     1      -6.197   0.991   0.014  0.00  0.00    +0.049 A 
ATOM     17  C   UNL     1      -5.487  -0.959  -1.221  0.00  0.00    +0.010 A 
ATOM     19  C   UNL     1      -7.535   0.583  -0.020  0.00  0.00    +0.026 A 
ATOM     20  C   UNL     1      -6.330   3.152   1.285  0.00  0.00    +0.149 C 
ATOM     21  C   UNL     1      -6.822  -1.379  -1.264  0.00  0.00    +0.001 A 
ATOM     22  C   UNL     1      -7.828  -0.618  -0.672  0.00  0.00    +0.002 A 
ENDBRANCH  11  13
ENDBRANCH   2  11
TORSDOF 5
