REMARK  Name = 28961662
REMARK  10 active torsions:
REMARK  status: ('A' for Active; 'I' for Inactive)
REMARK    1  A    between atoms: O_2  and  C_11
REMARK    2  A    between atoms: O_3  and  C_18
REMARK    3  A    between atoms: N_5  and  C_9
REMARK    4  A    between atoms: N_6  and  C_19
REMARK    5  A    between atoms: N_7  and  C_15
REMARK    6  A    between atoms: N_8  and  C_21
REMARK    7  A    between atoms: C_10  and  C_15
REMARK    8  A    between atoms: C_12  and  C_18
REMARK    9  A    between atoms: C_21  and  C_22
REMARK   10  A    between atoms: C_21  and  C_23
REMARK                            x       y       z     vdW  Elec       q    Type
REMARK                         _______ _______ _______ _____ _____    ______ ____
ROOT
ATOM      1  O   UNL     1       0.787  -1.530  -0.603  0.00  0.00    -0.365 OA
ATOM      9  C   UNL     1      -1.485  -0.820  -0.644  0.00  0.00    +0.118 C 
ATOM     10  C   UNL     1      -0.029  -0.338  -0.648  0.00  0.00    +0.155 C 
ATOM     11  C   UNL     1      -1.396  -2.171   0.049  0.00  0.00    +0.165 C 
ATOM     12  C   UNL     1      -0.070  -2.683  -0.501  0.00  0.00    +0.174 C 
ENDROOT
BRANCH   9   5
ATOM      5  N   UNL     1      -2.470   0.103  -0.085  0.00  0.00    -0.292 NA
ATOM      6  N   UNL     1      -4.855   1.729  -0.243  0.00  0.00    -0.303 NA
ATOM     13  C   UNL     1      -2.483   1.367  -0.832  0.00  0.00    +0.100 C 
ATOM     14  C   UNL     1      -3.807  -0.502  -0.077  0.00  0.00    +0.100 C 
ATOM     16  C   UNL     1      -3.518   2.335  -0.250  0.00  0.00    +0.099 C 
ATOM     17  C   UNL     1      -4.841   0.467   0.506  0.00  0.00    +0.099 C 
ATOM     19  C   UNL     1      -5.841   2.653   0.314  0.00  0.00    +0.105 C 
ENDBRANCH   9   5
BRANCH  11   2
ATOM      2  O   UNL     1      -1.323  -2.028   1.462  0.00  0.00    -0.388 OA
ATOM     24  H   UNL     1      -1.377  -2.918   1.851  0.00  0.00    +0.210 HD
ENDBRANCH  11   2
BRANCH  10  15
ATOM     15  C   UNL     1       0.402   0.549   0.515  0.00  0.00    +0.139 C 
BRANCH  15   7
ATOM      4  O   UNL     1       3.139  -0.260   0.939  0.00  0.00    -0.253 OA
ATOM      7  N   UNL     1       1.581   1.292   0.188  0.00  0.00    -0.297 N 
ATOM      8  N   UNL     1       3.839   1.749   0.013  0.00  0.00    -0.297 N 
ATOM     20  C   UNL     1       2.880   0.828   0.426  0.00  0.00    +0.300 C 
ATOM     25  H   UNL     1       1.469   2.201  -0.250  0.00  0.00    +0.150 HD
ATOM     27  H   UNL     1       3.527   2.588  -0.468  0.00  0.00    +0.150 HD
BRANCH   8  21
ATOM     21  C   UNL     1       5.258   1.515   0.146  0.00  0.00    +0.068 C 
ATOM     22  C   UNL     1       5.992   2.830   0.373  0.00  0.00    +0.027 C 
ATOM     23  C   UNL     1       5.797   0.786  -1.078  0.00  0.00    +0.027 C 
ENDBRANCH   8  21
ENDBRANCH  15   7
ENDBRANCH  10  15
BRANCH  12  18
ATOM     18  C   UNL     1       0.618  -3.746   0.336  0.00  0.00    +0.190 C 
BRANCH  18   3
ATOM      3  O   UNL     1       1.825  -4.126  -0.307  0.00  0.00    -0.392 OA
ATOM     26  H   UNL     1       2.242  -4.808   0.246  0.00  0.00    +0.210 HD
ENDBRANCH  18   3
ENDBRANCH  12  18
TORSDOF 7
