REMARK  Name = 75367813
REMARK  4 active torsions:
REMARK  status: ('A' for Active; 'I' for Inactive)
REMARK    1  A    between atoms: O_2  and  C_5
REMARK    2  A    between atoms: O_2  and  C_11
REMARK    3  A    between atoms: C_10  and  C_12
REMARK    4  A    between atoms: C_11  and  C_13
REMARK                            x       y       z     vdW  Elec       q    Type
REMARK                         _______ _______ _______ _____ _____    ______ ____
ROOT
ATOM      1  O   UNL     1       0.873  -3.756  -0.740  0.00  0.00    -0.376 OA
ATOM      3  O   UNL     1       4.369  -0.660   0.487  0.00  0.00    -0.270 OA
ATOM      4  N   UNL     1       2.080  -1.162   0.541  0.00  0.00    -0.293 N 
ATOM      5  C   UNL     1      -0.341  -1.780   0.018  0.00  0.00    +0.161 C 
ATOM      6  C   UNL     1       0.694  -0.709   0.375  0.00  0.00    +0.142 C 
ATOM      7  C   UNL     1       2.318  -2.574   0.845  0.00  0.00    +0.136 C 
ATOM      8  C   UNL     1       0.078  -2.652  -1.163  0.00  0.00    +0.193 C 
ATOM      9  C   UNL     1       2.220  -3.429  -0.413  0.00  0.00    +0.179 C 
ATOM     10  C   UNL     1       3.191  -0.316   0.388  0.00  0.00    +0.247 C 
ENDROOT
BRANCH  10  12
ATOM     12  C   UNL     1       2.951   1.103   0.084  0.00  0.00    +0.037 A 
ATOM     14  C   UNL     1       2.811   2.025   1.121  0.00  0.00    +0.013 A 
ATOM     15  C   UNL     1       2.866   1.527  -1.242  0.00  0.00    +0.013 A 
ATOM     18  C   UNL     1       2.585   3.371   0.833  0.00  0.00    +0.001 A 
ATOM     19  C   UNL     1       2.640   2.873  -1.531  0.00  0.00    +0.001 A 
ATOM     22  C   UNL     1       2.500   3.795  -0.493  0.00  0.00    +0.000 A 
ENDBRANCH  10  12
BRANCH   5   2
ATOM      2  O   UNL     1      -1.547  -1.091  -0.317  0.00  0.00    -0.368 OA
BRANCH   2  11
ATOM     11  C   UNL     1      -2.253  -0.694   0.848  0.00  0.00    +0.195 C 
BRANCH  11  13
ATOM     13  C   UNL     1      -3.507   0.022   0.439  0.00  0.00    -0.022 A 
ATOM     16  C   UNL     1      -3.492   1.405   0.254  0.00  0.00    +0.006 A 
ATOM     17  C   UNL     1      -4.688  -0.695   0.245  0.00  0.00    +0.006 A 
ATOM     20  C   UNL     1      -4.658   2.070  -0.125  0.00  0.00    +0.000 A 
ATOM     21  C   UNL     1      -5.853  -0.029  -0.134  0.00  0.00    +0.000 A 
ATOM     23  C   UNL     1      -5.838   1.353  -0.319  0.00  0.00    +0.000 A 
ENDBRANCH  11  13
ENDBRANCH   2  11
ENDBRANCH   5   2
TORSDOF 4
