REMARK  Name = 38027396
REMARK  16 active torsions:
REMARK  status: ('A' for Active; 'I' for Inactive)
REMARK    1  A    between atoms: S_1  and  N_5
REMARK    2  A    between atoms: S_1  and  C_22
REMARK    3  A    between atoms: N_5  and  C_16
REMARK    4  A    between atoms: N_6  and  C_23
REMARK    5  A    between atoms: N_7  and  C_24
REMARK    6  A    between atoms: N_7  and  C_30
REMARK    7  A    between atoms: N_7  and  C_31
REMARK    8  A    between atoms: C_9  and  C_13
REMARK    9  A    between atoms: C_10  and  C_16
REMARK   10  A    between atoms: C_12  and  C_17
REMARK   11  A    between atoms: C_13  and  C_18
REMARK   12  A    between atoms: C_13  and  C_19
REMARK   13  A    between atoms: C_14  and  C_20
REMARK   14  A    between atoms: C_17  and  C_21
REMARK   15  A    between atoms: C_23  and  C_24
REMARK   16  A    between atoms: C_29  and  C_32
REMARK                            x       y       z     vdW  Elec       q    Type
REMARK                         _______ _______ _______ _____ _____    ______ ____
ROOT
ATOM      9  C   UNL     1       1.685   0.660  -1.194  0.00  0.00    +0.000 C 
ATOM     10  C   UNL     1       3.202   0.402  -1.018  0.00  0.00    +0.030 C 
ATOM     11  C   UNL     1       1.393   2.168  -1.194  0.00  0.00    +0.012 C 
ATOM     12  C   UNL     1       1.856   2.850   0.108  0.00  0.00    +0.023 C 
ATOM     14  C   UNL     1       3.261   2.432   0.494  0.00  0.00    -0.073 C 
ATOM     15  C   UNL     1       3.851   1.343  -0.030  0.00  0.00    -0.023 C 
ATOM     20  C   UNL     1       3.990   3.321   1.462  0.00  0.00    +0.039 C 
ENDROOT
BRANCH   9  13
ATOM     13  C   UNL     1       1.147   0.028  -2.482  0.00  0.00    -0.013 C 
ATOM     18  C   UNL     1      -0.366   0.208  -2.571  0.00  0.00    +0.007 C 
ATOM     19  C   UNL     1       1.836   0.634  -3.700  0.00  0.00    +0.007 C 
ENDBRANCH   9  13
BRANCH  10  16
ATOM     16  C   UNL     1       3.472  -1.047  -0.597  0.00  0.00    +0.113 C 
BRANCH  16   5
ATOM      5  N   UNL     1       2.908  -1.271   0.744  0.00  0.00    -0.189 NA
ATOM     33  H   UNL     1       3.230  -0.645   1.492  0.00  0.00    +0.148 HD
BRANCH   5   1
ATOM      1  S   UNL     1       2.347  -2.816   1.190  0.00  0.00    +0.058 S 
ATOM      3  O   UNL     1       2.380  -2.938   2.635  0.00  0.00    -0.153 OA
ATOM      4  O   UNL     1       2.991  -3.814   0.358  0.00  0.00    -0.153 OA
BRANCH   1  22
ATOM     22  C   UNL     1       0.653  -2.741   0.689  0.00  0.00    +0.105 A 
ATOM     25  C   UNL     1       0.288  -3.137  -0.598  0.00  0.00    +0.030 A 
ATOM     26  C   UNL     1      -0.319  -2.287   1.580  0.00  0.00    +0.030 A 
ATOM     27  C   UNL     1      -1.048  -3.079  -0.994  0.00  0.00    +0.021 A 
ATOM     28  C   UNL     1      -1.655  -2.229   1.185  0.00  0.00    +0.021 A 
ATOM     29  C   UNL     1      -2.020  -2.624  -0.102  0.00  0.00    +0.052 A 
BRANCH  29  32
ATOM      8  N   UNL     1      -4.500  -2.514  -0.837  0.00  0.00    -0.191 NA
ATOM     32  C   UNL     1      -3.389  -2.564  -0.507  0.00  0.00    +0.099 C 
ENDBRANCH  29  32
ENDBRANCH   1  22
ENDBRANCH   5   1
ENDBRANCH  16   5
ENDBRANCH  10  16
BRANCH  12  17
ATOM     17  C   UNL     1       0.871   2.585   1.251  0.00  0.00    +0.103 C 
BRANCH  17  21
ATOM      2  O   UNL     1      -0.820   3.887   0.111  0.00  0.00    -0.276 OA
ATOM      6  N   UNL     1      -1.466   2.170   1.538  0.00  0.00    -0.314 N 
ATOM     21  C   UNL     1      -0.543   2.975   0.885  0.00  0.00    +0.214 C 
ATOM     34  H   UNL     1      -1.141   1.436   2.159  0.00  0.00    +0.149 HD
BRANCH   6  23
ATOM     23  C   UNL     1      -2.894   2.318   1.377  0.00  0.00    +0.119 C 
BRANCH  23  24
ATOM     24  C   UNL     1      -3.412   1.462   0.230  0.00  0.00    +0.102 C 
BRANCH  24   7
ATOM      7  N   UNL     1      -4.856   1.604   0.104  0.00  0.00    -0.307 NA
ATOM     30  C   UNL     1      -5.544   0.801   1.118  0.00  0.00    +0.104 C 
ATOM     31  C   UNL     1      -5.299   1.214  -1.236  0.00  0.00    +0.104 C 
ENDBRANCH  24   7
ENDBRANCH  23  24
ENDBRANCH   6  23
ENDBRANCH  17  21
ENDBRANCH  12  17
TORSDOF 11
