REMARK  Name = 40779205
REMARK  6 active torsions:
REMARK  status: ('A' for Active; 'I' for Inactive)
REMARK    1  A    between atoms: N_3  and  C_18
REMARK    2  A    between atoms: N_4  and  C_14
REMARK    3  A    between atoms: N_6  and  C_20
REMARK    4  A    between atoms: C_8  and  C_15
REMARK    5  A    between atoms: C_9  and  C_14
REMARK    6  A    between atoms: C_17  and  C_26
REMARK                            x       y       z     vdW  Elec       q    Type
REMARK                         _______ _______ _______ _____ _____    ______ ____
ROOT
ATOM      2  N   UNL     1      -0.270   3.368  -0.656  0.00  0.00    -0.297 NA
ATOM      7  C   UNL     1       0.685   2.289   1.514  0.00  0.00    +0.002 C 
ATOM      8  C   UNL     1       1.814   2.492   0.465  0.00  0.00    +0.055 C 
ATOM      9  C   UNL     1      -1.100   2.199  -0.262  0.00  0.00    +0.074 C 
ATOM     10  C   UNL     1      -0.435   1.425   0.897  0.00  0.00    +0.024 C 
ATOM     11  C   UNL     1       0.081   3.682   1.794  0.00  0.00    +0.019 C 
ATOM     12  C   UNL     1       1.138   2.946  -0.860  0.00  0.00    +0.094 C 
ATOM     13  C   UNL     1      -0.302   4.345   0.459  0.00  0.00    +0.085 C 
ENDROOT
BRANCH   8  15
ATOM      3  N   UNL     1       4.102   1.566  -0.122  0.00  0.00    -0.270 N 
ATOM      5  N   UNL     1       4.814   0.435  -0.262  0.00  0.00    -0.171 NA
ATOM     15  C   UNL     1       2.806   1.359   0.249  0.00  0.00    +0.044 A 
ATOM     16  C   UNL     1       2.660  -0.003   0.360  0.00  0.00    +0.053 A 
ATOM     17  C   UNL     1       3.929  -0.520   0.034  0.00  0.00    +0.093 A 
ATOM     18  C   UNL     1       4.742   2.837  -0.369  0.00  0.00    +0.172 C 
BRANCH  17  26
ATOM     26  C   UNL     1       4.309  -1.908  -0.001  0.00  0.00    +0.002 A 
ATOM     27  C   UNL     1       3.362  -2.882  -0.318  0.00  0.00    +0.010 A 
ATOM     28  C   UNL     1       5.624  -2.279   0.280  0.00  0.00    +0.010 A 
ATOM     29  C   UNL     1       3.730  -4.227  -0.352  0.00  0.00    +0.001 A 
ATOM     30  C   UNL     1       5.992  -3.624   0.246  0.00  0.00    +0.001 A 
ATOM     31  C   UNL     1       5.045  -4.598  -0.070  0.00  0.00    +0.000 A 
ENDBRANCH  17  26
ENDBRANCH   8  15
BRANCH   9  14
ATOM     14  C   UNL     1      -1.421   1.287  -1.447  0.00  0.00    +0.124 C 
BRANCH  14   4
ATOM      1  O   UNL     1      -4.295   1.362  -1.517  0.00  0.00    -0.253 OA
ATOM      4  N   UNL     1      -2.314   0.240  -1.057  0.00  0.00    -0.298 N 
ATOM      6  N   UNL     1      -4.342  -0.805  -0.685  0.00  0.00    -0.297 N 
ATOM     19  C   UNL     1      -3.708   0.355  -1.122  0.00  0.00    +0.300 C 
ATOM     32  H   UNL     1      -1.919  -0.630  -0.714  0.00  0.00    +0.150 HD
ATOM     33  H   UNL     1      -3.762  -1.550  -0.310  0.00  0.00    +0.151 HD
BRANCH   6  20
ATOM     20  C   UNL     1      -5.779  -0.956  -0.648  0.00  0.00    +0.074 C 
ATOM     21  C   UNL     1      -6.188  -2.409  -0.912  0.00  0.00    +0.022 C 
ATOM     22  C   UNL     1      -6.352  -0.451   0.680  0.00  0.00    +0.022 C 
ATOM     23  C   UNL     1      -5.857  -3.332   0.261  0.00  0.00    +0.002 C 
ATOM     24  C   UNL     1      -6.021  -1.377   1.851  0.00  0.00    +0.002 C 
ATOM     25  C   UNL     1      -6.447  -2.814   1.569  0.00  0.00    +0.000 C 
ENDBRANCH   6  20
ENDBRANCH  14   4
ENDBRANCH   9  14
TORSDOF 5
