REMARK  Name = 26744691
REMARK  9 active torsions:
REMARK  status: ('A' for Active; 'I' for Inactive)
REMARK    1  A    between atoms: O_3  and  C_12
REMARK    2  A    between atoms: O_4  and  C_13
REMARK    3  A    between atoms: N_6  and  C_8
REMARK    4  A    between atoms: N_7  and  C_16
REMARK    5  A    between atoms: N_7  and  C_18
REMARK    6  A    between atoms: C_9  and  C_15
REMARK    7  A    between atoms: C_14  and  C_16
REMARK    8  A    between atoms: C_15  and  C_17
REMARK    9  A    between atoms: C_18  and  C_19
REMARK                            x       y       z     vdW  Elec       q    Type
REMARK                         _______ _______ _______ _____ _____    ______ ____
ROOT
ATOM      2  O   UNL     1      -1.579   0.242  -0.957  0.00  0.00    -0.366 OA
ATOM      9  C   UNL     1      -2.286   1.141  -0.084  0.00  0.00    +0.158 C 
ATOM     12  C   UNL     1      -1.221   1.803   0.774  0.00  0.00    +0.175 C 
ATOM     13  C   UNL     1      -0.072   1.924  -0.206  0.00  0.00    +0.175 C 
ATOM     14  C   UNL     1      -0.183   0.618  -0.986  0.00  0.00    +0.163 C 
ENDROOT
BRANCH  12   3
ATOM      3  O   UNL     1      -1.651   3.046   1.287  0.00  0.00    -0.387 OA
ATOM     26  H   UNL     1      -0.887   3.461   1.724  0.00  0.00    +0.210 HD
ENDBRANCH  12   3
BRANCH  13   4
ATOM      4  O   UNL     1      -0.306   3.002  -1.112  0.00  0.00    -0.387 OA
ATOM     27  H   UNL     1       0.437   3.019  -1.740  0.00  0.00    +0.210 HD
ENDBRANCH  13   4
BRANCH   9  15
ATOM     15  C   UNL     1      -3.314   0.369   0.722  0.00  0.00    +0.130 C 
BRANCH  15  17
ATOM      5  O   UNL     1      -4.701   0.354  -1.262  0.00  0.00    -0.276 OA
ATOM      6  N   UNL     1      -5.500  -0.633   0.681  0.00  0.00    -0.312 N 
ATOM     17  C   UNL     1      -4.560   0.045  -0.082  0.00  0.00    +0.216 C 
ATOM     25  H   UNL     1      -5.302  -0.843   1.656  0.00  0.00    +0.149 HD
BRANCH   6   8
ATOM      8  C   UNL     1      -6.765  -1.053   0.151  0.00  0.00    +0.073 C 
ATOM     10  C   UNL     1      -6.901  -2.343  -0.603  0.00  0.00    +0.024 C 
ATOM     11  C   UNL     1      -7.519  -2.201   0.757  0.00  0.00    +0.024 C 
ENDBRANCH   6   8
ENDBRANCH  15  17
ENDBRANCH   9  15
BRANCH  14  16
ATOM     16  C   UNL     1       0.619  -0.517  -0.364  0.00  0.00    +0.115 C 
BRANCH  16   7
ATOM      7  N   UNL     1       2.032  -0.175  -0.278  0.00  0.00    -0.309 NA
ATOM     28  H   UNL     1       2.388   0.020  -1.214  0.00  0.00    +0.122 HD
BRANCH   7  18
ATOM     18  C   UNL     1       2.795  -1.258   0.327  0.00  0.00    +0.116 C 
BRANCH  18  19
ATOM      1 CL   UNL     1       7.432  -0.723  -1.990  0.00  0.00    -0.084 Cl
ATOM     19  C   UNL     1       4.258  -0.920   0.436  0.00  0.00    -0.032 A 
ATOM     20  C   UNL     1       5.072  -0.971  -0.695  0.00  0.00    +0.025 A 
ATOM     21  C   UNL     1       4.799  -0.556   1.669  0.00  0.00    +0.005 A 
ATOM     22  C   UNL     1       6.427  -0.658  -0.594  0.00  0.00    +0.041 A 
ATOM     23  C   UNL     1       6.154  -0.243   1.770  0.00  0.00    +0.002 A 
ATOM     24  C   UNL     1       6.969  -0.293   0.639  0.00  0.00    +0.020 A 
ENDBRANCH  18  19
ENDBRANCH   7  18
ENDBRANCH  16   7
ENDBRANCH  14  16
TORSDOF 9
