REMARK  Name = 38027244
REMARK  13 active torsions:
REMARK  status: ('A' for Active; 'I' for Inactive)
REMARK    1  A    between atoms: S_1  and  N_7
REMARK    2  A    between atoms: S_1  and  C_27
REMARK    3  A    between atoms: N_6  and  C_20
REMARK    4  A    between atoms: N_7  and  C_17
REMARK    5  A    between atoms: N_8  and  C_32
REMARK    6  A    between atoms: C_9  and  C_13
REMARK    7  A    between atoms: C_10  and  C_17
REMARK    8  A    between atoms: C_12  and  C_16
REMARK    9  A    between atoms: C_13  and  C_18
REMARK   10  A    between atoms: C_13  and  C_19
REMARK   11  A    between atoms: C_14  and  C_21
REMARK   12  A    between atoms: C_16  and  C_22
REMARK   13  A    between atoms: C_33  and  C_34
REMARK                            x       y       z     vdW  Elec       q    Type
REMARK                         _______ _______ _______ _____ _____    ______ ____
ROOT
ATOM      9  C   UNL     1       1.825  -0.482  -1.307  0.00  0.00    +0.000 C 
ATOM     10  C   UNL     1       3.096  -1.317  -1.012  0.00  0.00    +0.030 C 
ATOM     11  C   UNL     1       2.206   0.955  -1.695  0.00  0.00    +0.012 C 
ATOM     12  C   UNL     1       3.009   1.663  -0.588  0.00  0.00    +0.023 C 
ATOM     14  C   UNL     1       4.125   0.788  -0.053  0.00  0.00    -0.073 C 
ATOM     15  C   UNL     1       4.154  -0.539  -0.265  0.00  0.00    -0.023 C 
ATOM     21  C   UNL     1       5.232   1.482   0.691  0.00  0.00    +0.039 C 
ENDROOT
BRANCH   9  13
ATOM     13  C   UNL     1       0.977  -1.111  -2.417  0.00  0.00    -0.013 C 
ATOM     18  C   UNL     1      -0.316  -0.326  -2.609  0.00  0.00    +0.007 C 
ATOM     19  C   UNL     1       1.768  -1.177  -3.720  0.00  0.00    +0.007 C 
ENDBRANCH   9  13
BRANCH  12  16
ATOM     16  C   UNL     1       2.090   2.134   0.546  0.00  0.00    +0.103 C 
BRANCH  16  22
ATOM      2  O   UNL     1       1.659   4.196  -0.645  0.00  0.00    -0.276 OA
ATOM      6  N   UNL     1       0.050   3.353   0.804  0.00  0.00    -0.312 N 
ATOM     22  C   UNL     1       1.273   3.343   0.150  0.00  0.00    +0.214 C 
ATOM     35  H   UNL     1      -0.191   2.576   1.413  0.00  0.00    +0.149 HD
BRANCH   6  20
ATOM     20  C   UNL     1      -0.934   4.391   0.620  0.00  0.00    +0.073 C 
ATOM     23  C   UNL     1      -1.819   4.552   1.849  0.00  0.00    +0.022 C 
ATOM     24  C   UNL     1      -1.935   4.038  -0.473  0.00  0.00    +0.022 C 
ATOM     25  C   UNL     1      -2.872   3.456   1.710  0.00  0.00    +0.002 C 
ATOM     26  C   UNL     1      -2.976   3.156   0.215  0.00  0.00    +0.002 C 
ENDBRANCH   6  20
ENDBRANCH  16  22
ENDBRANCH  12  16
BRANCH  10  17
ATOM     17  C   UNL     1       2.753  -2.591  -0.232  0.00  0.00    +0.113 C 
BRANCH  17   7
ATOM      7  N   UNL     1       2.246  -2.219   1.099  0.00  0.00    -0.189 NA
ATOM     36  H   UNL     1       2.857  -1.632   1.679  0.00  0.00    +0.148 HD
BRANCH   7   1
ATOM      1  S   UNL     1       1.113  -3.212   1.893  0.00  0.00    +0.058 S 
ATOM      3  O   UNL     1       1.197  -2.983   3.324  0.00  0.00    -0.153 OA
ATOM      4  O   UNL     1       1.208  -4.559   1.364  0.00  0.00    -0.153 OA
BRANCH   1  27
ATOM     27  C   UNL     1      -0.418  -2.539   1.322  0.00  0.00    +0.105 A 
ATOM     28  C   UNL     1      -1.009  -3.038   0.161  0.00  0.00    +0.030 A 
ATOM     29  C   UNL     1      -1.036  -1.510   2.033  0.00  0.00    +0.030 A 
ATOM     30  C   UNL     1      -2.218  -2.507  -0.289  0.00  0.00    +0.025 A 
ATOM     31  C   UNL     1      -2.244  -0.979   1.582  0.00  0.00    +0.025 A 
ATOM     32  C   UNL     1      -2.835  -1.478   0.421  0.00  0.00    +0.033 A 
BRANCH  32   8
ATOM      5  O   UNL     1      -4.505  -2.184  -1.983  0.00  0.00    -0.276 OA
ATOM      8  N   UNL     1      -4.044  -0.947  -0.030  0.00  0.00    -0.286 N 
ATOM     33  C   UNL     1      -4.782  -1.314  -1.163  0.00  0.00    +0.214 C 
ATOM     34  C   UNL     1      -6.040  -0.495  -1.302  0.00  0.00    +0.109 C 
ATOM     37  H   UNL     1      -4.429  -0.198   0.542  0.00  0.00    +0.155 HD
ENDBRANCH  32   8
ENDBRANCH   1  27
ENDBRANCH   7   1
ENDBRANCH  17   7
ENDBRANCH  10  17
TORSDOF 9
