REMARK  Name = 26742999
REMARK  9 active torsions:
REMARK  status: ('A' for Active; 'I' for Inactive)
REMARK    1  A    between atoms: N_6  and  C_14
REMARK    2  A    between atoms: C_9  and  C_12
REMARK    3  A    between atoms: C_10  and  C_16
REMARK    4  A    between atoms: C_12  and  C_21
REMARK    5  A    between atoms: C_16  and  C_22
REMARK    6  A    between atoms: C_28  and  C_30
REMARK    7  A    between atoms: C_30  and  C_33
REMARK    8  A    between atoms: C_33  and  C_34
REMARK    9  A    between atoms: C_34  and  C_35
REMARK                            x       y       z     vdW  Elec       q    Type
REMARK                         _______ _______ _______ _____ _____    ______ ____
ROOT
ATOM      1  O   UNL     1      -0.347   2.865   1.796  0.00  0.00    -0.276 OA
ATOM      4  N   UNL     1      -1.799   1.985   0.211  0.00  0.00    -0.301 N 
ATOM     14  C   UNL     1      -4.269   0.516  -0.145  0.00  0.00    +0.095 C 
ATOM     17  C   UNL     1      -3.944   1.236   1.167  0.00  0.00    +0.044 C 
ATOM     18  C   UNL     1      -2.982   0.113  -0.874  0.00  0.00    +0.044 C 
ATOM     19  C   UNL     1      -3.000   2.412   0.932  0.00  0.00    +0.110 C 
ATOM     20  C   UNL     1      -2.057   1.313  -1.069  0.00  0.00    +0.110 C 
ATOM     21  C   UNL     1      -0.538   2.265   0.736  0.00  0.00    +0.216 C 
ENDROOT
BRANCH  14   6
ATOM      3  O   UNL     1      -3.696  -1.955   1.486  0.00  0.00    -0.247 OA
ATOM      6  N   UNL     1      -5.104  -0.634   0.098  0.00  0.00    -0.289 N 
ATOM      7  N   UNL     1      -5.868  -2.632   0.841  0.00  0.00    -0.306 N 
ATOM     23  C   UNL     1      -6.397  -0.817  -0.407  0.00  0.00    +0.070 A 
ATOM     24  C   UNL     1      -4.744  -1.759   0.887  0.00  0.00    +0.328 A 
ATOM     25  C   UNL     1      -6.861  -2.048   0.054  0.00  0.00    +0.067 A 
ATOM     27  C   UNL     1      -7.172  -0.011  -1.214  0.00  0.00    +0.028 A 
ATOM     29  C   UNL     1      -8.111  -2.533  -0.264  0.00  0.00    +0.028 A 
ATOM     31  C   UNL     1      -8.446  -0.482  -1.551  0.00  0.00    +0.002 A 
ATOM     32  C   UNL     1      -8.909  -1.729  -1.081  0.00  0.00    +0.002 A 
ATOM     37  H   UNL     1      -5.947  -3.531   1.300  0.00  0.00    +0.170 HD
ENDBRANCH  14   6
BRANCH  21  12
ATOM     12  C   UNL     1       0.648   1.789  -0.065  0.00  0.00    +0.100 C 
BRANCH  12   9
ATOM      5  N   UNL     1       3.924   3.160  -1.346  0.00  0.00    -0.316 NA
ATOM      9  C   UNL     1       1.950   2.207   0.629  0.00  0.00    +0.004 C 
ATOM     10  C   UNL     1       3.183   1.372   0.209  0.00  0.00    +0.012 C 
ATOM     11  C   UNL     1       2.245   3.696   0.385  0.00  0.00    +0.019 C 
ATOM     13  C   UNL     1       3.654   1.728  -1.211  0.00  0.00    +0.085 C 
ATOM     15  C   UNL     1       2.747   3.967  -1.033  0.00  0.00    +0.081 C 
ATOM     36  H   UNL     1       4.224   3.358  -2.300  0.00  0.00    +0.122 HD
BRANCH  10  16
ATOM     16  C   UNL     1       2.958  -0.135   0.338  0.00  0.00    +0.064 C 
BRANCH  16  22
ATOM      2  O   UNL     1       5.973  -1.793   1.400  0.00  0.00    -0.359 OA
ATOM      8  N   UNL     1       4.797  -1.097   1.654  0.00  0.00    -0.083 NA
ATOM     22  C   UNL     1       4.260  -0.875   0.451  0.00  0.00    +0.084 A 
ATOM     26  C   UNL     1       5.045  -1.401  -0.590  0.00  0.00    +0.071 A 
ATOM     28  C   UNL     1       6.109  -1.968   0.060  0.00  0.00    +0.138 A 
BRANCH  28  30
ATOM     30  C   UNL     1       7.306  -2.690  -0.388  0.00  0.00    +0.077 C 
BRANCH  30  33
ATOM     33  C   UNL     1       8.583  -1.821  -0.359  0.00  0.00    +0.007 C 
BRANCH  33  34
ATOM     34  C   UNL     1       9.815  -2.569  -0.871  0.00  0.00    -0.003 C 
ATOM     35  C   UNL     1      11.047  -1.679  -0.870  0.00  0.00    +0.004 C 
ENDBRANCH  33  34
ENDBRANCH  30  33
ENDBRANCH  28  30
ENDBRANCH  16  22
ENDBRANCH  10  16
ENDBRANCH  12   9
ENDBRANCH  21  12
TORSDOF 8
