REMARK  Name = 7127906
REMARK  13 active torsions:
REMARK  status: ('A' for Active; 'I' for Inactive)
REMARK    1  A    between atoms: S_1  and  C_22
REMARK    2  A    between atoms: S_1  and  C_26
REMARK    3  A    between atoms: O_2  and  C_13
REMARK    4  A    between atoms: O_3  and  C_15
REMARK    5  A    between atoms: N_9  and  C_14
REMARK    6  A    between atoms: N_10  and  C_20
REMARK    7  A    between atoms: N_12  and  C_27
REMARK    8  A    between atoms: C_17  and  C_19
REMARK    9  A    between atoms: C_20  and  C_21
REMARK   10  A    between atoms: C_20  and  C_24
REMARK   11  A    between atoms: C_21  and  C_22
REMARK   12  A    between atoms: C_23  and  C_25
REMARK   13  A    between atoms: C_25  and  C_27
REMARK                            x       y       z     vdW  Elec       q    Type
REMARK                         _______ _______ _______ _____ _____    ______ ____
ROOT
ATOM     13  C   UNL     1      -2.515   1.327   1.182  0.00  0.00    +0.167 C 
ATOM     14  C   UNL     1      -2.791   0.665  -0.182  0.00  0.00    +0.127 C 
ATOM     15  C   UNL     1      -1.151   2.028   1.201  0.00  0.00    +0.149 C 
ATOM     16  C   UNL     1      -0.004   1.073   0.831  0.00  0.00    +0.074 C 
ATOM     17  C   UNL     1      -0.362   0.108  -0.263  0.00  0.00    +0.015 C 
ATOM     18  C   UNL     1      -1.605  -0.079  -0.733  0.00  0.00    +0.006 C 
ENDROOT
BRANCH  17  19
ATOM      4  O   UNL     1       0.655  -1.020  -2.056  0.00  0.00    -0.271 OA
ATOM     10  N   UNL     1       1.754  -0.943  -0.001  0.00  0.00    -0.300 N 
ATOM     19  C   UNL     1       0.718  -0.670  -0.878  0.00  0.00    +0.241 C 
ATOM     29  H   UNL     1       1.712  -0.628   0.961  0.00  0.00    +0.150 HD
BRANCH  10  20
ATOM     20  C   UNL     1       2.928  -1.697  -0.377  0.00  0.00    +0.160 C 
BRANCH  20  24
ATOM      8  O   UNL     1       2.856  -2.376   1.955  0.00  0.00    -0.274 OA
ATOM     11  N   UNL     1       4.408  -3.356   0.575  0.00  0.00    -0.328 N 
ATOM     24  C   UNL     1       3.380  -2.479   0.849  0.00  0.00    +0.231 C 
ATOM     32  H   UNL     1       4.804  -3.465  -0.353  0.00  0.00    +0.145 HD
ATOM     33  H   UNL     1       4.795  -3.946   1.304  0.00  0.00    +0.145 HD
ENDBRANCH  20  24
BRANCH  20  21
ATOM     21  C   UNL     1       4.054  -0.793  -0.881  0.00  0.00    +0.054 C 
BRANCH  21  22
ATOM     22  C   UNL     1       4.474   0.242   0.154  0.00  0.00    +0.168 C 
BRANCH  22   1
ATOM      1  S   UNL     1       5.755   1.287  -0.467  0.00  0.00    -0.034 S 
ATOM      6  O   UNL     1       6.931   0.469  -0.710  0.00  0.00    -0.175 OA
ATOM      7  O   UNL     1       5.197   2.111  -1.525  0.00  0.00    -0.175 OA
ATOM     26  C   UNL     1       6.119   2.353   0.909  0.00  0.00    +0.194 C 
ENDBRANCH  22   1
ENDBRANCH  21  22
ENDBRANCH  20  21
ENDBRANCH  10  20
ENDBRANCH  17  19
BRANCH  14   9
ATOM      5  O   UNL     1      -5.540   1.348  -0.619  0.00  0.00    -0.276 OA
ATOM      9  N   UNL     1      -3.917  -0.234  -0.119  0.00  0.00    -0.306 N 
ATOM     23  C   UNL     1      -5.217   0.195  -0.347  0.00  0.00    +0.215 C 
ATOM     28  H   UNL     1      -3.754  -1.203   0.143  0.00  0.00    +0.149 HD
BRANCH  23  25
ATOM     25  C   UNL     1      -6.214  -0.944  -0.223  0.00  0.00    +0.110 C 
BRANCH  25  27
ATOM     27  C   UNL     1      -7.648  -0.487  -0.471  0.00  0.00    +0.087 C 
BRANCH  27  12
ATOM     12  N   UNL     1      -8.569  -1.607  -0.328  0.00  0.00    -0.330 NA
ATOM     34  H   UNL     1      -9.515  -1.298  -0.547  0.00  0.00    +0.118 HD
ATOM     35  H   UNL     1      -8.340  -2.330  -1.009  0.00  0.00    +0.118 HD
ENDBRANCH  27  12
ENDBRANCH  25  27
ENDBRANCH  23  25
ENDBRANCH  14   9
BRANCH  13   2
ATOM      2  O   UNL     1      -2.535   0.334   2.210  0.00  0.00    -0.387 OA
ATOM     30  H   UNL     1      -1.935  -0.388   1.961  0.00  0.00    +0.210 HD
ENDBRANCH  13   2
BRANCH  15   3
ATOM      3  O   UNL     1      -1.162   3.147   0.316  0.00  0.00    -0.389 OA
ATOM     31  H   UNL     1      -1.885   3.734   0.595  0.00  0.00    +0.210 HD
ENDBRANCH  15   3
TORSDOF 12
