REMARK  Name = 26742649
REMARK  4 active torsions:
REMARK  status: ('A' for Active; 'I' for Inactive)
REMARK    1  A    between atoms: N_4  and  C_16
REMARK    2  A    between atoms: C_16  and  C_18
REMARK    3  A    between atoms: C_17  and  C_19
REMARK    4  A    between atoms: C_18  and  C_20
REMARK                            x       y       z     vdW  Elec       q    Type
REMARK                         _______ _______ _______ _____ _____    ______ ____
ROOT
ATOM      1  O   UNL     1      -2.331   2.148  -2.241  0.00  0.00    -0.276 OA
ATOM      2  O   UNL     1       3.037  -0.127   2.332  0.00  0.00    -0.270 OA
ATOM      3  N   UNL     1       2.569   1.108   0.403  0.00  0.00    -0.297 N 
ATOM      4  N   UNL     1      -2.201   1.950   0.067  0.00  0.00    -0.301 N 
ATOM      7  C   UNL     1       0.836   2.832   0.817  0.00  0.00    +0.011 C 
ATOM      8  C   UNL     1       0.660   2.964  -0.716  0.00  0.00    +0.004 C 
ATOM      9  C   UNL     1       1.051   1.667  -1.451  0.00  0.00    +0.023 C 
ATOM     10  C   UNL     1       2.264   2.341   1.131  0.00  0.00    +0.112 C 
ATOM     11  C   UNL     1      -0.195   1.927   1.518  0.00  0.00    +0.024 C 
ATOM     12  C   UNL     1      -0.710   3.503  -1.146  0.00  0.00    +0.100 C 
ATOM     13  C   UNL     1       2.456   1.217  -1.056  0.00  0.00    +0.108 C 
ATOM     14  C   UNL     1      -1.635   2.396   1.338  0.00  0.00    +0.108 C 
ATOM     15  C   UNL     1      -1.825   2.474  -1.164  0.00  0.00    +0.216 C 
ATOM     17  C   UNL     1       2.942  -0.037   1.109  0.00  0.00    +0.247 C 
ENDROOT
BRANCH  17  19
ATOM     19  C   UNL     1       3.232  -1.257   0.344  0.00  0.00    +0.037 A 
ATOM     21  C   UNL     1       4.529  -1.510  -0.101  0.00  0.00    +0.013 A 
ATOM     22  C   UNL     1       2.209  -2.164   0.065  0.00  0.00    +0.013 A 
ATOM     24  C   UNL     1       4.804  -2.670  -0.826  0.00  0.00    +0.001 A 
ATOM     25  C   UNL     1       2.485  -3.323  -0.660  0.00  0.00    +0.001 A 
ATOM     26  C   UNL     1       3.782  -3.576  -1.105  0.00  0.00    +0.000 A 
ENDBRANCH  17  19
BRANCH   4  16
ATOM     16  C   UNL     1      -3.198   0.889   0.134  0.00  0.00    +0.114 C 
BRANCH  16  18
ATOM     18  C   UNL     1      -2.576  -0.504   0.080  0.00  0.00    +0.073 C 
BRANCH  18  20
ATOM      5  N   UNL     1      -4.488  -1.757   1.152  0.00  0.00    -0.348 N 
ATOM      6  N   UNL     1      -4.933  -3.401  -0.273  0.00  0.00    -0.244 NA
ATOM     20  C   UNL     1      -3.603  -1.609   0.121  0.00  0.00    +0.037 A 
ATOM     23  C   UNL     1      -3.897  -2.635  -0.746  0.00  0.00    +0.133 A 
ATOM     27  C   UNL     1      -5.266  -2.846   0.871  0.00  0.00    +0.196 A 
ATOM     28  H   UNL     1      -4.556  -1.173   1.974  0.00  0.00    +0.166 HD
ENDBRANCH  18  20
ENDBRANCH  16  18
ENDBRANCH   4  16
TORSDOF 4
