REMARK  Name = 40778249
REMARK  9 active torsions:
REMARK  status: ('A' for Active; 'I' for Inactive)
REMARK    1  A    between atoms: O_2  and  C_10
REMARK    2  A    between atoms: O_3  and  C_11
REMARK    3  A    between atoms: N_6  and  C_15
REMARK    4  A    between atoms: N_7  and  C_18
REMARK    5  A    between atoms: N_8  and  C_20
REMARK    6  A    between atoms: C_12  and  C_14
REMARK    7  A    between atoms: C_13  and  C_15
REMARK    8  A    between atoms: C_14  and  C_16
REMARK    9  A    between atoms: C_18  and  C_19
REMARK                            x       y       z     vdW  Elec       q    Type
REMARK                         _______ _______ _______ _____ _____    ______ ____
ROOT
ATOM      1  O   UNL     1      -2.221   0.286  -0.428  0.00  0.00    -0.366 OA
ATOM     10  C   UNL     1      -4.374   0.750   0.414  0.00  0.00    +0.175 C 
ATOM     11  C   UNL     1      -4.266   1.378  -0.961  0.00  0.00    +0.176 C 
ATOM     12  C   UNL     1      -3.276  -0.298   0.357  0.00  0.00    +0.158 C 
ATOM     13  C   UNL     1      -2.758   1.395  -1.184  0.00  0.00    +0.167 C 
ENDROOT
BRANCH  10   2
ATOM      2  O   UNL     1      -5.639   0.179   0.670  0.00  0.00    -0.387 OA
ATOM     30  H   UNL     1      -6.302   0.885   0.577  0.00  0.00    +0.210 HD
ENDBRANCH  10   2
BRANCH  11   3
ATOM      3  O   UNL     1      -4.849   0.522  -1.943  0.00  0.00    -0.387 OA
ATOM     31  H   UNL     1      -4.724   0.946  -2.809  0.00  0.00    +0.210 HD
ENDBRANCH  11   3
BRANCH  12  14
ATOM     14  C   UNL     1      -2.742  -0.685   1.724  0.00  0.00    +0.130 C 
BRANCH  14  16
ATOM      4  O   UNL     1      -2.236  -2.962   2.366  0.00  0.00    -0.276 OA
ATOM      7  N   UNL     1      -0.867  -1.888   0.825  0.00  0.00    -0.311 N 
ATOM     16  C   UNL     1      -1.944  -1.976   1.694  0.00  0.00    +0.216 C 
ATOM     33  H   UNL     1      -0.701  -1.011   0.339  0.00  0.00    +0.149 HD
BRANCH   7  18
ATOM     18  C   UNL     1       0.061  -2.974   0.605  0.00  0.00    +0.141 C 
BRANCH  18  19
ATOM      9  N   UNL     1       1.776  -2.235  -2.683  0.00  0.00    -0.263 NA
ATOM     19  C   UNL     1       1.130  -2.609  -0.383  0.00  0.00    -0.012 A 
ATOM     21  C   UNL     1       2.423  -2.316   0.036  0.00  0.00    +0.008 A 
ATOM     22  C   UNL     1       0.860  -2.555  -1.741  0.00  0.00    +0.115 A 
ATOM     25  C   UNL     1       3.393  -1.982  -0.903  0.00  0.00    +0.020 A 
ATOM     28  C   UNL     1       3.022  -1.956  -2.238  0.00  0.00    +0.111 A 
ENDBRANCH  18  19
ENDBRANCH   7  18
ENDBRANCH  14  16
ENDBRANCH  12  14
BRANCH  13  15
ATOM     15  C   UNL     1      -2.095   2.669  -0.677  0.00  0.00    +0.140 C 
BRANCH  15   6
ATOM      5  O   UNL     1      -0.096   1.657   1.107  0.00  0.00    -0.253 OA
ATOM      6  N   UNL     1      -0.680   2.642  -0.903  0.00  0.00    -0.297 N 
ATOM      8  N   UNL     1       1.546   2.233  -0.468  0.00  0.00    -0.269 N 
ATOM     17  C   UNL     1       0.242   2.127   0.023  0.00  0.00    +0.304 C 
ATOM     32  H   UNL     1      -0.329   3.003  -1.784  0.00  0.00    +0.150 HD
ATOM     34  H   UNL     1       1.654   2.649  -1.390  0.00  0.00    +0.156 HD
BRANCH   8  20
ATOM     20  C   UNL     1       2.747   1.830   0.161  0.00  0.00    +0.035 A 
ATOM     23  C   UNL     1       3.969   2.016  -0.485  0.00  0.00    +0.023 A 
ATOM     24  C   UNL     1       2.710   1.246   1.428  0.00  0.00    +0.023 A 
ATOM     26  C   UNL     1       5.154   1.619   0.136  0.00  0.00    +0.002 A 
ATOM     27  C   UNL     1       3.894   0.849   2.048  0.00  0.00    +0.002 A 
ATOM     29  C   UNL     1       5.116   1.035   1.402  0.00  0.00    +0.000 A 
ENDBRANCH   8  20
ENDBRANCH  15   6
ENDBRANCH  13  15
TORSDOF 9
