REMARK  Name = 11912431
REMARK  4 active torsions:
REMARK  status: ('A' for Active; 'I' for Inactive)
REMARK    1  A    between atoms: O_7  and  C_33
REMARK    2  A    between atoms: O_7  and  C_34
REMARK    3  A    between atoms: C_19  and  C_22
REMARK    4  A    between atoms: C_20  and  C_23
REMARK                            x       y       z     vdW  Elec       q    Type
REMARK                         _______ _______ _______ _____ _____    ______ ____
ROOT
ATOM      5  O   UNL     1      -0.707  -2.254   1.077  0.00  0.00    -0.267 OA
ATOM      6  O   UNL     1       3.243   0.517   2.746  0.00  0.00    -0.270 OA
ATOM      8  N   UNL     1       3.977  -0.610   0.832  0.00  0.00    -0.297 N 
ATOM      9  N   UNL     1       1.320  -2.064  -0.061  0.00  0.00    -0.311 N 
ATOM     10  C   UNL     1       3.505  -3.051   0.843  0.00  0.00    +0.027 C 
ATOM     11  C   UNL     1       3.506  -1.816  -1.287  0.00  0.00    +0.054 C 
ATOM     12  C   UNL     1       3.912  -3.131  -0.624  0.00  0.00    +0.018 C 
ATOM     13  C   UNL     1       4.215  -1.871   1.533  0.00  0.00    +0.113 C 
ATOM     14  C   UNL     1       1.978  -2.934   0.925  0.00  0.00    +0.130 C 
ATOM     15  C   UNL     1       4.252  -0.646  -0.614  0.00  0.00    +0.117 C 
ATOM     16  C   UNL     1       2.010  -1.590  -1.179  0.00  0.00    +0.027 A 
ATOM     17  C   UNL     1       1.360  -0.901  -2.131  0.00  0.00    +0.022 A 
ATOM     18  C   UNL     1      -0.056  -1.825   0.123  0.00  0.00    +0.259 A 
ATOM     19  C   UNL     1       3.473   0.485   1.538  0.00  0.00    +0.247 C 
ATOM     20  C   UNL     1      -0.746  -1.009  -0.936  0.00  0.00    +0.047 A 
ATOM     21  C   UNL     1      -0.038  -0.603  -2.001  0.00  0.00    +0.015 A 
ENDROOT
BRANCH  19  22
ATOM      1  F   UNL     1       2.288   5.143  -1.319  0.00  0.00    -0.205 F 
ATOM     22  C   UNL     1       3.163   1.706   0.787  0.00  0.00    +0.037 A 
ATOM     24  C   UNL     1       1.891   1.884   0.249  0.00  0.00    +0.016 A 
ATOM     25  C   UNL     1       4.141   2.683   0.618  0.00  0.00    +0.016 A 
ATOM     28  C   UNL     1       1.595   3.046  -0.464  0.00  0.00    +0.039 A 
ATOM     29  C   UNL     1       3.845   3.845  -0.095  0.00  0.00    +0.039 A 
ATOM     32  C   UNL     1       2.572   4.026  -0.636  0.00  0.00    +0.123 A 
ENDBRANCH  19  22
BRANCH  20  23
ATOM     23  C   UNL     1      -2.167  -0.641  -0.810  0.00  0.00    -0.012 A 
ATOM     26  C   UNL     1      -3.153  -1.473  -1.341  0.00  0.00    +0.012 A 
ATOM     27  C   UNL     1      -2.527   0.539  -0.160  0.00  0.00    +0.012 A 
ATOM     30  C   UNL     1      -4.498  -1.124  -1.222  0.00  0.00    +0.046 A 
ATOM     31  C   UNL     1      -3.872   0.888  -0.041  0.00  0.00    +0.046 A 
ATOM     33  C   UNL     1      -4.858   0.056  -0.572  0.00  0.00    +0.130 A 
BRANCH  33   7
ATOM      7  O   UNL     1      -6.171   0.396  -0.455  0.00  0.00    -0.406 OA
BRANCH   7  34
ATOM      2  F   UNL     1      -6.083  -0.252   1.737  0.00  0.00    -0.133 F 
ATOM      3  F   UNL     1      -8.018   0.198   0.827  0.00  0.00    -0.133 F 
ATOM      4  F   UNL     1      -6.636   1.834   1.262  0.00  0.00    -0.133 F 
ATOM     34  C   UNL     1      -6.713   0.550   0.852  0.00  0.00    +0.575 C 
ENDBRANCH   7  34
ENDBRANCH  33   7
ENDBRANCH  20  23
TORSDOF 4
