REMARK  Name = 11866321
REMARK  10 active torsions:
REMARK  status: ('A' for Active; 'I' for Inactive)
REMARK    1  A    between atoms: O_1  and  C_11
REMARK    2  A    between atoms: O_2  and  C_12
REMARK    3  A    between atoms: O_6  and  C_30
REMARK    4  A    between atoms: N_7  and  C_13
REMARK    5  A    between atoms: N_8  and  C_18
REMARK    6  A    between atoms: C_15  and  C_17
REMARK    7  A    between atoms: C_18  and  C_20
REMARK    8  A    between atoms: C_18  and  C_22
REMARK    9  A    between atoms: C_19  and  C_23
REMARK   10  A    between atoms: C_20  and  C_21
REMARK                            x       y       z     vdW  Elec       q    Type
REMARK                         _______ _______ _______ _____ _____    ______ ____
ROOT
ATOM     11  C   UNL     1      -1.521   3.208  -0.033  0.00  0.00    +0.167 C 
ATOM     12  C   UNL     1      -0.262   4.065  -0.215  0.00  0.00    +0.149 C 
ATOM     13  C   UNL     1      -1.274   1.745  -0.448  0.00  0.00    +0.128 C 
ATOM     14  C   UNL     1       0.944   3.490   0.548  0.00  0.00    +0.074 C 
ATOM     15  C   UNL     1       1.016   1.990   0.506  0.00  0.00    +0.015 C 
ATOM     16  C   UNL     1       0.034   1.197   0.055  0.00  0.00    +0.006 C 
ENDROOT
BRANCH  15  17
ATOM      3  O   UNL     1       2.642   1.488   2.127  0.00  0.00    -0.271 OA
ATOM      8  N   UNL     1       2.872   0.601  -0.017  0.00  0.00    -0.300 N 
ATOM     17  C   UNL     1       2.249   1.345   0.970  0.00  0.00    +0.241 C 
ATOM     36  H   UNL     1       2.502   0.626  -0.963  0.00  0.00    +0.150 HD
BRANCH   8  18
ATOM     18  C   UNL     1       4.103  -0.124   0.201  0.00  0.00    +0.163 C 
BRANCH  18  22
ATOM      5  O   UNL     1       5.215   1.731  -0.907  0.00  0.00    -0.274 OA
ATOM      9  N   UNL     1       6.305   0.664   0.810  0.00  0.00    -0.328 N 
ATOM     22  C   UNL     1       5.246   0.847  -0.054  0.00  0.00    +0.231 C 
ATOM     37  H   UNL     1       7.127   1.256   0.759  0.00  0.00    +0.145 HD
ATOM     38  H   UNL     1       6.316  -0.068   1.513  0.00  0.00    +0.145 HD
ENDBRANCH  18  22
BRANCH  18  20
ATOM     20  C   UNL     1       4.226  -1.346  -0.717  0.00  0.00    +0.067 C 
BRANCH  20  21
ATOM     21  C   UNL     1       3.100  -2.333  -0.528  0.00  0.00    -0.045 A 
ATOM     24  C   UNL     1       3.223  -3.362   0.406  0.00  0.00    +0.007 A 
ATOM     25  C   UNL     1       1.937  -2.217  -1.289  0.00  0.00    +0.007 A 
ATOM     28  C   UNL     1       2.182  -4.274   0.580  0.00  0.00    +0.045 A 
ATOM     29  C   UNL     1       0.896  -3.130  -1.115  0.00  0.00    +0.045 A 
ATOM     30  C   UNL     1       1.018  -4.158  -0.181  0.00  0.00    +0.117 A 
BRANCH  30   6
ATOM      6  O   UNL     1       0.003  -5.048  -0.011  0.00  0.00    -0.507 OA
ATOM     39  H   UNL     1      -0.723  -4.817  -0.616  0.00  0.00    +0.292 HD
ENDBRANCH  30   6
ENDBRANCH  20  21
ENDBRANCH  18  20
ENDBRANCH   8  18
ENDBRANCH  15  17
BRANCH  13   7
ATOM      4  O   UNL     1      -3.678   1.121  -1.890  0.00  0.00    -0.270 OA
ATOM      7  N   UNL     1      -2.342   0.880  -0.009  0.00  0.00    -0.302 N 
ATOM     19  C   UNL     1      -3.470   0.638  -0.780  0.00  0.00    +0.246 C 
ATOM     33  H   UNL     1      -2.286   0.517   0.937  0.00  0.00    +0.150 HD
BRANCH  19  23
ATOM     10  N   UNL     1      -6.806  -0.934  -0.013  0.00  0.00    -0.263 NA
ATOM     23  C   UNL     1      -4.491  -0.255  -0.175  0.00  0.00    +0.055 A 
ATOM     26  C   UNL     1      -4.135  -1.220   0.761  0.00  0.00    +0.016 A 
ATOM     27  C   UNL     1      -5.828  -0.153  -0.525  0.00  0.00    +0.123 A 
ATOM     31  C   UNL     1      -5.113  -2.042   1.310  0.00  0.00    +0.020 A 
ATOM     32  C   UNL     1      -6.422  -1.861   0.893  0.00  0.00    +0.111 A 
ENDBRANCH  19  23
ENDBRANCH  13   7
BRANCH  11   1
ATOM      1  O   UNL     1      -1.915   3.257   1.341  0.00  0.00    -0.387 OA
ATOM     34  H   UNL     1      -2.091   4.188   1.561  0.00  0.00    +0.210 HD
ENDBRANCH  11   1
BRANCH  12   2
ATOM      2  O   UNL     1       0.050   4.190  -1.601  0.00  0.00    -0.389 OA
ATOM     35  H   UNL     1       0.824   4.772  -1.677  0.00  0.00    +0.210 HD
ENDBRANCH  12   2
TORSDOF 10
