REMARK  Name = 45361093
REMARK  6 active torsions:
REMARK  status: ('A' for Active; 'I' for Inactive)
REMARK    1  A    between atoms: N_5  and  C_20
REMARK    2  A    between atoms: N_6  and  C_19
REMARK    3  A    between atoms: C_15  and  C_18
REMARK    4  A    between atoms: C_18  and  C_21
REMARK    5  A    between atoms: C_19  and  C_22
REMARK    6  A    between atoms: C_21  and  C_23
REMARK                            x       y       z     vdW  Elec       q    Type
REMARK                         _______ _______ _______ _____ _____    ______ ____
ROOT
ATOM      2  O   UNL     1      -1.164  -0.836  -1.332  0.00  0.00    -0.274 OA
ATOM      5  N   UNL     1       0.257   1.995   0.895  0.00  0.00    -0.296 NA
ATOM      6  N   UNL     1      -2.985   0.447   0.195  0.00  0.00    -0.284 NA
ATOM      7  N   UNL     1       0.049   1.042  -1.820  0.00  0.00    -0.312 N 
ATOM     11  C   UNL     1      -1.222   1.991   0.827  0.00  0.00    +0.084 C 
ATOM     12  C   UNL     1      -1.906   1.276  -0.375  0.00  0.00    +0.161 C 
ATOM     13  C   UNL     1      -1.902   1.315   2.032  0.00  0.00    +0.036 C 
ATOM     14  C   UNL     1      -3.287   0.987   1.516  0.00  0.00    +0.087 C 
ATOM     15  C   UNL     1       0.924   2.720  -0.221  0.00  0.00    +0.074 C 
ATOM     16  C   UNL     1      -0.989   0.375  -1.198  0.00  0.00    +0.232 C 
ATOM     17  C   UNL     1       0.329   2.450  -1.617  0.00  0.00    +0.123 C 
ATOM     20  C   UNL     1       0.719   2.518   2.192  0.00  0.00    +0.105 C 
ATOM     29  H   UNL     1       0.649   0.513  -2.445  0.00  0.00    +0.149 HD
ENDROOT
BRANCH  15  18
ATOM     18  C   UNL     1       2.424   2.361  -0.278  0.00  0.00    +0.029 C 
BRANCH  18  21
ATOM     21  C   UNL     1       2.650   0.862  -0.227  0.00  0.00    +0.097 C 
BRANCH  21  23
ATOM      3  O   UNL     1       4.942   1.442  -0.402  0.00  0.00    -0.276 OA
ATOM      4  O   UNL     1       5.240  -3.403   0.542  0.00  0.00    -0.377 OA
ATOM      8  N   UNL     1       4.452  -0.823  -0.272  0.00  0.00    -0.297 N 
ATOM     23  C   UNL     1       4.118   0.529  -0.310  0.00  0.00    +0.216 C 
ATOM     25  C   UNL     1       5.854  -1.234  -0.343  0.00  0.00    +0.136 C 
ATOM     26  C   UNL     1       3.497  -1.936  -0.292  0.00  0.00    +0.136 C 
ATOM     27  C   UNL     1       6.145  -2.307   0.697  0.00  0.00    +0.179 C 
ATOM     28  C   UNL     1       3.888  -2.985   0.743  0.00  0.00    +0.179 C 
ENDBRANCH  21  23
ENDBRANCH  18  21
ENDBRANCH  15  18
BRANCH   6  19
ATOM     19  C   UNL     1      -4.168   0.377  -0.652  0.00  0.00    +0.143 C 
BRANCH  19  22
ATOM      1  S   UNL     1      -6.832  -2.496   0.029  0.00  0.00    +0.028 S 
ATOM      9  N   UNL     1      -4.382  -1.978   0.115  0.00  0.00    -0.145 NA
ATOM     10  N   UNL     1      -5.251  -2.948   0.349  0.00  0.00    -0.110 NA
ATOM     22  C   UNL     1      -5.013  -0.829  -0.337  0.00  0.00    +0.086 A 
ATOM     24  C   UNL     1      -6.386  -0.912  -0.455  0.00  0.00    +0.093 A 
ENDBRANCH  19  22
ENDBRANCH   6  19
TORSDOF 5
