REMARK  Name = 45784179
REMARK  3 active torsions:
REMARK  status: ('A' for Active; 'I' for Inactive)
REMARK    1  A    between atoms: N_4  and  C_11
REMARK    2  A    between atoms: C_6  and  C_10
REMARK    3  A    between atoms: C_11  and  C_12
REMARK                            x       y       z     vdW  Elec       q    Type
REMARK                         _______ _______ _______ _____ _____    ______ ____
ROOT
ATOM      4  N   UNL     1      -2.421   1.141  -0.122  0.00  0.00    -0.297 NA
ATOM      6  C   UNL     1      -0.290   1.056   0.855  0.00  0.00    +0.090 C 
ATOM      7  C   UNL     1      -0.578   2.489   0.372  0.00  0.00    +0.029 C 
ATOM      8  C   UNL     1      -1.341   0.189   0.149  0.00  0.00    +0.097 C 
ATOM      9  C   UNL     1      -1.747   2.351  -0.595  0.00  0.00    +0.085 C 
ENDROOT
BRANCH   6  10
ATOM      1 CL   UNL     1       6.872  -1.431   0.439  0.00  0.00    -0.083 Cl
ATOM      3  O   UNL     1       1.535   0.557  -0.680  0.00  0.00    -0.439 OA
ATOM      5  N   UNL     1       2.011   0.181   1.503  0.00  0.00    -0.213 NA
ATOM     10  C   UNL     1       1.124   0.579   0.619  0.00  0.00    +0.201 A 
ATOM     13  C   UNL     1       3.106  -0.132   0.735  0.00  0.00    +0.111 A 
ATOM     14  C   UNL     1       2.818   0.097  -0.603  0.00  0.00    +0.155 A 
ATOM     16  C   UNL     1       4.377  -0.613   1.081  0.00  0.00    +0.051 A 
ATOM     17  C   UNL     1       3.704  -0.116  -1.651  0.00  0.00    +0.050 A 
ATOM     20  C   UNL     1       5.299  -0.840   0.050  0.00  0.00    +0.043 A 
ATOM     21  C   UNL     1       4.967  -0.596  -1.289  0.00  0.00    +0.024 A 
ENDBRANCH   6  10
BRANCH   4  11
ATOM     11  C   UNL     1      -3.383   0.630  -1.086  0.00  0.00    +0.126 C 
BRANCH  11  12
ATOM      2  S   UNL     1      -4.544  -1.896  -0.994  0.00  0.00    -0.100 S 
ATOM     12  C   UNL     1      -4.392  -0.283  -0.441  0.00  0.00    +0.004 A 
ATOM     15  C   UNL     1      -5.266  -0.005   0.588  0.00  0.00    +0.012 A 
ATOM     18  C   UNL     1      -6.070  -1.131   0.926  0.00  0.00    +0.008 A 
ATOM     19  C   UNL     1      -5.781  -2.227   0.143  0.00  0.00    +0.045 A 
ENDBRANCH  11  12
ENDBRANCH   4  11
TORSDOF 3
