REMARK  Name = 51137482
REMARK  8 active torsions:
REMARK  status: ('A' for Active; 'I' for Inactive)
REMARK    1  A    between atoms: S_1  and  C_21
REMARK    2  A    between atoms: S_1  and  C_25
REMARK    3  A    between atoms: O_5  and  C_23
REMARK    4  A    between atoms: O_5  and  C_29
REMARK    5  A    between atoms: N_6  and  C_13
REMARK    6  A    between atoms: C_9  and  C_14
REMARK    7  A    between atoms: C_13  and  C_15
REMARK    8  A    between atoms: C_18  and  C_22
REMARK                            x       y       z     vdW  Elec       q    Type
REMARK                         _______ _______ _______ _____ _____    ______ ____
ROOT
ATOM      6  N   UNL     1      -1.581   1.686  -0.636  0.00  0.00    -0.297 NA
ATOM      9  C   UNL     1       0.497   1.039   0.237  0.00  0.00    +0.092 C 
ATOM     10  C   UNL     1       0.543   2.527  -0.154  0.00  0.00    +0.029 C 
ATOM     11  C   UNL     1      -0.752   0.491  -0.467  0.00  0.00    +0.097 C 
ATOM     12  C   UNL     1      -0.654   2.730  -1.072  0.00  0.00    +0.085 C 
ENDROOT
BRANCH   9  14
ATOM      2  O   UNL     1       2.904   0.674   0.496  0.00  0.00    -0.420 OA
ATOM      7  N   UNL     1       1.902  -0.787  -0.869  0.00  0.00    -0.112 NA
ATOM      8  N   UNL     1       3.246  -1.106  -0.815  0.00  0.00    -0.107 NA
ATOM     14  C   UNL     1       1.748   0.257  -0.089  0.00  0.00    +0.222 A 
ATOM     18  C   UNL     1       3.791  -0.227  -0.007  0.00  0.00    +0.252 A 
BRANCH  18  22
ATOM     22  C   UNL     1       5.152  -0.074   0.420  0.00  0.00    +0.080 A 
ATOM     23  C   UNL     1       6.145  -0.943  -0.030  0.00  0.00    +0.132 A 
ATOM     24  C   UNL     1       5.476   0.960   1.298  0.00  0.00    +0.017 A 
ATOM     26  C   UNL     1       7.463  -0.778   0.398  0.00  0.00    +0.046 A 
ATOM     27  C   UNL     1       6.793   1.125   1.726  0.00  0.00    +0.001 A 
ATOM     28  C   UNL     1       7.786   0.256   1.276  0.00  0.00    +0.004 A 
BRANCH  23   5
ATOM      5  O   UNL     1       5.858  -1.963  -0.889  0.00  0.00    -0.494 OA
ATOM     29  C   UNL     1       6.943  -2.796  -1.290  0.00  0.00    +0.277 C 
ENDBRANCH  23   5
ENDBRANCH  18  22
ENDBRANCH   9  14
BRANCH   6  13
ATOM     13  C   UNL     1      -2.668   1.479  -1.582  0.00  0.00    +0.119 C 
BRANCH  13  15
ATOM     15  C   UNL     1      -3.844   0.791  -0.942  0.00  0.00    -0.033 A 
ATOM     16  C   UNL     1      -4.300  -0.426  -1.449  0.00  0.00    +0.007 A 
ATOM     17  C   UNL     1      -4.479   1.370   0.157  0.00  0.00    +0.007 A 
ATOM     19  C   UNL     1      -5.391  -1.064  -0.857  0.00  0.00    +0.027 A 
ATOM     20  C   UNL     1      -5.569   0.733   0.749  0.00  0.00    +0.027 A 
ATOM     21  C   UNL     1      -6.025  -0.484   0.242  0.00  0.00    +0.088 A 
BRANCH  21   1
ATOM      1  S   UNL     1      -7.389  -1.283   0.983  0.00  0.00    -0.006 S 
ATOM      3  O   UNL     1      -7.317  -2.708   0.690  0.00  0.00    -0.170 OA
ATOM      4  O   UNL     1      -7.476  -0.833   2.365  0.00  0.00    -0.170 OA
ATOM     25  C   UNL     1      -8.802  -0.646   0.111  0.00  0.00    +0.200 C 
ENDBRANCH  21   1
ENDBRANCH  13  15
ENDBRANCH   6  13
TORSDOF 6
