REMARK  Name = 75536607
REMARK  7 active torsions:
REMARK  status: ('A' for Active; 'I' for Inactive)
REMARK    1  A    between atoms: O_3  and  C_10
REMARK    2  A    between atoms: N_5  and  C_9
REMARK    3  A    between atoms: N_5  and  C_14
REMARK    4  A    between atoms: N_6  and  C_13
REMARK    5  A    between atoms: C_11  and  C_13
REMARK    6  A    between atoms: C_14  and  C_15
REMARK    7  A    between atoms: C_16  and  C_17
REMARK                            x       y       z     vdW  Elec       q    Type
REMARK                         _______ _______ _______ _____ _____    ______ ____
ROOT
ATOM      2  O   UNL     1       0.334  -0.987   0.099  0.00  0.00    -0.371 OA
ATOM      9  C   UNL     1      -1.704   0.163  -0.313  0.00  0.00    +0.111 C 
ATOM     10  C   UNL     1      -0.780   1.063   0.487  0.00  0.00    +0.164 C 
ATOM     11  C   UNL     1       0.573   0.427   0.197  0.00  0.00    +0.165 C 
ATOM     12  C   UNL     1      -1.079  -1.201  -0.070  0.00  0.00    +0.181 C 
ENDROOT
BRANCH  10   3
ATOM      3  O   UNL     1      -0.830   2.412   0.063  0.00  0.00    -0.388 OA
ATOM     24  H   UNL     1      -0.621   2.442  -0.886  0.00  0.00    +0.210 HD
ENDBRANCH  10   3
BRANCH   9   5
ATOM      5  N   UNL     1      -3.094   0.232   0.108  0.00  0.00    -0.302 NA
ATOM     23  H   UNL     1      -3.357   1.211   0.230  0.00  0.00    +0.123 HD
BRANCH   5  14
ATOM     14  C   UNL     1      -3.973  -0.373  -0.885  0.00  0.00    +0.156 C 
BRANCH  14  15
ATOM      7  N   UNL     1      -5.908  -1.183   0.486  0.00  0.00    -0.347 N 
ATOM      8  N   UNL     1      -6.344   0.492  -0.905  0.00  0.00    -0.240 NA
ATOM     15  C   UNL     1      -5.416  -0.326  -0.458  0.00  0.00    +0.121 A 
ATOM     18  C   UNL     1      -7.233  -0.894   0.652  0.00  0.00    +0.104 A 
ATOM     19  C   UNL     1      -7.479   0.143  -0.216  0.00  0.00    +0.130 A 
ATOM     26  H   UNL     1      -5.388  -1.901   0.974  0.00  0.00    +0.167 HD
ENDBRANCH  14  15
ENDBRANCH   5  14
ENDBRANCH   9   5
BRANCH  11  13
ATOM     13  C   UNL     1       1.607   0.699   1.275  0.00  0.00    +0.138 C 
BRANCH  13   6
ATOM      4  O   UNL     1       3.770   1.859  -0.215  0.00  0.00    -0.270 OA
ATOM      6  N   UNL     1       2.862   0.078   0.962  0.00  0.00    -0.308 N 
ATOM     16  C   UNL     1       3.858   0.718   0.231  0.00  0.00    +0.251 C 
ATOM     25  H   UNL     1       2.999  -0.873   1.288  0.00  0.00    +0.149 HD
BRANCH  16  17
ATOM      1  S   UNL     1       6.363   0.645  -0.924  0.00  0.00    -0.092 S 
ATOM     17  C   UNL     1       5.089  -0.071  -0.031  0.00  0.00    +0.074 A 
ATOM     20  C   UNL     1       5.387  -1.360   0.352  0.00  0.00    +0.021 A 
ATOM     21  C   UNL     1       6.678  -1.766  -0.094  0.00  0.00    +0.008 A 
ATOM     22  C   UNL     1       7.318  -0.771  -0.801  0.00  0.00    +0.046 A 
ENDBRANCH  16  17
ENDBRANCH  13   6
ENDBRANCH  11  13
TORSDOF 7
