REMARK  Name = 45783496
REMARK  11 active torsions:
REMARK  status: ('A' for Active; 'I' for Inactive)
REMARK    1  A    between atoms: O_3  and  C_31
REMARK    2  A    between atoms: O_3  and  C_32
REMARK    3  A    between atoms: N_4  and  C_14
REMARK    4  A    between atoms: N_7  and  C_22
REMARK    5  A    between atoms: N_9  and  C_27
REMARK    6  A    between atoms: N_9  and  C_29
REMARK    7  A    between atoms: C_10  and  C_15
REMARK    8  A    between atoms: C_14  and  C_16
REMARK    9  A    between atoms: C_19  and  C_23
REMARK   10  A    between atoms: C_28  and  C_30
REMARK   11  A    between atoms: C_29  and  C_31
REMARK                            x       y       z     vdW  Elec       q    Type
REMARK                         _______ _______ _______ _____ _____    ______ ____
ROOT
ATOM      4  N   UNL     1      -4.434  -0.284  -1.012  0.00  0.00    -0.287 NA
ATOM     10  C   UNL     1      -4.325  -1.222   0.123  0.00  0.00    +0.146 C 
ATOM     11  C   UNL     1      -4.938  -2.537  -0.394  0.00  0.00    +0.030 C 
ATOM     12  C   UNL     1      -5.418  -2.223  -1.804  0.00  0.00    +0.017 C 
ATOM     13  C   UNL     1      -5.591  -0.717  -1.796  0.00  0.00    +0.085 C 
ENDROOT
BRANCH  10  15
ATOM      1  O   UNL     1      -2.735  -1.728   1.909  0.00  0.00    -0.336 OA
ATOM      5  N   UNL     1      -1.778  -1.260  -0.061  0.00  0.00    -0.190 NA
ATOM      6  N   UNL     1      -1.353  -1.826   2.115  0.00  0.00    -0.056 NA
ATOM     15  C   UNL     1      -2.899  -1.392   0.603  0.00  0.00    +0.245 A 
ATOM     19  C   UNL     1      -0.858  -1.536   0.908  0.00  0.00    +0.204 A 
BRANCH  19  23
ATOM      8  N   UNL     1       2.813  -1.794   1.441  0.00  0.00    -0.240 NA
ATOM     23  C   UNL     1       0.551  -1.515   0.636  0.00  0.00    +0.041 A 
ATOM     24  C   UNL     1       1.032  -1.210  -0.632  0.00  0.00    +0.016 A 
ATOM     25  C   UNL     1       1.475  -1.797   1.630  0.00  0.00    +0.124 A 
ATOM     26  C   UNL     1       2.402  -1.197  -0.865  0.00  0.00    +0.044 A 
ATOM     27  C   UNL     1       3.244  -1.493   0.195  0.00  0.00    +0.119 A 
BRANCH  27   9
ATOM      9  N   UNL     1       4.637  -1.477  -0.058  0.00  0.00    -0.327 N 
ATOM     34  H   UNL     1       5.242  -1.692   0.726  0.00  0.00    +0.148 HD
BRANCH   9  29
ATOM     29  C   UNL     1       5.184  -1.172  -1.341  0.00  0.00    +0.131 C 
BRANCH  29  31
ATOM     31  C   UNL     1       6.699  -1.271  -1.297  0.00  0.00    +0.178 C 
BRANCH  31   3
ATOM      3  O   UNL     1       7.209  -0.324  -0.367  0.00  0.00    -0.381 OA
ATOM     32  C   UNL     1       8.627  -0.375  -0.296  0.00  0.00    +0.194 C 
ENDBRANCH  31   3
ENDBRANCH  29  31
ENDBRANCH   9  29
ENDBRANCH  27   9
ENDBRANCH  19  23
ENDBRANCH  10  15
BRANCH   4  14
ATOM     14  C   UNL     1      -4.543   1.109  -0.597  0.00  0.00    +0.120 C 
BRANCH  14  16
ATOM     16  C   UNL     1      -3.204   1.691  -0.232  0.00  0.00    -0.033 A 
ATOM     17  C   UNL     1      -2.994   2.209   1.047  0.00  0.00    +0.007 A 
ATOM     18  C   UNL     1      -2.172   1.713  -1.170  0.00  0.00    +0.007 A 
ATOM     20  C   UNL     1      -1.754   2.749   1.386  0.00  0.00    +0.023 A 
ATOM     21  C   UNL     1      -0.932   2.253  -0.831  0.00  0.00    +0.023 A 
ATOM     22  C   UNL     1      -0.723   2.771   0.447  0.00  0.00    +0.033 A 
BRANCH  22   7
ATOM      2  O   UNL     1       1.794   3.060  -1.181  0.00  0.00    -0.276 OA
ATOM      7  N   UNL     1       0.518   3.311   0.786  0.00  0.00    -0.286 N 
ATOM     28  C   UNL     1       1.663   3.420  -0.016  0.00  0.00    +0.214 C 
ATOM     30  C   UNL     1       2.805   4.067   0.726  0.00  0.00    +0.109 C 
ATOM     33  H   UNL     1       0.592   3.668   1.736  0.00  0.00    +0.155 HD
ENDBRANCH  22   7
ENDBRANCH  14  16
ENDBRANCH   4  14
TORSDOF 9
