REMARK  Name = 11884096
REMARK  9 active torsions:
REMARK  status: ('A' for Active; 'I' for Inactive)
REMARK    1  A    between atoms: O_6  and  C_15
REMARK    2  A    between atoms: O_6  and  C_19
REMARK    3  A    between atoms: N_9  and  C_14
REMARK    4  A    between atoms: N_10  and  C_20
REMARK    5  A    between atoms: N_11  and  C_21
REMARK    6  A    between atoms: C_26  and  C_27
REMARK    7  A    between atoms: C_27  and  C_32
REMARK    8  A    between atoms: C_27  and  C_33
REMARK    9  A    between atoms: C_30  and  C_35
REMARK                            x       y       z     vdW  Elec       q    Type
REMARK                         _______ _______ _______ _____ _____    ______ ____
ROOT
ATOM      4  O   UNL     1       0.681   1.894   1.437  0.00  0.00    -0.368 OA
ATOM      5  O   UNL     1       0.018   3.842  -0.837  0.00  0.00    -0.368 OA
ATOM     12  C   UNL     1      -0.510   2.540  -0.509  0.00  0.00    +0.173 C 
ATOM     13  C   UNL     1       0.648   1.713   0.011  0.00  0.00    +0.192 C 
ATOM     14  C   UNL     1      -1.443   2.642   0.676  0.00  0.00    +0.131 C 
ATOM     15  C   UNL     1       1.837   2.357  -0.662  0.00  0.00    +0.235 C 
ATOM     16  C   UNL     1      -0.476   2.637   1.848  0.00  0.00    +0.185 C 
ATOM     17  C   UNL     1       1.444   3.818  -0.674  0.00  0.00    +0.207 C 
ENDROOT
BRANCH  14   9
ATOM      7  O   UNL     1      -4.103   2.520  -0.380  0.00  0.00    -0.252 OA
ATOM      9  N   UNL     1      -2.342   1.516   0.732  0.00  0.00    -0.292 N 
ATOM     10  N   UNL     1      -4.268   0.310   0.393  0.00  0.00    -0.269 N 
ATOM     18  C   UNL     1      -3.633   1.538   0.189  0.00  0.00    +0.304 C 
ATOM     36  H   UNL     1      -2.002   0.644   1.127  0.00  0.00    +0.151 HD
ATOM     37  H   UNL     1      -3.736  -0.403   0.887  0.00  0.00    +0.156 HD
BRANCH  10  20
ATOM     20  C   UNL     1      -5.572  -0.069  -0.002  0.00  0.00    +0.035 A 
ATOM     24  C   UNL     1      -6.046  -1.349   0.289  0.00  0.00    +0.035 A 
ATOM     25  C   UNL     1      -6.384   0.836  -0.685  0.00  0.00    +0.023 A 
ATOM     30  C   UNL     1      -7.331  -1.722  -0.103  0.00  0.00    +0.057 A 
ATOM     31  C   UNL     1      -7.670   0.462  -1.077  0.00  0.00    +0.002 A 
ATOM     34  C   UNL     1      -8.143  -0.817  -0.786  0.00  0.00    +0.012 A 
BRANCH  30  35
ATOM      1  F   UNL     1      -7.085  -4.089  -0.344  0.00  0.00    -0.166 F 
ATOM      2  F   UNL     1      -9.109  -3.318  -0.237  0.00  0.00    -0.166 F 
ATOM      3  F   UNL     1      -7.866  -3.350   1.546  0.00  0.00    -0.166 F 
ATOM     35  C   UNL     1      -7.837  -3.091   0.206  0.00  0.00    +0.417 C 
ENDBRANCH  30  35
ENDBRANCH  10  20
ENDBRANCH  14   9
BRANCH  15   6
ATOM      6  O   UNL     1       3.054   2.140   0.016  0.00  0.00    -0.442 OA
BRANCH   6  19
ATOM      8  O   UNL     1       3.459   0.307  -1.290  0.00  0.00    -0.226 OA
ATOM     11  N   UNL     1       4.960   0.990   0.371  0.00  0.00    -0.251 N 
ATOM     19  C   UNL     1       3.808   1.058  -0.388  0.00  0.00    +0.405 C 
ATOM     38  H   UNL     1       5.076   1.710   1.080  0.00  0.00    +0.158 HD
BRANCH  11  21
ATOM     21  C   UNL     1       6.003   0.039   0.287  0.00  0.00    +0.036 A 
ATOM     22  C   UNL     1       5.936  -0.989  -0.654  0.00  0.00    +0.024 A 
ATOM     23  C   UNL     1       7.099   0.129   1.144  0.00  0.00    +0.024 A 
ATOM     26  C   UNL     1       8.061  -1.837   0.120  0.00  0.00    -0.045 A 
ATOM     28  C   UNL     1       6.965  -1.926  -0.738  0.00  0.00    +0.006 A 
ATOM     29  C   UNL     1       8.129  -0.809   1.061  0.00  0.00    +0.006 A 
BRANCH  26  27
ATOM     27  C   UNL     1       9.162  -2.840   0.032  0.00  0.00    +0.013 C 
ATOM     32  C   UNL     1       8.681  -4.270   0.343  0.00  0.00    +0.012 C 
ATOM     33  C   UNL     1       9.874  -2.813  -1.334  0.00  0.00    +0.012 C 
ENDBRANCH  26  27
ENDBRANCH  11  21
ENDBRANCH   6  19
ENDBRANCH  15   6
TORSDOF 7
