REMARK  Name = 56775612
REMARK  8 active torsions:
REMARK  status: ('A' for Active; 'I' for Inactive)
REMARK    1  A    between atoms: O_2  and  C_17
REMARK    2  A    between atoms: O_4  and  C_21
REMARK    3  A    between atoms: N_5  and  C_7
REMARK    4  A    between atoms: N_5  and  C_8
REMARK    5  A    between atoms: C_7  and  C_16
REMARK    6  A    between atoms: C_11  and  C_17
REMARK    7  A    between atoms: C_16  and  C_18
REMARK    8  A    between atoms: C_20  and  C_21
REMARK                            x       y       z     vdW  Elec       q    Type
REMARK                         _______ _______ _______ _____ _____    ______ ____
ROOT
ATOM      1  O   UNL     1       1.427   2.247  -1.529  0.00  0.00    -0.376 OA
ATOM      7  C   UNL     1       0.371   1.225   0.019  0.00  0.00    +0.072 C 
ATOM     14  C   UNL     1       0.553   1.096  -1.490  0.00  0.00    +0.184 C 
ATOM     15  C   UNL     1       1.374   2.368  -0.089  0.00  0.00    +0.184 C 
ENDROOT
BRANCH   7   5
ATOM      5  N   UNL     1      -0.956   1.784   0.288  0.00  0.00    -0.304 NA
ATOM     22  H   UNL     1      -1.288   2.460  -0.400  0.00  0.00    +0.123 HD
BRANCH   5   8
ATOM      8  C   UNL     1      -1.919   0.693   0.429  0.00  0.00    +0.054 C 
ATOM      9  C   UNL     1      -1.990  -0.107  -0.876  0.00  0.00    +0.019 C 
ATOM     10  C   UNL     1      -3.298   1.238   0.816  0.00  0.00    +0.019 C 
ATOM     11  C   UNL     1      -4.410  -0.689  -0.398  0.00  0.00    +0.015 C 
ATOM     12  C   UNL     1      -3.027  -1.227  -0.788  0.00  0.00    +0.007 C 
ATOM     13  C   UNL     1      -4.335   0.119   0.904  0.00  0.00    +0.007 C 
BRANCH  11  17
ATOM     17  C   UNL     1      -5.415  -1.832  -0.266  0.00  0.00    +0.159 C 
BRANCH  17   2
ATOM      2  O   UNL     1      -6.685  -1.280   0.028  0.00  0.00    -0.395 OA
ATOM     23  H   UNL     1      -7.309  -2.022   0.106  0.00  0.00    +0.209 HD
ENDBRANCH  17   2
ENDBRANCH  11  17
ENDBRANCH   5   8
ENDBRANCH   7   5
BRANCH   7  16
ATOM     16  C   UNL     1       0.698   0.053   0.893  0.00  0.00    +0.085 C 
BRANCH  16  18
ATOM      3  O   UNL     1       4.279  -0.324   1.196  0.00  0.00    -0.357 OA
ATOM      6  N   UNL     1       3.064   0.233   1.576  0.00  0.00    -0.083 NA
ATOM     18  C   UNL     1       2.160  -0.323   0.764  0.00  0.00    +0.086 A 
ATOM     19  C   UNL     1       2.741  -1.229  -0.140  0.00  0.00    +0.073 A 
ATOM     20  C   UNL     1       4.074  -1.193   0.173  0.00  0.00    +0.163 A 
BRANCH  20  21
ATOM     21  C   UNL     1       5.261  -1.875  -0.354  0.00  0.00    +0.232 C 
BRANCH  21   4
ATOM      4  O   UNL     1       6.034  -0.978  -1.157  0.00  0.00    -0.387 OA
ATOM     24  H   UNL     1       6.803  -1.478  -1.478  0.00  0.00    +0.210 HD
ENDBRANCH  21   4
ENDBRANCH  20  21
ENDBRANCH  16  18
ENDBRANCH   7  16
TORSDOF 8
