REMARK  Name = 11883347
REMARK  6 active torsions:
REMARK  status: ('A' for Active; 'I' for Inactive)
REMARK    1  A    between atoms: S_1  and  N_8
REMARK    2  A    between atoms: S_1  and  C_16
REMARK    3  A    between atoms: O_4  and  C_13
REMARK    4  A    between atoms: O_4  and  C_17
REMARK    5  A    between atoms: N_8  and  C_12
REMARK    6  A    between atoms: N_9  and  C_23
REMARK                            x       y       z     vdW  Elec       q    Type
REMARK                         _______ _______ _______ _____ _____    ______ ____
ROOT
ATOM      2  O   UNL     1      -1.458   1.434   0.767  0.00  0.00    -0.369 OA
ATOM      3  O   UNL     1       0.523  -0.559   1.993  0.00  0.00    -0.368 OA
ATOM     10  C   UNL     1       0.450   0.030   0.678  0.00  0.00    +0.171 C 
ATOM     11  C   UNL     1      -1.020   0.138   0.326  0.00  0.00    +0.191 C 
ATOM     12  C   UNL     1       0.918   1.465   0.725  0.00  0.00    +0.133 C 
ATOM     13  C   UNL     1      -1.635  -0.970   1.148  0.00  0.00    +0.235 C 
ATOM     14  C   UNL     1      -0.323   2.193   1.211  0.00  0.00    +0.183 C 
ATOM     15  C   UNL     1      -0.799  -0.934   2.407  0.00  0.00    +0.207 C 
ENDROOT
BRANCH  12   8
ATOM      8  N   UNL     1       1.321   1.928  -0.581  0.00  0.00    -0.182 NA
ATOM     33  H   UNL     1       0.756   1.649  -1.392  0.00  0.00    +0.148 HD
BRANCH   8   1
ATOM      1  S   UNL     1       2.874   2.577  -0.806  0.00  0.00    +0.059 S 
ATOM      5  O   UNL     1       3.091   3.651   0.144  0.00  0.00    -0.153 OA
ATOM      6  O   UNL     1       3.085   2.802  -2.223  0.00  0.00    -0.153 OA
BRANCH   1  16
ATOM     16  C   UNL     1       3.907   1.220  -0.340  0.00  0.00    +0.106 A 
ATOM     18  C   UNL     1       4.300   0.308  -1.304  0.00  0.00    +0.037 A 
ATOM     19  C   UNL     1       4.302   1.096   0.977  0.00  0.00    +0.029 A 
ATOM     20  C   UNL     1       5.120  -0.776  -0.950  0.00  0.00    -0.016 A 
ATOM     21  C   UNL     1       5.117   0.026   1.347  0.00  0.00    +0.010 A 
ATOM     22  C   UNL     1       5.535  -0.919   0.395  0.00  0.00    -0.018 A 
ATOM     24  C   UNL     1       5.539  -1.720  -1.902  0.00  0.00    +0.008 A 
ATOM     25  C   UNL     1       6.355  -2.003   0.750  0.00  0.00    +0.008 A 
ATOM     26  C   UNL     1       6.353  -2.791  -1.532  0.00  0.00    +0.001 A 
ATOM     27  C   UNL     1       6.761  -2.932  -0.209  0.00  0.00    +0.001 A 
ENDBRANCH   1  16
ENDBRANCH   8   1
ENDBRANCH  12   8
BRANCH  13   4
ATOM      4  O   UNL     1      -3.006  -0.778   1.415  0.00  0.00    -0.442 OA
BRANCH   4  17
ATOM      7  O   UNL     1      -3.462  -0.887  -0.823  0.00  0.00    -0.226 OA
ATOM      9  N   UNL     1      -5.153  -0.558   0.761  0.00  0.00    -0.251 N 
ATOM     17  C   UNL     1      -3.856  -0.752   0.329  0.00  0.00    +0.405 C 
ATOM     34  H   UNL     1      -5.282  -0.467   1.766  0.00  0.00    +0.158 HD
BRANCH   9  23
ATOM     23  C   UNL     1      -6.327  -0.469  -0.020  0.00  0.00    +0.036 A 
ATOM     28  C   UNL     1      -7.547  -0.270   0.607  0.00  0.00    +0.023 A 
ATOM     29  C   UNL     1      -6.236  -0.582  -1.399  0.00  0.00    +0.023 A 
ATOM     30  C   UNL     1      -8.706  -0.182  -0.165  0.00  0.00    +0.002 A 
ATOM     31  C   UNL     1      -7.395  -0.494  -2.170  0.00  0.00    +0.002 A 
ATOM     32  C   UNL     1      -8.630  -0.294  -1.553  0.00  0.00    +0.000 A 
ENDBRANCH   9  23
ENDBRANCH   4  17
ENDBRANCH  13   4
TORSDOF 6
