REMARK  Name = 45783277
REMARK  8 active torsions:
REMARK  status: ('A' for Active; 'I' for Inactive)
REMARK    1  A    between atoms: O_2  and  C_27
REMARK    2  A    between atoms: O_2  and  C_28
REMARK    3  A    between atoms: N_3  and  C_9
REMARK    4  A    between atoms: N_4  and  C_19
REMARK    5  A    between atoms: N_8  and  C_26
REMARK    6  A    between atoms: C_10  and  C_18
REMARK    7  A    between atoms: C_20  and  C_21
REMARK    8  A    between atoms: C_26  and  C_27
REMARK                            x       y       z     vdW  Elec       q    Type
REMARK                         _______ _______ _______ _____ _____    ______ ____
ROOT
ATOM      1  O   UNL     1      -1.670   2.939  -0.625  0.00  0.00    -0.336 OA
ATOM      5  N   UNL     1      -0.428   1.327   0.313  0.00  0.00    -0.190 NA
ATOM      6  N   UNL     1      -0.371   3.111  -1.119  0.00  0.00    -0.056 NA
ATOM     18  C   UNL     1      -1.616   1.869   0.211  0.00  0.00    +0.245 A 
ATOM     20  C   UNL     1       0.302   2.123  -0.521  0.00  0.00    +0.202 A 
ENDROOT
BRANCH  20  21
ATOM      7  N   UNL     1       4.435   1.480  -1.150  0.00  0.00    -0.240 NA
ATOM      8  N   UNL     1       4.358  -0.374   0.346  0.00  0.00    -0.327 N 
ATOM     21  C   UNL     1       1.704   1.906  -0.733  0.00  0.00    +0.027 A 
ATOM     22  C   UNL     1       2.354   0.862  -0.084  0.00  0.00    +0.055 A 
ATOM     23  C   UNL     1       2.417   2.736  -1.590  0.00  0.00    +0.031 A 
ATOM     24  C   UNL     1       3.709   0.693  -0.324  0.00  0.00    +0.119 A 
ATOM     25  C   UNL     1       3.768   2.483  -1.763  0.00  0.00    +0.113 A 
ATOM     29  H   UNL     1       5.348  -0.489   0.159  0.00  0.00    +0.148 HD
BRANCH   8  26
ATOM     26  C   UNL     1       3.674  -1.254   1.236  0.00  0.00    +0.131 C 
BRANCH  26  27
ATOM     27  C   UNL     1       4.648  -2.265   1.817  0.00  0.00    +0.178 C 
BRANCH  27   2
ATOM      2  O   UNL     1       5.202  -3.047   0.767  0.00  0.00    -0.381 OA
ATOM     28  C   UNL     1       6.117  -4.013   1.264  0.00  0.00    +0.194 C 
ENDBRANCH  27   2
ENDBRANCH  26  27
ENDBRANCH   8  26
ENDBRANCH  20  21
BRANCH  18  10
ATOM      3  N   UNL     1      -2.961   0.035   1.221  0.00  0.00    -0.288 NA
ATOM     10  C   UNL     1      -2.913   1.472   0.884  0.00  0.00    +0.146 C 
ATOM     11  C   UNL     1      -3.818  -0.085   2.400  0.00  0.00    +0.085 C 
ATOM     14  C   UNL     1      -3.134   2.196   2.225  0.00  0.00    +0.030 C 
ATOM     15  C   UNL     1      -3.357   1.087   3.243  0.00  0.00    +0.017 C 
BRANCH   3   9
ATOM      4  N   UNL     1      -2.933  -2.970  -1.786  0.00  0.00    -0.305 NA
ATOM      9  C   UNL     1      -3.427  -0.801   0.116  0.00  0.00    +0.060 C 
ATOM     12  C   UNL     1      -2.542  -0.618  -1.120  0.00  0.00    +0.034 C 
ATOM     13  C   UNL     1      -3.441  -2.273   0.535  0.00  0.00    +0.034 C 
ATOM     16  C   UNL     1      -2.961  -1.573  -2.241  0.00  0.00    +0.085 C 
ATOM     17  C   UNL     1      -3.831  -3.174  -0.640  0.00  0.00    +0.085 C 
ATOM     19  C   UNL     1      -3.287  -3.872  -2.881  0.00  0.00    +0.104 C 
ENDBRANCH   3   9
ENDBRANCH  18  10
TORSDOF 6
