REMARK  Name = 51137566
REMARK  6 active torsions:
REMARK  status: ('A' for Active; 'I' for Inactive)
REMARK    1  A    between atoms: N_2  and  C_10
REMARK    2  A    between atoms: C_6  and  C_11
REMARK    3  A    between atoms: C_10  and  C_12
REMARK    4  A    between atoms: C_16  and  C_18
REMARK    5  A    between atoms: C_18  and  C_20
REMARK    6  A    between atoms: C_20  and  C_23
REMARK                            x       y       z     vdW  Elec       q    Type
REMARK                         _______ _______ _______ _____ _____    ______ ____
ROOT
ATOM      2  N   UNL     1      -0.501  -0.079  -0.060  0.00  0.00    -0.297 NA
ATOM      6  C   UNL     1       1.538  -1.015   0.624  0.00  0.00    +0.092 C 
ATOM      7  C   UNL     1       0.639  -0.821  -0.604  0.00  0.00    +0.097 C 
ATOM      8  C   UNL     1       1.155   0.135   1.572  0.00  0.00    +0.029 C 
ATOM      9  C   UNL     1       0.090   0.926   0.823  0.00  0.00    +0.085 C 
ENDROOT
BRANCH   6  11
ATOM      1  O   UNL     1       3.545   0.000  -0.344  0.00  0.00    -0.424 OA
ATOM      3  N   UNL     1       3.868  -2.056   0.477  0.00  0.00    -0.112 NA
ATOM      5  N   UNL     1       5.071  -1.605  -0.033  0.00  0.00    -0.112 NA
ATOM     11  C   UNL     1       3.006  -1.087   0.274  0.00  0.00    +0.222 A 
ATOM     16  C   UNL     1       4.835  -0.402  -0.501  0.00  0.00    +0.217 A 
BRANCH  16  18
ATOM     18  C   UNL     1       5.750   0.545  -1.152  0.00  0.00    +0.097 C 
BRANCH  18  20
ATOM     20  C   UNL     1       6.677   1.271  -0.154  0.00  0.00    +0.006 C 
ATOM     23  C   UNL     1       5.912   2.111   0.856  0.00  0.00    +0.004 C 
ENDBRANCH  18  20
ENDBRANCH  16  18
ENDBRANCH   6  11
BRANCH   2  10
ATOM     10  C   UNL     1      -1.325   0.515  -1.102  0.00  0.00    +0.121 C 
BRANCH  10  12
ATOM      4  N   UNL     1      -4.416   2.077   0.142  0.00  0.00    -0.360 N 
ATOM     12  C   UNL     1      -2.692   0.886  -0.592  0.00  0.00    -0.008 A 
ATOM     13  C   UNL     1      -3.772  -0.005  -0.336  0.00  0.00    +0.004 A 
ATOM     14  C   UNL     1      -3.119   2.159  -0.289  0.00  0.00    +0.088 A 
ATOM     15  C   UNL     1      -4.841   0.768   0.123  0.00  0.00    +0.047 A 
ATOM     17  C   UNL     1      -3.943  -1.399  -0.451  0.00  0.00    +0.010 A 
ATOM     19  C   UNL     1      -6.077   0.214   0.475  0.00  0.00    +0.026 A 
ATOM     21  C   UNL     1      -5.174  -1.967  -0.103  0.00  0.00    +0.001 A 
ATOM     22  C   UNL     1      -6.223  -1.171   0.352  0.00  0.00    +0.002 A 
ATOM     24  H   UNL     1      -4.980   2.864   0.431  0.00  0.00    +0.165 HD
ENDBRANCH  10  12
ENDBRANCH   2  10
TORSDOF 5
