REMARK  Name = 75367758
REMARK  5 active torsions:
REMARK  status: ('A' for Active; 'I' for Inactive)
REMARK    1  A    between atoms: O_2  and  C_6
REMARK    2  A    between atoms: O_3  and  C_14
REMARK    3  A    between atoms: O_3  and  C_17
REMARK    4  A    between atoms: N_4  and  C_8
REMARK    5  A    between atoms: C_8  and  C_11
REMARK                            x       y       z     vdW  Elec       q    Type
REMARK                         _______ _______ _______ _____ _____    ______ ____
ROOT
ATOM      1  O   UNL     1       3.292  -0.699  -1.756  0.00  0.00    -0.376 OA
ATOM      4  N   UNL     1       1.268   0.486   0.299  0.00  0.00    -0.293 NA
ATOM      5  C   UNL     1       2.435   0.358   1.178  0.00  0.00    +0.118 C 
ATOM      6  C   UNL     1       3.745  -0.154   0.559  0.00  0.00    +0.154 C 
ATOM      7  C   UNL     1       1.579   0.940  -1.057  0.00  0.00    +0.113 C 
ATOM      9  C   UNL     1       3.563  -1.257  -0.475  0.00  0.00    +0.192 C 
ATOM     10  C   UNL     1       1.954  -0.256  -1.934  0.00  0.00    +0.175 C 
ENDROOT
BRANCH   6   2
ATOM      2  O   UNL     1       4.563  -0.667   1.611  0.00  0.00    -0.388 OA
ATOM     18  H   UNL     1       4.705   0.054   2.249  0.00  0.00    +0.210 HD
ENDBRANCH   6   2
BRANCH   4   8
ATOM      8  C   UNL     1       0.255   1.335   0.928  0.00  0.00    +0.119 C 
BRANCH   8  11
ATOM     11  C   UNL     1      -1.135   0.985   0.469  0.00  0.00    -0.030 A 
ATOM     12  C   UNL     1      -1.628  -0.305   0.662  0.00  0.00    +0.050 A 
ATOM     13  C   UNL     1      -1.929   1.950  -0.150  0.00  0.00    +0.005 A 
ATOM     14  C   UNL     1      -2.916  -0.631   0.236  0.00  0.00    +0.120 A 
ATOM     15  C   UNL     1      -3.217   1.625  -0.576  0.00  0.00    +0.004 A 
ATOM     16  C   UNL     1      -3.711   0.334  -0.383  0.00  0.00    +0.045 A 
BRANCH  14   3
ATOM      3  O   UNL     1      -3.397  -1.890   0.424  0.00  0.00    -0.495 OA
ATOM     17  C   UNL     1      -4.721  -2.155  -0.036  0.00  0.00    +0.277 C 
ENDBRANCH  14   3
ENDBRANCH   8  11
ENDBRANCH   4   8
TORSDOF 4
