REMARK  Name = 7663812
REMARK  8 active torsions:
REMARK  status: ('A' for Active; 'I' for Inactive)
REMARK    1  A    between atoms: O_5  and  C_28
REMARK    2  A    between atoms: O_5  and  C_32
REMARK    3  A    between atoms: N_9  and  C_23
REMARK    4  A    between atoms: C_10  and  C_17
REMARK    5  A    between atoms: C_15  and  C_21
REMARK    6  A    between atoms: C_22  and  C_24
REMARK    7  A    between atoms: C_23  and  C_25
REMARK    8  A    between atoms: C_23  and  C_28
REMARK                            x       y       z     vdW  Elec       q    Type
REMARK                         _______ _______ _______ _____ _____    ______ ____
ROOT
ATOM      2  O   UNL     1      -3.163  -2.027  -0.939  0.00  0.00    -0.275 OA
ATOM      4  O   UNL     1       3.029   0.852  -1.396  0.00  0.00    -0.270 OA
ATOM      7  N   UNL     1      -1.676  -0.277  -0.565  0.00  0.00    -0.287 N 
ATOM      8  N   UNL     1       0.709   1.098  -1.280  0.00  0.00    -0.294 N 
ATOM     15  C   UNL     1      -0.532  -1.032  -1.096  0.00  0.00    +0.179 C 
ATOM     17  C   UNL     1      -2.918  -0.913  -0.469  0.00  0.00    +0.219 C 
ATOM     18  C   UNL     1      -1.383   1.055  -0.004  0.00  0.00    +0.127 C 
ATOM     19  C   UNL     1       0.422  -0.178  -1.932  0.00  0.00    +0.140 C 
ATOM     20  C   UNL     1      -0.485   1.870  -0.925  0.00  0.00    +0.127 C 
ATOM     22  C   UNL     1       2.031   1.505  -1.096  0.00  0.00    +0.247 C 
ENDROOT
BRANCH  22  24
ATOM      1  F   UNL     1       2.740   4.264   2.827  0.00  0.00    -0.205 F 
ATOM     24  C   UNL     1       2.272   2.814  -0.477  0.00  0.00    +0.040 A 
ATOM     26  C   UNL     1       2.394   2.919   0.909  0.00  0.00    +0.051 A 
ATOM     27  C   UNL     1       2.380   3.953  -1.274  0.00  0.00    +0.013 A 
ATOM     29  C   UNL     1       2.623   4.163   1.497  0.00  0.00    +0.124 A 
ATOM     30  C   UNL     1       2.610   5.197  -0.687  0.00  0.00    +0.004 A 
ATOM     31  C   UNL     1       2.731   5.302   0.699  0.00  0.00    +0.038 A 
ENDBRANCH  22  24
BRANCH  17  10
ATOM     10  C   UNL     1      -4.002  -0.168   0.252  0.00  0.00    +0.075 C 
ATOM     11  C   UNL     1      -4.943  -1.157   0.944  0.00  0.00    +0.013 C 
ATOM     12  C   UNL     1      -4.758   0.731  -0.728  0.00  0.00    +0.013 C 
ATOM     13  C   UNL     1      -6.116  -0.446   1.613  0.00  0.00    +0.001 C 
ATOM     14  C   UNL     1      -5.932   1.438  -0.055  0.00  0.00    +0.001 C 
ATOM     16  C   UNL     1      -6.867   0.447   0.631  0.00  0.00    +0.000 C 
ENDBRANCH  17  10
BRANCH  15  21
ATOM      3  O   UNL     1      -0.209  -1.424   1.239  0.00  0.00    -0.274 OA
ATOM      9  N   UNL     1       1.246  -2.418  -0.282  0.00  0.00    -0.301 N 
ATOM     21  C   UNL     1       0.164  -1.639   0.088  0.00  0.00    +0.236 C 
ATOM     33  H   UNL     1       1.443  -2.565  -1.267  0.00  0.00    +0.150 HD
BRANCH   9  23
ATOM     23  C   UNL     1       2.096  -3.094   0.671  0.00  0.00    +0.179 C 
ATOM     25  C   UNL     1       3.251  -2.194   1.083  0.00  0.00    +0.040 C 
BRANCH  23  28
ATOM      6  O   UNL     1       2.395  -4.793  -1.019  0.00  0.00    -0.249 OA
ATOM     28  C   UNL     1       2.622  -4.413   0.125  0.00  0.00    +0.327 C 
BRANCH  28   5
ATOM      5  O   UNL     1       3.364  -5.093   1.044  0.00  0.00    -0.467 OA
ATOM     32  C   UNL     1       3.905  -6.344   0.604  0.00  0.00    +0.280 C 
ENDBRANCH  28   5
ENDBRANCH  23  28
ENDBRANCH   9  23
ENDBRANCH  15  21
TORSDOF 6
