REMARK  Name = 40779893
REMARK  6 active torsions:
REMARK  status: ('A' for Active; 'I' for Inactive)
REMARK    1  A    between atoms: S_2  and  N_7
REMARK    2  A    between atoms: S_2  and  C_23
REMARK    3  A    between atoms: N_6  and  C_15
REMARK    4  A    between atoms: N_7  and  C_16
REMARK    5  A    between atoms: C_9  and  C_15
REMARK    6  A    between atoms: C_10  and  C_16
REMARK                            x       y       z     vdW  Elec       q    Type
REMARK                         _______ _______ _______ _____ _____    ______ ____
ROOT
ATOM      5  N   UNL     1      -0.213  -2.961   1.206  0.00  0.00    -0.298 NA
ATOM      8  C   UNL     1       0.664  -2.839  -1.240  0.00  0.00    -0.002 C 
ATOM      9  C   UNL     1       1.437  -1.860  -0.327  0.00  0.00    +0.023 C 
ATOM     10  C   UNL     1      -1.347  -2.743   0.269  0.00  0.00    +0.072 C 
ATOM     11  C   UNL     1      -0.841  -2.518  -1.173  0.00  0.00    +0.024 C 
ATOM     12  C   UNL     1       0.782  -1.869   1.073  0.00  0.00    +0.090 C 
ATOM     13  C   UNL     1       0.856  -4.248  -0.648  0.00  0.00    +0.019 C 
ATOM     14  C   UNL     1       0.448  -4.236   0.836  0.00  0.00    +0.085 C 
ENDROOT
BRANCH   9  15
ATOM     15  C   UNL     1       1.526  -0.447  -0.898  0.00  0.00    +0.110 C 
BRANCH  15   6
ATOM      6  N   UNL     1       2.329   0.379  -0.032  0.00  0.00    -0.329 N 
ATOM     17  C   UNL     1       1.820   1.607   0.577  0.00  0.00    +0.110 C 
ATOM     18  C   UNL     1       3.704   0.524  -0.148  0.00  0.00    +0.033 A 
ATOM     19  C   UNL     1       3.017   2.281   1.277  0.00  0.00    +0.056 C 
ATOM     20  C   UNL     1       4.167   1.625   0.583  0.00  0.00    -0.025 A 
ATOM     21  C   UNL     1       4.603  -0.262  -0.852  0.00  0.00    +0.023 A 
ATOM     22  C   UNL     1       5.509   1.962   0.636  0.00  0.00    +0.005 A 
ATOM     24  C   UNL     1       5.962   0.070  -0.816  0.00  0.00    +0.002 A 
ATOM     25  C   UNL     1       6.411   1.174  -0.077  0.00  0.00    +0.000 A 
ENDBRANCH  15   6
ENDBRANCH   9  15
BRANCH  10  16
ATOM     16  C   UNL     1      -2.276  -1.616   0.728  0.00  0.00    +0.124 C 
BRANCH  16   7
ATOM      7  N   UNL     1      -3.424  -1.555  -0.136  0.00  0.00    -0.188 NA
ATOM     31  H   UNL     1      -3.304  -1.879  -1.103  0.00  0.00    +0.148 HD
BRANCH   7   2
ATOM      2  S   UNL     1      -4.665  -0.390   0.116  0.00  0.00    +0.058 S 
ATOM      3  O   UNL     1      -5.127  -0.492   1.487  0.00  0.00    -0.153 OA
ATOM      4  O   UNL     1      -5.616  -0.431  -0.979  0.00  0.00    -0.153 OA
BRANCH   2  23
ATOM      1 CL   UNL     1      -1.450   4.973  -0.449  0.00  0.00    -0.084 Cl
ATOM     23  C   UNL     1      -3.760   1.120  -0.043  0.00  0.00    +0.105 A 
ATOM     26  C   UNL     1      -3.631   1.728  -1.292  0.00  0.00    +0.030 A 
ATOM     27  C   UNL     1      -3.175   1.704   1.080  0.00  0.00    +0.030 A 
ATOM     28  C   UNL     1      -2.917   2.919  -1.418  0.00  0.00    +0.022 A 
ATOM     29  C   UNL     1      -2.460   2.895   0.955  0.00  0.00    +0.022 A 
ATOM     30  C   UNL     1      -2.332   3.503  -0.294  0.00  0.00    +0.041 A 
ENDBRANCH   2  23
ENDBRANCH   7   2
ENDBRANCH  16   7
ENDBRANCH  10  16
TORSDOF 6
