REMARK  Name = 56774347
REMARK  10 active torsions:
REMARK  status: ('A' for Active; 'I' for Inactive)
REMARK    1  A    between atoms: O_3  and  C_19
REMARK    2  A    between atoms: O_3  and  C_23
REMARK    3  A    between atoms: N_4  and  C_9
REMARK    4  A    between atoms: N_6  and  C_18
REMARK    5  A    between atoms: C_7  and  C_12
REMARK    6  A    between atoms: C_7  and  C_13
REMARK    7  A    between atoms: C_8  and  C_11
REMARK    8  A    between atoms: C_11  and  C_14
REMARK    9  A    between atoms: C_17  and  C_19
REMARK   10  A    between atoms: C_18  and  C_20
REMARK                            x       y       z     vdW  Elec       q    Type
REMARK                         _______ _______ _______ _____ _____    ______ ____
ROOT
ATOM      7  C   UNL     1      -1.852   1.784  -0.186  0.00  0.00    -0.013 C 
ATOM      8  C   UNL     1      -0.326   1.892   0.014  0.00  0.00    +0.004 C 
ATOM      9  C   UNL     1      -1.924   1.234   1.254  0.00  0.00    +0.081 C 
ATOM     10  C   UNL     1      -0.462   0.777   1.071  0.00  0.00    +0.027 C 
ATOM     12  C   UNL     1      -2.527   3.116  -0.427  0.00  0.00    +0.013 C 
ATOM     13  C   UNL     1      -2.312   0.774  -1.222  0.00  0.00    +0.013 C 
ENDROOT
BRANCH   9   4
ATOM      2  O   UNL     1      -4.808   1.385   1.308  0.00  0.00    -0.253 OA
ATOM      4  N   UNL     1      -2.868   0.124   1.467  0.00  0.00    -0.296 N 
ATOM      6  N   UNL     1      -4.916  -0.902   1.696  0.00  0.00    -0.295 N 
ATOM     15  C   UNL     1      -4.251   0.301   1.475  0.00  0.00    +0.300 C 
ATOM     32  H   UNL     1      -2.520  -0.818   1.623  0.00  0.00    +0.151 HD
ATOM     33  H   UNL     1      -4.371  -1.752   1.799  0.00  0.00    +0.151 HD
BRANCH   6  18
ATOM     18  C   UNL     1      -6.356  -0.997   1.752  0.00  0.00    +0.141 C 
BRANCH  18  20
ATOM     20  C   UNL     1      -6.954  -1.266   0.401  0.00  0.00    -0.030 A 
ATOM     21  C   UNL     1      -7.318  -0.202  -0.425  0.00  0.00    +0.005 A 
ATOM     22  C   UNL     1      -7.145  -2.579  -0.029  0.00  0.00    +0.005 A 
ATOM     24  C   UNL     1      -7.873  -0.452  -1.680  0.00  0.00    +0.000 A 
ATOM     25  C   UNL     1      -7.700  -2.829  -1.283  0.00  0.00    +0.000 A 
ATOM     26  C   UNL     1      -8.065  -1.765  -2.109  0.00  0.00    +0.000 A 
ENDBRANCH  18  20
ENDBRANCH   6  18
ENDBRANCH   9   4
BRANCH   8  11
ATOM     11  C   UNL     1       0.553   1.546  -1.165  0.00  0.00    +0.063 C 
BRANCH  11  14
ATOM      1  O   UNL     1       4.020   2.036  -0.291  0.00  0.00    -0.356 OA
ATOM      5  N   UNL     1       2.789   2.494  -0.746  0.00  0.00    -0.083 NA
ATOM     14  C   UNL     1       1.993   1.421  -0.728  0.00  0.00    +0.084 A 
ATOM     16  C   UNL     1       2.659   0.270  -0.275  0.00  0.00    +0.074 A 
ATOM     17  C   UNL     1       3.930   0.710  -0.013  0.00  0.00    +0.175 A 
BRANCH  17  19
ATOM     19  C   UNL     1       5.149   0.060   0.483  0.00  0.00    +0.306 C 
BRANCH  19   3
ATOM      3  O   UNL     1       6.076  -0.138  -0.588  0.00  0.00    -0.484 OA
BRANCH   3  23
ATOM     23  C   UNL     1       7.234  -0.795  -0.277  0.00  0.00    +0.121 A 
ATOM     27  C   UNL     1       7.458  -1.233   1.028  0.00  0.00    +0.045 A 
ATOM     28  C   UNL     1       8.190  -1.028  -1.265  0.00  0.00    +0.045 A 
ATOM     29  C   UNL     1       8.639  -1.904   1.346  0.00  0.00    +0.004 A 
ATOM     30  C   UNL     1       9.371  -1.699  -0.948  0.00  0.00    +0.004 A 
ATOM     31  C   UNL     1       9.596  -2.137   0.357  0.00  0.00    +0.000 A 
ENDBRANCH   3  23
ENDBRANCH  19   3
ENDBRANCH  17  19
ENDBRANCH  11  14
ENDBRANCH   8  11
TORSDOF 8
