REMARK  Name = 28960552
REMARK  6 active torsions:
REMARK  status: ('A' for Active; 'I' for Inactive)
REMARK    1  A    between atoms: O_3  and  C_11
REMARK    2  A    between atoms: N_6  and  C_10
REMARK    3  A    between atoms: N_7  and  C_12
REMARK    4  A    between atoms: N_9  and  C_23
REMARK    5  A    between atoms: C_20  and  C_21
REMARK    6  A    between atoms: C_23  and  C_24
REMARK                            x       y       z     vdW  Elec       q    Type
REMARK                         _______ _______ _______ _____ _____    ______ ____
ROOT
ATOM      1  O   UNL     1       0.153  -2.127  -1.603  0.00  0.00    -0.342 OA
ATOM      2  O   UNL     1       0.086  -4.009  -0.247  0.00  0.00    -0.347 OA
ATOM     10  C   UNL     1      -0.737  -1.910   0.628  0.00  0.00    +0.143 C 
ATOM     11  C   UNL     1       0.666  -1.563   1.175  0.00  0.00    +0.159 C 
ATOM     12  C   UNL     1       1.741  -1.433   0.074  0.00  0.00    +0.136 C 
ATOM     13  C   UNL     1      -0.625  -2.814  -0.613  0.00  0.00    +0.270 C 
ATOM     14  C   UNL     1       1.486  -2.356  -1.135  0.00  0.00    +0.170 C 
ATOM     15  C   UNL     1       1.406  -3.830  -0.785  0.00  0.00    +0.196 C 
ENDROOT
BRANCH  12   7
ATOM      5  O   UNL     1       3.400   0.645   1.194  0.00  0.00    -0.253 OA
ATOM      7  N   UNL     1       1.836  -0.059  -0.370  0.00  0.00    -0.291 N 
ATOM      9  N   UNL     1       2.563   2.119  -0.392  0.00  0.00    -0.296 N 
ATOM     22  C   UNL     1       2.667   0.878   0.233  0.00  0.00    +0.300 C 
ATOM     26  H   UNL     1       1.211   0.254  -1.107  0.00  0.00    +0.151 HD
ATOM     30  H   UNL     1       1.946   2.211  -1.193  0.00  0.00    +0.151 HD
BRANCH   9  23
ATOM     23  C   UNL     1       3.318   3.274   0.033  0.00  0.00    +0.132 C 
BRANCH  23  24
ATOM     24  C   UNL     1       4.615   3.308  -0.705  0.00  0.00    -0.016 C 
ATOM     25  C   UNL     1       5.812   3.296  -0.109  0.00  0.00    +0.005 C 
ENDBRANCH  23  24
ENDBRANCH   9  23
ENDBRANCH  12   7
BRANCH  10   6
ATOM      6  N   UNL     1      -1.461  -0.684   0.285  0.00  0.00    -0.293 NA
ATOM     16  C   UNL     1      -2.568  -0.983  -0.634  0.00  0.00    +0.085 C 
ATOM     17  C   UNL     1      -1.946  -0.016   1.500  0.00  0.00    +0.085 C 
ATOM     18  C   UNL     1      -3.301   0.295  -1.047  0.00  0.00    +0.028 C 
ATOM     19  C   UNL     1      -2.658   1.295   1.162  0.00  0.00    +0.028 C 
ATOM     20  C   UNL     1      -3.800   1.066   0.174  0.00  0.00    +0.077 C 
BRANCH  20  21
ATOM      4  O   UNL     1      -3.962   2.992  -1.230  0.00  0.00    -0.276 OA
ATOM      8  N   UNL     1      -5.373   2.841   0.581  0.00  0.00    -0.329 N 
ATOM     21  C   UNL     1      -4.374   2.384  -0.245  0.00  0.00    +0.214 C 
ATOM     28  H   UNL     1      -5.686   2.325   1.397  0.00  0.00    +0.145 HD
ATOM     29  H   UNL     1      -5.834   3.727   0.400  0.00  0.00    +0.145 HD
ENDBRANCH  20  21
ENDBRANCH  10   6
BRANCH  11   3
ATOM      3  O   UNL     1       1.055  -2.608   2.077  0.00  0.00    -0.388 OA
ATOM     27  H   UNL     1       1.911  -2.360   2.464  0.00  0.00    +0.210 HD
ENDBRANCH  11   3
TORSDOF 6
