REMARK  Name = 28960439
REMARK  8 active torsions:
REMARK  status: ('A' for Active; 'I' for Inactive)
REMARK    1  A    between atoms: O_3  and  C_10
REMARK    2  A    between atoms: O_4  and  C_22
REMARK    3  A    between atoms: O_4  and  C_31
REMARK    4  A    between atoms: N_5  and  C_9
REMARK    5  A    between atoms: N_6  and  C_11
REMARK    6  A    between atoms: N_6  and  C_19
REMARK    7  A    between atoms: N_7  and  C_20
REMARK    8  A    between atoms: C_19  and  C_21
REMARK                            x       y       z     vdW  Elec       q    Type
REMARK                         _______ _______ _______ _____ _____    ______ ____
ROOT
ATOM      1  O   UNL     1       1.923  -2.277  -1.567  0.00  0.00    -0.343 OA
ATOM      2  O   UNL     1       2.227  -4.164  -0.254  0.00  0.00    -0.347 OA
ATOM      9  C   UNL     1       0.992  -2.297   0.661  0.00  0.00    +0.143 C 
ATOM     10  C   UNL     1       2.295  -1.686   1.226  0.00  0.00    +0.156 C 
ATOM     11  C   UNL     1       3.332  -1.306   0.141  0.00  0.00    +0.116 C 
ATOM     12  C   UNL     1       3.272  -2.241  -1.089  0.00  0.00    +0.166 C 
ATOM     13  C   UNL     1       1.292  -3.128  -0.601  0.00  0.00    +0.270 C 
ATOM     14  C   UNL     1       3.488  -3.708  -0.767  0.00  0.00    +0.196 C 
ENDROOT
BRANCH   9   5
ATOM      5  N   UNL     1       0.020  -1.249   0.349  0.00  0.00    -0.290 NA
ATOM      7  N   UNL     1      -2.570  -0.052   0.208  0.00  0.00    -0.325 N 
ATOM     15  C   UNL     1      -0.655  -0.793   1.570  0.00  0.00    +0.104 C 
ATOM     16  C   UNL     1      -0.972  -1.737  -0.618  0.00  0.00    +0.104 C 
ATOM     17  C   UNL     1      -1.634   0.344   1.265  0.00  0.00    +0.120 C 
ATOM     18  C   UNL     1      -1.960  -0.631  -0.995  0.00  0.00    +0.120 C 
BRANCH   7  20
ATOM     20  C   UNL     1      -3.786   0.625   0.069  0.00  0.00    +0.072 A 
ATOM     22  C   UNL     1      -4.911  -0.031  -0.430  0.00  0.00    +0.141 A 
ATOM     23  C   UNL     1      -3.867   1.969   0.433  0.00  0.00    +0.027 A 
ATOM     25  C   UNL     1      -6.117   0.656  -0.565  0.00  0.00    +0.047 A 
ATOM     26  C   UNL     1      -5.074   2.657   0.299  0.00  0.00    +0.002 A 
ATOM     27  C   UNL     1      -6.199   2.000  -0.200  0.00  0.00    +0.004 A 
BRANCH  22   4
ATOM      4  O   UNL     1      -4.853  -1.344  -0.792  0.00  0.00    -0.493 OA
ATOM     31  C   UNL     1      -5.150  -2.307   0.216  0.00  0.00    +0.277 C 
ENDBRANCH  22   4
ENDBRANCH   7  20
ENDBRANCH   9   5
BRANCH  10   3
ATOM      3  O   UNL     1       2.885  -2.658   2.102  0.00  0.00    -0.388 OA
ATOM     33  H   UNL     1       3.670  -2.250   2.506  0.00  0.00    +0.210 HD
ENDBRANCH  10   3
BRANCH  11   6
ATOM      6  N   UNL     1       3.116   0.070  -0.319  0.00  0.00    -0.303 NA
ATOM     32  H   UNL     1       2.121   0.225  -0.479  0.00  0.00    +0.123 HD
BRANCH   6  19
ATOM     19  C   UNL     1       3.623   1.019   0.657  0.00  0.00    +0.137 C 
BRANCH  19  21
ATOM      8  N   UNL     1       2.404   3.119   0.813  0.00  0.00    -0.259 NA
ATOM     21  C   UNL     1       3.411   2.443   0.216  0.00  0.00    +0.055 A 
ATOM     24  C   UNL     1       4.238   2.982  -0.756  0.00  0.00    +0.024 A 
ATOM     28  C   UNL     1       4.018   4.300  -1.140  0.00  0.00    +0.003 A 
ATOM     29  C   UNL     1       2.220   4.397   0.414  0.00  0.00    +0.111 A 
ATOM     30  C   UNL     1       2.991   5.028  -0.548  0.00  0.00    +0.020 A 
ENDBRANCH  19  21
ENDBRANCH   6  19
ENDBRANCH  11   6
TORSDOF 7
