REMARK  Name = 45783553
REMARK  11 active torsions:
REMARK  status: ('A' for Active; 'I' for Inactive)
REMARK    1  A    between atoms: O_3  and  C_22
REMARK    2  A    between atoms: O_4  and  C_26
REMARK    3  A    between atoms: O_4  and  C_27
REMARK    4  A    between atoms: O_5  and  C_28
REMARK    5  A    between atoms: O_5  and  C_29
REMARK    6  A    between atoms: N_6  and  C_14
REMARK    7  A    between atoms: C_10  and  C_15
REMARK    8  A    between atoms: C_14  and  C_16
REMARK    9  A    between atoms: C_18  and  C_21
REMARK   10  A    between atoms: C_19  and  C_22
REMARK   11  A    between atoms: C_27  and  C_28
REMARK                            x       y       z     vdW  Elec       q    Type
REMARK                         _______ _______ _______ _____ _____    ______ ____
ROOT
ATOM      1  O   UNL     1      -2.088  -1.008   2.015  0.00  0.00    -0.336 OA
ATOM      7  N   UNL     1      -1.246  -1.191  -0.052  0.00  0.00    -0.190 NA
ATOM      8  N   UNL     1      -0.723  -0.715   2.124  0.00  0.00    -0.056 NA
ATOM     15  C   UNL     1      -2.312  -1.277   0.702  0.00  0.00    +0.245 A 
ATOM     18  C   UNL     1      -0.296  -0.844   0.864  0.00  0.00    +0.204 A 
ENDROOT
BRANCH  18  21
ATOM      9  N   UNL     1       3.331  -0.068   1.140  0.00  0.00    -0.221 NA
ATOM     21  C   UNL     1       1.073  -0.634   0.488  0.00  0.00    +0.041 A 
ATOM     23  C   UNL     1       1.482  -0.778  -0.833  0.00  0.00    +0.018 A 
ATOM     24  C   UNL     1       2.027  -0.281   1.428  0.00  0.00    +0.126 A 
ATOM     25  C   UNL     1       2.815  -0.568  -1.169  0.00  0.00    +0.068 A 
ATOM     26  C   UNL     1       3.692  -0.217  -0.155  0.00  0.00    +0.215 A 
BRANCH  26   4
ATOM      4  O   UNL     1       5.010  -0.004  -0.460  0.00  0.00    -0.474 OA
BRANCH   4  27
ATOM     27  C   UNL     1       5.867   0.354   0.618  0.00  0.00    +0.258 C 
BRANCH  27  28
ATOM     28  C   UNL     1       7.280   0.523   0.092  0.00  0.00    +0.200 C 
BRANCH  28   5
ATOM      5  O   UNL     1       7.719  -0.710  -0.464  0.00  0.00    -0.380 OA
ATOM     29  C   UNL     1       9.033  -0.604  -0.994  0.00  0.00    +0.194 C 
ENDBRANCH  28   5
ENDBRANCH  27  28
ENDBRANCH   4  27
ENDBRANCH  26   4
ENDBRANCH  18  21
BRANCH  15  10
ATOM      6  N   UNL     1      -4.281  -0.727  -0.716  0.00  0.00    -0.284 NA
ATOM     10  C   UNL     1      -3.734  -1.628   0.318  0.00  0.00    +0.146 C 
ATOM     11  C   UNL     1      -3.856  -3.038  -0.287  0.00  0.00    +0.030 C 
ATOM     12  C   UNL     1      -4.537  -2.835  -1.633  0.00  0.00    +0.017 C 
ATOM     13  C   UNL     1      -5.256  -1.511  -1.473  0.00  0.00    +0.085 C 
BRANCH   6  14
ATOM     14  C   UNL     1      -4.865   0.491  -0.167  0.00  0.00    +0.159 C 
BRANCH  14  16
ATOM      2  O   UNL     1      -3.011   1.917  -0.839  0.00  0.00    -0.461 OA
ATOM     16  C   UNL     1      -3.812   1.510   0.180  0.00  0.00    +0.119 A 
ATOM     17  C   UNL     1      -3.468   2.147   1.349  0.00  0.00    +0.046 A 
ATOM     19  C   UNL     1      -2.145   2.824  -0.315  0.00  0.00    +0.131 A 
ATOM     20  C   UNL     1      -2.385   3.000   1.028  0.00  0.00    +0.047 A 
BRANCH  19  22
ATOM     22  C   UNL     1      -1.171   3.408  -1.247  0.00  0.00    +0.230 C 
BRANCH  22   3
ATOM      3  O   UNL     1      -0.141   2.462  -1.543  0.00  0.00    -0.387 OA
ATOM     30  H   UNL     1       0.474   2.896  -2.159  0.00  0.00    +0.210 HD
ENDBRANCH  22   3
ENDBRANCH  19  22
ENDBRANCH  14  16
ENDBRANCH   6  14
ENDBRANCH  15  10
TORSDOF 10
