REMARK  Name = 26762945
REMARK  5 active torsions:
REMARK  status: ('A' for Active; 'I' for Inactive)
REMARK    1  A    between atoms: N_7  and  C_12
REMARK    2  A    between atoms: N_9  and  C_26
REMARK    3  A    between atoms: C_11  and  C_16
REMARK    4  A    between atoms: C_16  and  C_18
REMARK    5  A    between atoms: C_18  and  C_19
REMARK                            x       y       z     vdW  Elec       q    Type
REMARK                         _______ _______ _______ _____ _____    ______ ____
ROOT
ATOM      2  O   UNL     1       2.301  -2.813  -2.698  0.00  0.00    -0.274 OA
ATOM      5  N   UNL     1       1.244  -2.220   0.516  0.00  0.00    -0.285 NA
ATOM      6  N   UNL     1       3.578  -2.334  -0.833  0.00  0.00    -0.313 N 
ATOM     10  C   UNL     1       1.375  -3.260  -0.502  0.00  0.00    +0.145 C 
ATOM     11  C   UNL     1       2.428  -2.081   1.369  0.00  0.00    +0.075 C 
ATOM     12  C   UNL     1      -0.948  -2.840   0.057  0.00  0.00    +0.090 C 
ATOM     13  C   UNL     1      -0.039  -3.378  -1.058  0.00  0.00    +0.052 C 
ATOM     14  C   UNL     1      -0.005  -2.506   1.214  0.00  0.00    +0.107 C 
ATOM     15  C   UNL     1       3.719  -2.459   0.608  0.00  0.00    +0.123 C 
ATOM     17  C   UNL     1       2.431  -2.778  -1.479  0.00  0.00    +0.230 C 
ATOM     30  H   UNL     1       4.367  -2.015  -1.386  0.00  0.00    +0.149 HD
ENDROOT
BRANCH  12   7
ATOM      4  O   UNL     1      -3.512  -1.976   1.002  0.00  0.00    -0.253 OA
ATOM      7  N   UNL     1      -1.683  -1.677  -0.382  0.00  0.00    -0.295 N 
ATOM      9  N   UNL     1      -3.403  -0.157  -0.479  0.00  0.00    -0.269 N 
ATOM     20  C   UNL     1      -2.936  -1.324   0.133  0.00  0.00    +0.304 C 
ATOM     31  H   UNL     1      -1.236  -1.040  -1.034  0.00  0.00    +0.151 HD
ATOM     32  H   UNL     1      -2.810   0.270  -1.186  0.00  0.00    +0.156 HD
BRANCH   9  26
ATOM      1  S   UNL     1      -6.510   2.255  -0.395  0.00  0.00    -0.103 S 
ATOM     26  C   UNL     1      -4.620   0.522  -0.238  0.00  0.00    +0.042 A 
ATOM     27  C   UNL     1      -5.609   0.115   0.703  0.00  0.00    +0.031 A 
ATOM     28  C   UNL     1      -4.983   1.672  -0.905  0.00  0.00    +0.068 A 
ATOM     29  C   UNL     1      -6.689   0.968   0.721  0.00  0.00    +0.047 A 
ENDBRANCH   9  26
ENDBRANCH  12   7
BRANCH  11  16
ATOM     16  C   UNL     1       2.508  -0.634   1.862  0.00  0.00    +0.029 C 
BRANCH  16  18
ATOM     18  C   UNL     1       2.605   0.364   0.718  0.00  0.00    +0.097 C 
BRANCH  18  19
ATOM      3  O   UNL     1       2.586   1.979   2.451  0.00  0.00    -0.276 OA
ATOM      8  N   UNL     1       2.727   2.792   0.279  0.00  0.00    -0.301 N 
ATOM     19  C   UNL     1       2.639   1.780   1.235  0.00  0.00    +0.216 C 
ATOM     21  C   UNL     1       2.762   4.193   0.703  0.00  0.00    +0.108 C 
ATOM     22  C   UNL     1       2.837   2.585  -1.170  0.00  0.00    +0.108 C 
ATOM     23  C   UNL     1       1.678   5.004  -0.002  0.00  0.00    +0.019 C 
ATOM     24  C   UNL     1       1.754   3.366  -1.912  0.00  0.00    +0.019 C 
ATOM     25  C   UNL     1       1.765   4.842  -1.519  0.00  0.00    +0.003 C 
ENDBRANCH  18  19
ENDBRANCH  16  18
ENDBRANCH  11  16
TORSDOF 5
