REMARK  Name = 45783897
REMARK  12 active torsions:
REMARK  status: ('A' for Active; 'I' for Inactive)
REMARK    1  A    between atoms: N_3  and  C_11
REMARK    2  A    between atoms: N_4  and  C_23
REMARK    3  A    between atoms: C_6  and  C_10
REMARK    4  A    between atoms: C_7  and  C_11
REMARK    5  A    between atoms: C_9  and  C_17
REMARK    6  A    between atoms: C_10  and  C_18
REMARK    7  A    between atoms: C_10  and  C_19
REMARK    8  A    between atoms: C_12  and  C_21
REMARK    9  A    between atoms: C_13  and  C_20
REMARK   10  A    between atoms: C_17  and  C_22
REMARK   11  A    between atoms: C_23  and  C_24
REMARK   12  A    between atoms: C_29  and  C_30
REMARK                            x       y       z     vdW  Elec       q    Type
REMARK                         _______ _______ _______ _____ _____    ______ ____
ROOT
ATOM      6  C   UNL     1       1.512   0.138  -1.437  0.00  0.00    +0.000 C 
ATOM      7  C   UNL     1       3.014  -0.143  -1.692  0.00  0.00    +0.032 C 
ATOM      8  C   UNL     1       1.258   1.650  -1.341  0.00  0.00    +0.012 C 
ATOM      9  C   UNL     1       2.076   2.308  -0.214  0.00  0.00    +0.023 C 
ATOM     12  C   UNL     1       3.525   1.865  -0.237  0.00  0.00    -0.073 C 
ATOM     14  C   UNL     1       3.928   0.775  -0.914  0.00  0.00    -0.022 C 
ATOM     21  C   UNL     1       4.509   2.731   0.499  0.00  0.00    +0.039 C 
ENDROOT
BRANCH   6  10
ATOM     10  C   UNL     1       0.627  -0.468  -2.530  0.00  0.00    -0.013 C 
ATOM     18  C   UNL     1       0.589   0.445  -3.752  0.00  0.00    +0.007 C 
ATOM     19  C   UNL     1      -0.781  -0.718  -1.998  0.00  0.00    +0.007 C 
ENDBRANCH   6  10
BRANCH   7  11
ATOM     11  C   UNL     1       3.366  -1.601  -1.376  0.00  0.00    +0.112 C 
BRANCH  11   3
ATOM      1  O   UNL     1       1.605  -3.549  -0.126  0.00  0.00    -0.276 OA
ATOM      3  N   UNL     1       3.213  -1.869   0.020  0.00  0.00    -0.315 N 
ATOM     20  C   UNL     1       2.342  -2.824   0.531  0.00  0.00    +0.216 C 
ATOM     31  H   UNL     1       3.806  -1.363   0.673  0.00  0.00    +0.149 HD
BRANCH  20  13
ATOM     13  C   UNL     1       2.348  -2.936   2.020  0.00  0.00    +0.075 C 
ATOM     15  C   UNL     1       1.483  -2.010   2.823  0.00  0.00    +0.013 C 
ATOM     16  C   UNL     1       1.130  -3.465   2.718  0.00  0.00    +0.013 C 
ENDBRANCH  20  13
ENDBRANCH  11   3
ENDBRANCH   7  11
BRANCH   9  17
ATOM     17  C   UNL     1       1.443   2.040   1.156  0.00  0.00    +0.103 C 
BRANCH  17  22
ATOM      2  O   UNL     1      -0.475   3.382   0.543  0.00  0.00    -0.276 OA
ATOM      4  N   UNL     1      -0.730   1.654   2.077  0.00  0.00    -0.311 N 
ATOM     22  C   UNL     1      -0.011   2.455   1.201  0.00  0.00    +0.214 C 
ATOM     32  H   UNL     1      -0.256   0.909   2.579  0.00  0.00    +0.149 HD
BRANCH   4  23
ATOM     23  C   UNL     1      -2.144   1.824   2.321  0.00  0.00    +0.139 C 
BRANCH  23  24
ATOM     24  C   UNL     1      -2.979   1.009   1.377  0.00  0.00    -0.030 A 
ATOM     25  C   UNL     1      -3.896   1.639   0.535  0.00  0.00    +0.006 A 
ATOM     26  C   UNL     1      -2.838  -0.379   1.341  0.00  0.00    +0.006 A 
ATOM     27  C   UNL     1      -4.672   0.882  -0.342  0.00  0.00    +0.019 A 
ATOM     28  C   UNL     1      -3.614  -1.136   0.463  0.00  0.00    +0.019 A 
ATOM     29  C   UNL     1      -4.531  -0.505  -0.379  0.00  0.00    +0.052 A 
BRANCH  29  30
ATOM      5  N   UNL     1      -5.971  -1.911  -2.008  0.00  0.00    -0.191 NA
ATOM     30  C   UNL     1      -5.326  -1.281  -1.278  0.00  0.00    +0.099 C 
ENDBRANCH  29  30
ENDBRANCH  23  24
ENDBRANCH   4  23
ENDBRANCH  17  22
ENDBRANCH   9  17
TORSDOF 9
