REMARK  Name = 25338738
REMARK  7 active torsions:
REMARK  status: ('A' for Active; 'I' for Inactive)
REMARK    1  A    between atoms: O_3  and  C_24
REMARK    2  A    between atoms: O_3  and  C_28
REMARK    3  A    between atoms: N_4  and  C_13
REMARK    4  A    between atoms: N_5  and  C_8
REMARK    5  A    between atoms: C_9  and  C_12
REMARK    6  A    between atoms: C_14  and  C_16
REMARK    7  A    between atoms: C_15  and  C_17
REMARK                            x       y       z     vdW  Elec       q    Type
REMARK                         _______ _______ _______ _____ _____    ______ ____
ROOT
ATOM      4  N   UNL     1      -1.061   3.013   1.197  0.00  0.00    -0.293 NA
ATOM      8  C   UNL     1       0.712   3.206  -0.304  0.00  0.00    +0.089 C 
ATOM      9  C   UNL     1      -1.694   2.821  -0.121  0.00  0.00    +0.147 C 
ATOM     10  C   UNL     1      -0.515   2.793  -1.115  0.00  0.00    +0.052 C 
ATOM     11  C   UNL     1       0.131   3.832   0.955  0.00  0.00    +0.107 C 
ATOM     13  C   UNL     1      -1.951   3.624   2.178  0.00  0.00    +0.105 C 
ENDROOT
BRANCH   9  12
ATOM      1  O   UNL     1      -3.853   1.762  -0.549  0.00  0.00    -0.336 OA
ATOM      6  N   UNL     1      -2.228   0.328   0.013  0.00  0.00    -0.190 NA
ATOM      7  N   UNL     1      -4.437   0.488  -0.558  0.00  0.00    -0.056 NA
ATOM     12  C   UNL     1      -2.553   1.577  -0.203  0.00  0.00    +0.245 A 
ATOM     15  C   UNL     1      -3.416  -0.303  -0.216  0.00  0.00    +0.202 A 
BRANCH  15  17
ATOM     17  C   UNL     1      -3.548  -1.726  -0.097  0.00  0.00    +0.022 A 
ATOM     20  C   UNL     1      -2.446  -2.501   0.262  0.00  0.00    +0.012 A 
ATOM     21  C   UNL     1      -4.780  -2.334  -0.341  0.00  0.00    +0.012 A 
ATOM     25  C   UNL     1      -2.575  -3.886   0.378  0.00  0.00    +0.001 A 
ATOM     26  C   UNL     1      -4.909  -3.719  -0.225  0.00  0.00    +0.001 A 
ATOM     27  C   UNL     1      -3.806  -4.494   0.134  0.00  0.00    +0.000 A 
ENDBRANCH  15  17
ENDBRANCH   9  12
BRANCH   8   5
ATOM      2  O   UNL     1       2.939   2.240  -1.837  0.00  0.00    -0.270 OA
ATOM      5  N   UNL     1       1.548   2.071   0.011  0.00  0.00    -0.307 N 
ATOM     14  C   UNL     1       2.605   1.680  -0.796  0.00  0.00    +0.244 C 
ATOM     29  H   UNL     1       1.262   1.496   0.796  0.00  0.00    +0.149 HD
BRANCH  14  16
ATOM     16  C   UNL     1       3.351   0.476  -0.348  0.00  0.00    +0.037 A 
ATOM     18  C   UNL     1       4.013  -0.322  -1.282  0.00  0.00    +0.016 A 
ATOM     19  C   UNL     1       3.390   0.144   1.006  0.00  0.00    +0.016 A 
ATOM     22  C   UNL     1       4.713  -1.452  -0.861  0.00  0.00    +0.046 A 
ATOM     23  C   UNL     1       4.091  -0.987   1.427  0.00  0.00    +0.046 A 
ATOM     24  C   UNL     1       4.752  -1.785   0.493  0.00  0.00    +0.120 A 
BRANCH  24   3
ATOM      3  O   UNL     1       5.435  -2.888   0.904  0.00  0.00    -0.495 OA
ATOM     28  C   UNL     1       6.088  -3.660  -0.103  0.00  0.00    +0.277 C 
ENDBRANCH  24   3
ENDBRANCH  14  16
ENDBRANCH   8   5
TORSDOF 5
