REMARK  Name = 44716247
REMARK  8 active torsions:
REMARK  status: ('A' for Active; 'I' for Inactive)
REMARK    1  A    between atoms: N_4  and  C_15
REMARK    2  A    between atoms: N_5  and  C_17
REMARK    3  A    between atoms: C_9  and  C_16
REMARK    4  A    between atoms: C_10  and  C_15
REMARK    5  A    between atoms: C_17  and  C_19
REMARK    6  A    between atoms: C_17  and  C_20
REMARK    7  A    between atoms: C_21  and  C_22
REMARK    8  A    between atoms: C_22  and  C_23
REMARK                            x       y       z     vdW  Elec       q    Type
REMARK                         _______ _______ _______ _____ _____    ______ ____
ROOT
ATOM      3  N   UNL     1      -0.879   1.191  -1.287  0.00  0.00    -0.297 NA
ATOM      8  C   UNL     1      -1.216   0.481   1.194  0.00  0.00    +0.005 C 
ATOM      9  C   UNL     1      -2.169  -0.286   0.256  0.00  0.00    +0.092 C 
ATOM     10  C   UNL     1       0.325   0.470  -0.791  0.00  0.00    +0.078 C 
ATOM     11  C   UNL     1       0.221   0.184   0.725  0.00  0.00    +0.025 C 
ATOM     12  C   UNL     1      -1.429   1.995   1.014  0.00  0.00    +0.020 C 
ATOM     13  C   UNL     1      -2.048   0.282  -1.171  0.00  0.00    +0.097 C 
ATOM     14  C   UNL     1      -1.156   2.380  -0.449  0.00  0.00    +0.085 C 
ENDROOT
BRANCH   9  16
ATOM      1  O   UNL     1      -3.898   0.383   1.761  0.00  0.00    -0.275 OA
ATOM      5  N   UNL     1      -4.446  -0.961  -0.059  0.00  0.00    -0.313 N 
ATOM     16  C   UNL     1      -3.586  -0.233   0.745  0.00  0.00    +0.218 C 
ATOM     24  H   UNL     1      -4.084  -1.401  -0.900  0.00  0.00    +0.149 HD
BRANCH   5  17
ATOM     17  C   UNL     1      -5.861  -1.087   0.208  0.00  0.00    +0.067 C 
ATOM     19  C   UNL     1      -6.632   0.056  -0.440  0.00  0.00    +0.027 C 
ATOM     20  C   UNL     1      -6.371  -2.440  -0.272  0.00  0.00    +0.027 C 
ENDBRANCH   5  17
ENDBRANCH   9  16
BRANCH  10  15
ATOM     15  C   UNL     1       1.622   1.202  -1.142  0.00  0.00    +0.164 C 
BRANCH  15   4
ATOM      4  N   UNL     1       2.831   0.378  -0.799  0.00  0.00    -0.250 N 
ATOM      6  N   UNL     1       3.006  -0.839  -1.341  0.00  0.00    -0.065 NA
ATOM      7  N   UNL     1       4.146  -1.324  -0.860  0.00  0.00    -0.127 NA
ATOM     18  C   UNL     1       3.851   0.705   0.040  0.00  0.00    +0.141 A 
ATOM     21  C   UNL     1       4.676  -0.391  -0.013  0.00  0.00    +0.147 A 
BRANCH  21  22
ATOM      2  O   UNL     1       6.380   0.297   1.465  0.00  0.00    -0.291 OA
ATOM     22  C   UNL     1       5.907  -0.576   0.689  0.00  0.00    +0.181 C 
ATOM     23  C   UNL     1       6.726  -1.867   0.527  0.00  0.00    +0.093 C 
ENDBRANCH  21  22
ENDBRANCH  15   4
ENDBRANCH  10  15
TORSDOF 5
