REMARK  Name = 7142629
REMARK  4 active torsions:
REMARK  status: ('A' for Active; 'I' for Inactive)
REMARK    1  A    between atoms: O_5  and  C_24
REMARK    2  A    between atoms: O_5  and  C_29
REMARK    3  A    between atoms: C_17  and  C_21
REMARK    4  A    between atoms: C_20  and  C_23
REMARK                            x       y       z     vdW  Elec       q    Type
REMARK                         _______ _______ _______ _____ _____    ______ ____
ROOT
ATOM      2  O   UNL     1      -3.762  -1.168   1.706  0.00  0.00    -0.273 OA
ATOM      3  O   UNL     1      -0.437   2.430  -0.279  0.00  0.00    -0.270 OA
ATOM      4  O   UNL     1      -6.713  -1.270  -0.913  0.00  0.00    -0.276 OA
ATOM      6  N   UNL     1      -2.187   0.918  -0.302  0.00  0.00    -0.283 N 
ATOM      7  N   UNL     1      -5.001   0.271  -0.607  0.00  0.00    -0.298 N 
ATOM      8  N   UNL     1      -1.492  -1.039   1.805  0.00  0.00    -0.283 N 
ATOM      9  C   UNL     1      -2.629  -0.469  -0.308  0.00  0.00    +0.180 C 
ATOM     10  C   UNL     1      -3.960  -0.664  -1.044  0.00  0.00    +0.139 C 
ATOM     11  C   UNL     1      -3.159   1.933  -0.711  0.00  0.00    +0.128 C 
ATOM     12  C   UNL     1      -4.561   1.612  -0.213  0.00  0.00    +0.127 C 
ATOM     13  C   UNL     1      -2.697  -0.890   1.152  0.00  0.00    +0.239 C 
ATOM     14  C   UNL     1      -0.861   1.287  -0.100  0.00  0.00    +0.249 C 
ATOM     15  C   UNL     1       0.105   0.265   0.386  0.00  0.00    +0.059 A 
ATOM     16  C   UNL     1      -0.200  -0.723   1.336  0.00  0.00    +0.046 A 
ATOM     17  C   UNL     1      -6.333  -0.145  -0.584  0.00  0.00    +0.213 C 
ATOM     18  C   UNL     1       1.441   0.443  -0.019  0.00  0.00    +0.023 A 
ATOM     19  C   UNL     1       0.850  -1.462   1.909  0.00  0.00    +0.024 A 
ATOM     20  C   UNL     1       2.464  -0.333   0.524  0.00  0.00    -0.014 A 
ATOM     21  C   UNL     1      -7.342   0.880  -0.126  0.00  0.00    +0.109 C 
ATOM     22  C   UNL     1       2.170  -1.277   1.499  0.00  0.00    +0.010 A 
ATOM     30  H   UNL     1      -1.536  -1.528   2.696  0.00  0.00    +0.155 HD
ENDROOT
BRANCH  20  23
ATOM      1 CL   UNL     1       6.932   2.153   1.163  0.00  0.00    -0.084 Cl
ATOM     23  C   UNL     1       3.830  -0.139   0.091  0.00  0.00    +0.025 A 
ATOM     24  C   UNL     1       4.357  -0.873  -0.973  0.00  0.00    +0.128 A 
ATOM     25  C   UNL     1       4.628   0.797   0.751  0.00  0.00    +0.032 A 
ATOM     26  C   UNL     1       5.677  -0.672  -1.376  0.00  0.00    +0.047 A 
ATOM     27  C   UNL     1       5.949   0.998   0.348  0.00  0.00    +0.042 A 
ATOM     28  C   UNL     1       6.473   0.264  -0.716  0.00  0.00    +0.023 A 
BRANCH  24   5
ATOM      5  O   UNL     1       3.601  -1.795  -1.637  0.00  0.00    -0.495 OA
ATOM     29  C   UNL     1       2.858  -1.333  -2.762  0.00  0.00    +0.277 C 
ENDBRANCH  24   5
ENDBRANCH  20  23
TORSDOF 2
