REMARK  Name = 40587821
REMARK  5 active torsions:
REMARK  status: ('A' for Active; 'I' for Inactive)
REMARK    1  A    between atoms: O_4  and  C_28
REMARK    2  A    between atoms: O_4  and  C_34
REMARK    3  A    between atoms: N_7  and  C_22
REMARK    4  A    between atoms: N_8  and  C_20
REMARK    5  A    between atoms: N_9  and  C_29
REMARK                            x       y       z     vdW  Elec       q    Type
REMARK                         _______ _______ _______ _____ _____    ______ ____
ROOT
ATOM      1  O   UNL     1      -0.048  -1.449   2.467  0.00  0.00    -0.266 OA
ATOM      2  O   UNL     1       3.005   0.374  -2.260  0.00  0.00    -0.252 OA
ATOM      5  N   UNL     1       3.820  -1.180  -0.751  0.00  0.00    -0.284 N 
ATOM      6  N   UNL     1       1.331  -2.424   0.852  0.00  0.00    -0.310 N 
ATOM      7  N   UNL     1       3.881   1.124  -0.247  0.00  0.00    -0.269 N 
ATOM     10  C   UNL     1       3.843  -2.762   1.197  0.00  0.00    +0.027 C 
ATOM     11  C   UNL     1       2.801  -3.450  -0.917  0.00  0.00    +0.054 C 
ATOM     12  C   UNL     1       3.683  -3.929   0.233  0.00  0.00    +0.018 C 
ATOM     13  C   UNL     1       4.497  -1.552   0.502  0.00  0.00    +0.114 C 
ATOM     14  C   UNL     1       2.468  -2.413   1.781  0.00  0.00    +0.130 C 
ATOM     15  C   UNL     1       3.509  -2.298  -1.651  0.00  0.00    +0.119 C 
ATOM     16  C   UNL     1       1.443  -2.990  -0.421  0.00  0.00    +0.027 A 
ATOM     17  C   UNL     1       0.362  -3.097  -1.211  0.00  0.00    +0.024 A 
ATOM     18  C   UNL     1       0.103  -1.938   1.347  0.00  0.00    +0.273 A 
ATOM     19  C   UNL     1       3.521   0.138  -1.165  0.00  0.00    +0.306 C 
ATOM     20  C   UNL     1      -1.072  -2.053   0.427  0.00  0.00    +0.100 A 
ATOM     21  C   UNL     1      -0.920  -2.617  -0.776  0.00  0.00    +0.030 A 
ATOM     36  H   UNL     1       4.667   0.944   0.367  0.00  0.00    +0.156 HD
ENDROOT
BRANCH  20   8
ATOM      3  O   UNL     1      -3.149  -1.000  -1.206  0.00  0.00    -0.252 OA
ATOM      8  N   UNL     1      -2.275  -1.579   0.862  0.00  0.00    -0.265 N 
ATOM      9  N   UNL     1      -4.378  -0.665   0.765  0.00  0.00    -0.269 N 
ATOM     23  C   UNL     1      -3.268  -1.069   0.015  0.00  0.00    +0.308 C 
ATOM     37  H   UNL     1      -2.353  -1.361   1.851  0.00  0.00    +0.157 HD
ATOM     38  H   UNL     1      -4.318  -0.794   1.772  0.00  0.00    +0.156 HD
BRANCH   9  29
ATOM     29  C   UNL     1      -5.586  -0.100   0.294  0.00  0.00    +0.035 A 
ATOM     30  C   UNL     1      -6.593   0.243   1.196  0.00  0.00    +0.023 A 
ATOM     31  C   UNL     1      -5.771   0.114  -1.072  0.00  0.00    +0.023 A 
ATOM     32  C   UNL     1      -7.784   0.801   0.733  0.00  0.00    +0.002 A 
ATOM     33  C   UNL     1      -6.962   0.672  -1.535  0.00  0.00    +0.002 A 
ATOM     35  C   UNL     1      -7.969   1.015  -0.633  0.00  0.00    +0.000 A 
ENDBRANCH   9  29
ENDBRANCH  20   8
BRANCH   7  22
ATOM     22  C   UNL     1       3.253   2.378  -0.046  0.00  0.00    +0.035 A 
ATOM     24  C   UNL     1       3.742   3.256   0.921  0.00  0.00    +0.027 A 
ATOM     25  C   UNL     1       2.145   2.735  -0.816  0.00  0.00    +0.027 A 
ATOM     26  C   UNL     1       3.124   4.491   1.119  0.00  0.00    +0.047 A 
ATOM     27  C   UNL     1       1.527   3.970  -0.617  0.00  0.00    +0.047 A 
ATOM     28  C   UNL     1       2.017   4.848   0.350  0.00  0.00    +0.120 A 
BRANCH  28   4
ATOM      4  O   UNL     1       1.414   6.053   0.543  0.00  0.00    -0.495 OA
ATOM     34  C   UNL     1       0.286   6.353  -0.278  0.00  0.00    +0.277 C 
ENDBRANCH  28   4
ENDBRANCH   7  22
TORSDOF 4
