REMARK  Name = 56773963
REMARK  8 active torsions:
REMARK  status: ('A' for Active; 'I' for Inactive)
REMARK    1  A    between atoms: S_1  and  N_7
REMARK    2  A    between atoms: S_1  and  C_20
REMARK    3  A    between atoms: O_4  and  C_18
REMARK    4  A    between atoms: C_10  and  C_15
REMARK    5  A    between atoms: C_11  and  C_16
REMARK    6  A    between atoms: C_15  and  C_17
REMARK    7  A    between atoms: C_16  and  C_18
REMARK    8  A    between atoms: C_32  and  C_33
REMARK                            x       y       z     vdW  Elec       q    Type
REMARK                         _______ _______ _______ _____ _____    ______ ____
ROOT
ATOM      7  N   UNL     1      -0.058  -0.117  -0.911  0.00  0.00    -0.176 NA
ATOM     10  C   UNL     1       1.110  -1.619   0.688  0.00  0.00    +0.014 C 
ATOM     11  C   UNL     1       0.396  -2.829   0.039  0.00  0.00    +0.006 C 
ATOM     12  C   UNL     1       0.246  -0.357   0.531  0.00  0.00    +0.113 C 
ATOM     13  C   UNL     1      -0.004  -2.532  -1.414  0.00  0.00    +0.021 C 
ATOM     14  C   UNL     1      -0.819  -1.247  -1.518  0.00  0.00    +0.110 C 
ENDROOT
BRANCH   7   1
ATOM      1  S   UNL     1      -0.648   1.448  -1.285  0.00  0.00    +0.061 S 
ATOM      2  O   UNL     1      -0.760   1.578  -2.722  0.00  0.00    -0.153 OA
ATOM      3  O   UNL     1       0.080   2.422  -0.502  0.00  0.00    -0.153 OA
BRANCH   1  20
ATOM     20  C   UNL     1      -2.280   1.328  -0.624  0.00  0.00    +0.106 A 
ATOM     25  C   UNL     1      -3.326   0.874  -1.427  0.00  0.00    +0.029 A 
ATOM     26  C   UNL     1      -2.524   1.689   0.701  0.00  0.00    +0.029 A 
ATOM     30  C   UNL     1      -4.617   0.782  -0.906  0.00  0.00    +0.015 A 
ATOM     31  C   UNL     1      -3.815   1.596   1.223  0.00  0.00    +0.015 A 
ATOM     32  C   UNL     1      -4.861   1.143   0.419  0.00  0.00    +0.037 A 
BRANCH  32  33
ATOM      6  O   UNL     1      -6.457   1.377   2.135  0.00  0.00    -0.270 OA
ATOM      9  N   UNL     1      -7.215   0.590   0.119  0.00  0.00    -0.325 N 
ATOM     33  C   UNL     1      -6.206   1.047   0.962  0.00  0.00    +0.242 C 
ATOM     35  H   UNL     1      -7.100   0.306  -0.846  0.00  0.00    +0.145 HD
ATOM     36  H   UNL     1      -8.164   0.520   0.472  0.00  0.00    +0.145 HD
ENDBRANCH  32  33
ENDBRANCH   1  20
ENDBRANCH   7   1
BRANCH  10  15
ATOM     15  C   UNL     1       2.527  -1.370   0.156  0.00  0.00    +0.060 C 
BRANCH  15  17
ATOM      8  N   UNL     1       3.261  -0.251   2.150  0.00  0.00    -0.287 NA
ATOM     17  C   UNL     1       3.140  -0.186   0.865  0.00  0.00    +0.044 C 
ATOM     19  C   UNL     1       3.566   0.988   0.061  0.00  0.00    -0.001 A 
ATOM     21  C   UNL     1       3.760   2.189   0.754  0.00  0.00    -0.037 A 
ATOM     22  C   UNL     1       3.912   0.873   2.833  0.00  0.00    +0.146 C 
ATOM     23  C   UNL     1       3.517   2.216   2.233  0.00  0.00    +0.059 C 
ATOM     24  C   UNL     1       3.756   0.928  -1.321  0.00  0.00    +0.010 A 
ATOM     27  C   UNL     1       4.122   3.341   0.050  0.00  0.00    +0.004 A 
ATOM     28  C   UNL     1       4.132   2.080  -2.013  0.00  0.00    +0.001 A 
ATOM     29  C   UNL     1       4.312   3.283  -1.331  0.00  0.00    +0.000 A 
ENDBRANCH  15  17
ENDBRANCH  10  15
BRANCH  11  16
ATOM     16  C   UNL     1       1.209  -4.121   0.121  0.00  0.00    +0.124 C 
BRANCH  16  18
ATOM      5  O   UNL     1      -0.880  -5.347  -0.150  0.00  0.00    -0.251 OA
ATOM     18  C   UNL     1       0.332  -5.337   0.001  0.00  0.00    +0.305 C 
BRANCH  18   4
ATOM      4  O   UNL     1       1.092  -6.459   0.084  0.00  0.00    -0.481 OA
ATOM     34  H   UNL     1       0.550  -7.274   0.009  0.00  0.00    +0.295 HD
ENDBRANCH  18   4
ENDBRANCH  16  18
ENDBRANCH  11  16
TORSDOF 8
