REMARK  Name = 11879690
REMARK  10 active torsions:
REMARK  status: ('A' for Active; 'I' for Inactive)
REMARK    1  A    between atoms: S_1  and  C_23
REMARK    2  A    between atoms: S_1  and  C_34
REMARK    3  A    between atoms: O_4  and  C_21
REMARK    4  A    between atoms: O_4  and  C_24
REMARK    5  A    between atoms: O_7  and  C_35
REMARK    6  A    between atoms: N_9  and  C_17
REMARK    7  A    between atoms: N_10  and  C_18
REMARK    8  A    between atoms: N_14  and  C_25
REMARK    9  A    between atoms: C_22  and  C_23
REMARK   10  A    between atoms: C_34  and  C_35
REMARK                            x       y       z     vdW  Elec       q    Type
REMARK                         _______ _______ _______ _____ _____    ______ ____
ROOT
ATOM      2  O   UNL     1      -2.009  -3.807   0.242  0.00  0.00    -0.370 OA
ATOM      3  O   UNL     1      -2.001  -1.220  -1.546  0.00  0.00    -0.370 OA
ATOM     15  C   UNL     1      -1.468  -1.538  -0.248  0.00  0.00    +0.176 C 
ATOM     16  C   UNL     1      -2.462  -2.458   0.432  0.00  0.00    +0.171 C 
ATOM     17  C   UNL     1      -0.210  -2.373  -0.397  0.00  0.00    +0.171 C 
ATOM     18  C   UNL     1      -3.756  -2.229  -0.317  0.00  0.00    +0.130 C 
ATOM     19  C   UNL     1      -0.749  -3.798  -0.442  0.00  0.00    +0.190 C 
ATOM     20  C   UNL     1      -3.265  -1.878  -1.709  0.00  0.00    +0.185 C 
ENDROOT
BRANCH  17   9
ATOM      9  N   UNL     1       0.767  -2.112   0.663  0.00  0.00    -0.187 N 
ATOM     11  N   UNL     1       0.445  -2.281   1.949  0.00  0.00    -0.041 NA
ATOM     12  N   UNL     1       2.556  -1.589   1.758  0.00  0.00    -0.071 NA
ATOM     13  N   UNL     1       1.546  -1.960   2.617  0.00  0.00    -0.020 NA
ATOM     21  C   UNL     1       2.049  -1.692   0.551  0.00  0.00    +0.342 A 
BRANCH  21   4
ATOM      4  O   UNL     1       2.664  -1.434  -0.588  0.00  0.00    -0.423 OA
BRANCH   4  24
ATOM     24  C   UNL     1       3.983  -1.003  -0.644  0.00  0.00    +0.134 A 
ATOM     25  C   UNL     1       5.571   0.786  -0.669  0.00  0.00    +0.033 A 
ATOM     26  C   UNL     1       4.247   0.353  -0.612  0.00  0.00    +0.069 A 
ATOM     29  C   UNL     1       4.992  -1.942  -0.730  0.00  0.00    +0.046 A 
ATOM     32  C   UNL     1       6.606  -0.145  -0.756  0.00  0.00    +0.023 A 
ATOM     33  C   UNL     1       6.317  -1.509  -0.787  0.00  0.00    +0.005 A 
BRANCH  25  14
ATOM      6  O   UNL     1       5.231   4.412   0.879  0.00  0.00    -0.377 OA
ATOM     14  N   UNL     1       5.859   2.144  -0.640  0.00  0.00    -0.325 N 
ATOM     27  C   UNL     1       4.947   3.158  -1.174  0.00  0.00    +0.133 C 
ATOM     28  C   UNL     1       6.846   2.682   0.303  0.00  0.00    +0.133 C 
ATOM     30  C   UNL     1       4.254   3.851  -0.006  0.00  0.00    +0.178 C 
ATOM     31  C   UNL     1       6.092   3.404   1.421  0.00  0.00    +0.178 C 
ENDBRANCH  25  14
ENDBRANCH   4  24
ENDBRANCH  21   4
ENDBRANCH  17   9
BRANCH  18  10
ATOM      5  O   UNL     1      -6.617  -1.814  -0.454  0.00  0.00    -0.275 OA
ATOM     10  N   UNL     1      -4.510  -1.143   0.261  0.00  0.00    -0.307 N 
ATOM     22  C   UNL     1      -5.887  -1.026   0.144  0.00  0.00    +0.223 C 
ATOM     36  H   UNL     1      -3.994  -0.398   0.722  0.00  0.00    +0.149 HD
BRANCH  22  23
ATOM     23  C   UNL     1      -6.435   0.208   0.821  0.00  0.00    +0.165 C 
BRANCH  23   1
ATOM      1  S   UNL     1      -6.476   1.565  -0.374  0.00  0.00    -0.140 S 
BRANCH   1  34
ATOM     34  C   UNL     1      -7.154   2.851   0.701  0.00  0.00    +0.189 C 
BRANCH  34  35
ATOM      8  O   UNL     1      -7.504   4.177  -1.280  0.00  0.00    -0.250 OA
ATOM     35  C   UNL     1      -7.293   4.129  -0.075  0.00  0.00    +0.315 C 
BRANCH  35   7
ATOM      7  O   UNL     1      -7.176   5.232   0.706  0.00  0.00    -0.480 OA
ATOM     37  H   UNL     1      -7.276   6.059   0.188  0.00  0.00    +0.295 HD
ENDBRANCH  35   7
ENDBRANCH  34  35
ENDBRANCH   1  34
ENDBRANCH  23   1
ENDBRANCH  22  23
ENDBRANCH  18  10
TORSDOF 10
