REMARK  Name = 75367149
REMARK  6 active torsions:
REMARK  status: ('A' for Active; 'I' for Inactive)
REMARK    1  A    between atoms: O_4  and  C_22
REMARK    2  A    between atoms: O_4  and  C_26
REMARK    3  A    between atoms: N_5  and  C_11
REMARK    4  A    between atoms: C_8  and  C_13
REMARK    5  A    between atoms: C_11  and  C_14
REMARK    6  A    between atoms: C_15  and  C_19
REMARK                            x       y       z     vdW  Elec       q    Type
REMARK                         _______ _______ _______ _____ _____    ______ ____
ROOT
ATOM      3  O   UNL     1       0.786  -4.219   1.680  0.00  0.00    -0.377 OA
ATOM      5  N   UNL     1       1.293  -1.845   0.161  0.00  0.00    -0.285 NA
ATOM      8  C   UNL     1       0.131  -2.721  -0.138  0.00  0.00    +0.149 C 
ATOM      9  C   UNL     1       2.369  -2.625   0.796  0.00  0.00    +0.113 C 
ATOM     10  C   UNL     1      -0.303  -3.476   1.134  0.00  0.00    +0.186 C 
ATOM     12  C   UNL     1       1.856  -3.345   2.036  0.00  0.00    +0.175 C 
ENDROOT
BRANCH   8  13
ATOM      6  N   UNL     1      -1.677  -0.971   0.005  0.00  0.00    -0.340 N 
ATOM      7  N   UNL     1      -1.647  -2.170  -1.864  0.00  0.00    -0.238 NA
ATOM     13  C   UNL     1      -1.068  -1.972  -0.701  0.00  0.00    +0.127 A 
ATOM     15  C   UNL     1      -2.709  -0.502  -0.757  0.00  0.00    +0.073 A 
ATOM     16  C   UNL     1      -2.671  -1.257  -1.905  0.00  0.00    +0.139 A 
ATOM     27  H   UNL     1      -1.407  -0.637   0.921  0.00  0.00    +0.167 HD
BRANCH  15  19
ATOM      1 CL   UNL     1      -5.160   3.502   2.056  0.00  0.00    -0.076 Cl
ATOM      2  S   UNL     1      -3.371   1.306   1.164  0.00  0.00    -0.075 S 
ATOM     19  C   UNL     1      -3.573   0.540  -0.354  0.00  0.00    +0.038 A 
ATOM     23  C   UNL     1      -4.632   1.066  -1.062  0.00  0.00    +0.019 A 
ATOM     24  C   UNL     1      -5.286   2.111  -0.348  0.00  0.00    +0.028 A 
ATOM     25  C   UNL     1      -4.702   2.345   0.878  0.00  0.00    +0.079 A 
ENDBRANCH  15  19
ENDBRANCH   8  13
BRANCH   5  11
ATOM     11  C   UNL     1       1.819  -1.194  -1.045  0.00  0.00    +0.120 C 
BRANCH  11  14
ATOM     14  C   UNL     1       2.592   0.055  -0.716  0.00  0.00    -0.033 A 
ATOM     17  C   UNL     1       1.914   1.225  -0.374  0.00  0.00    +0.008 A 
ATOM     18  C   UNL     1       3.986   0.042  -0.753  0.00  0.00    +0.008 A 
ATOM     20  C   UNL     1       2.631   2.382  -0.069  0.00  0.00    +0.046 A 
ATOM     21  C   UNL     1       4.703   1.198  -0.448  0.00  0.00    +0.046 A 
ATOM     22  C   UNL     1       4.026   2.369  -0.106  0.00  0.00    +0.120 A 
BRANCH  22   4
ATOM      4  O   UNL     1       4.725   3.498   0.193  0.00  0.00    -0.495 OA
ATOM     26  C   UNL     1       3.969   4.658   0.535  0.00  0.00    +0.277 C 
ENDBRANCH  22   4
ENDBRANCH  11  14
ENDBRANCH   5  11
TORSDOF 5
