REMARK  Name = 45784099
REMARK  11 active torsions:
REMARK  status: ('A' for Active; 'I' for Inactive)
REMARK    1  A    between atoms: N_3  and  C_14
REMARK    2  A    between atoms: N_7  and  C_32
REMARK    3  A    between atoms: C_9  and  C_13
REMARK    4  A    between atoms: C_10  and  C_14
REMARK    5  A    between atoms: C_12  and  C_19
REMARK    6  A    between atoms: C_13  and  C_23
REMARK    7  A    between atoms: C_13  and  C_24
REMARK    8  A    between atoms: C_16  and  C_25
REMARK    9  A    between atoms: C_19  and  C_26
REMARK   10  A    between atoms: C_20  and  C_27
REMARK   11  A    between atoms: C_28  and  C_29
REMARK                            x       y       z     vdW  Elec       q    Type
REMARK                         _______ _______ _______ _____ _____    ______ ____
ROOT
ATOM      9  C   UNL     1       1.189  -2.104   0.773  0.00  0.00    +0.000 C 
ATOM     10  C   UNL     1       1.316  -2.058  -0.768  0.00  0.00    +0.029 C 
ATOM     11  C   UNL     1      -0.278  -1.953   1.197  0.00  0.00    +0.012 C 
ATOM     12  C   UNL     1      -1.208  -3.016   0.573  0.00  0.00    +0.024 C 
ATOM     15  C   UNL     1       0.259  -2.880  -1.460  0.00  0.00    -0.023 C 
ATOM     16  C   UNL     1      -0.868  -3.327  -0.876  0.00  0.00    -0.073 C 
ATOM     25  C   UNL     1      -1.815  -4.215  -1.637  0.00  0.00    +0.039 C 
ENDROOT
BRANCH   9  13
ATOM     13  C   UNL     1       1.803  -3.389   1.346  0.00  0.00    -0.013 C 
ATOM     23  C   UNL     1       3.249  -3.539   0.885  0.00  0.00    +0.007 C 
ATOM     24  C   UNL     1       1.718  -3.385   2.869  0.00  0.00    +0.007 C 
ENDBRANCH   9  13
BRANCH  10  14
ATOM     14  C   UNL     1       1.263  -0.621  -1.297  0.00  0.00    +0.092 C 
BRANCH  14   3
ATOM      3  N   UNL     1       2.293   0.201  -0.662  0.00  0.00    -0.302 NA
ATOM     17  C   UNL     1       3.601  -0.041  -1.287  0.00  0.00    +0.085 C 
ATOM     18  C   UNL     1       1.929   1.623  -0.729  0.00  0.00    +0.085 C 
ATOM     20  C   UNL     1       4.367   2.261  -0.595  0.00  0.00    +0.077 C 
ATOM     21  C   UNL     1       4.700   0.770  -0.598  0.00  0.00    +0.028 C 
ATOM     22  C   UNL     1       2.970   2.493  -0.022  0.00  0.00    +0.028 C 
BRANCH  20  27
ATOM      2  O   UNL     1       5.223   3.218   1.420  0.00  0.00    -0.276 OA
ATOM      5  N   UNL     1       6.452   3.462  -0.510  0.00  0.00    -0.329 N 
ATOM     27  C   UNL     1       5.374   3.015   0.218  0.00  0.00    +0.214 C 
ATOM     33  H   UNL     1       7.196   3.991  -0.068  0.00  0.00    +0.145 HD
ATOM     34  H   UNL     1       6.554   3.277  -1.503  0.00  0.00    +0.145 HD
ENDBRANCH  20  27
ENDBRANCH  14   3
ENDBRANCH  10  14
BRANCH  12  19
ATOM     19  C   UNL     1      -2.662  -2.565   0.761  0.00  0.00    +0.105 C 
BRANCH  19  26
ATOM      1  O   UNL     1      -3.388  -0.237   0.679  0.00  0.00    -0.419 OA
ATOM      4  N   UNL     1      -2.862  -1.103  -1.315  0.00  0.00    -0.112 NA
ATOM      6  N   UNL     1      -3.253   0.209  -1.509  0.00  0.00    -0.106 NA
ATOM     26  C   UNL     1      -2.956  -1.319  -0.024  0.00  0.00    +0.218 A 
ATOM     28  C   UNL     1      -3.551   0.675  -0.319  0.00  0.00    +0.266 A 
BRANCH  28  29
ATOM      7  N   UNL     1      -3.778   2.713   1.051  0.00  0.00    -0.329 N 
ATOM      8  N   UNL     1      -4.943   4.051  -0.285  0.00  0.00    -0.243 NA
ATOM     29  C   UNL     1      -4.000   1.999  -0.092  0.00  0.00    +0.125 A 
ATOM     30  C   UNL     1      -4.720   2.845  -0.902  0.00  0.00    +0.143 A 
ATOM     31  C   UNL     1      -4.363   3.938   0.889  0.00  0.00    +0.199 A 
ATOM     32  C   UNL     1      -3.062   2.279   2.228  0.00  0.00    +0.150 C 
ENDBRANCH  28  29
ENDBRANCH  19  26
ENDBRANCH  12  19
TORSDOF 7
