REMARK  Name = 75536776
REMARK  9 active torsions:
REMARK  status: ('A' for Active; 'I' for Inactive)
REMARK    1  A    between atoms: S_1  and  C_20
REMARK    2  A    between atoms: S_1  and  C_24
REMARK    3  A    between atoms: O_3  and  C_11
REMARK    4  A    between atoms: N_7  and  C_10
REMARK    5  A    between atoms: N_7  and  C_15
REMARK    6  A    between atoms: N_8  and  C_14
REMARK    7  A    between atoms: N_9  and  C_23
REMARK    8  A    between atoms: C_12  and  C_14
REMARK    9  A    between atoms: C_15  and  C_16
REMARK                            x       y       z     vdW  Elec       q    Type
REMARK                         _______ _______ _______ _____ _____    ______ ____
ROOT
ATOM      2  O   UNL     1       4.375   0.447   0.492  0.00  0.00    -0.371 OA
ATOM     10  C   UNL     1       3.213  -1.525   1.094  0.00  0.00    +0.111 C 
ATOM     11  C   UNL     1       3.974  -1.806  -0.190  0.00  0.00    +0.164 C 
ATOM     12  C   UNL     1       4.511  -0.445  -0.630  0.00  0.00    +0.165 C 
ATOM     13  C   UNL     1       3.946  -0.307   1.631  0.00  0.00    +0.181 C 
ENDROOT
BRANCH  11   3
ATOM      3  O   UNL     1       5.073  -2.660   0.134  0.00  0.00    -0.388 OA
ATOM     31  H   UNL     1       5.576  -2.808  -0.686  0.00  0.00    +0.210 HD
ENDBRANCH  11   3
BRANCH  10   7
ATOM      7  N   UNL     1       1.810  -1.210   0.831  0.00  0.00    -0.305 NA
ATOM     30  H   UNL     1       1.450  -0.622   1.583  0.00  0.00    +0.123 HD
BRANCH   7  15
ATOM     15  C   UNL     1       1.004  -2.423   0.765  0.00  0.00    +0.116 C 
BRANCH  15  16
ATOM     16  C   UNL     1      -0.443  -2.119   0.479  0.00  0.00    -0.033 A 
ATOM     18  C   UNL     1      -0.962  -2.335  -0.798  0.00  0.00    +0.007 A 
ATOM     19  C   UNL     1      -1.265  -1.622   1.490  0.00  0.00    +0.007 A 
ATOM     20  C   UNL     1      -3.123  -1.557  -0.051  0.00  0.00    +0.088 A 
ATOM     21  C   UNL     1      -2.302  -2.054  -1.063  0.00  0.00    +0.027 A 
ATOM     22  C   UNL     1      -2.605  -1.341   1.226  0.00  0.00    +0.027 A 
BRANCH  20   1
ATOM      1  S   UNL     1      -4.800  -1.201  -0.384  0.00  0.00    -0.006 S 
ATOM      5  O   UNL     1      -5.271  -0.211   0.575  0.00  0.00    -0.170 OA
ATOM      6  O   UNL     1      -4.929  -0.944  -1.811  0.00  0.00    -0.170 OA
ATOM     24  C   UNL     1      -5.655  -2.719  -0.022  0.00  0.00    +0.200 C 
ENDBRANCH  20   1
ENDBRANCH  15  16
ENDBRANCH   7  15
ENDBRANCH  10   7
BRANCH  12  14
ATOM     14  C   UNL     1       3.760   0.153  -1.810  0.00  0.00    +0.140 C 
BRANCH  14   8
ATOM      4  O   UNL     1       2.566   2.493  -0.667  0.00  0.00    -0.253 OA
ATOM      8  N   UNL     1       2.372   0.344  -1.502  0.00  0.00    -0.297 N 
ATOM      9  N   UNL     1       0.479   1.422  -0.751  0.00  0.00    -0.269 N 
ATOM     17  C   UNL     1       1.860   1.525  -0.940  0.00  0.00    +0.304 C 
ATOM     32  H   UNL     1       1.729  -0.418  -1.691  0.00  0.00    +0.150 HD
ATOM     33  H   UNL     1       0.044   0.547  -1.032  0.00  0.00    +0.156 HD
BRANCH   9  23
ATOM     23  C   UNL     1      -0.399   2.393  -0.213  0.00  0.00    +0.035 A 
ATOM     25  C   UNL     1      -1.760   2.113  -0.098  0.00  0.00    +0.023 A 
ATOM     26  C   UNL     1       0.097   3.628   0.202  0.00  0.00    +0.023 A 
ATOM     27  C   UNL     1      -2.626   3.069   0.432  0.00  0.00    +0.002 A 
ATOM     28  C   UNL     1      -0.769   4.585   0.732  0.00  0.00    +0.002 A 
ATOM     29  C   UNL     1      -2.131   4.305   0.847  0.00  0.00    +0.000 A 
ENDBRANCH   9  23
ENDBRANCH  14   8
ENDBRANCH  12  14
TORSDOF 8
