REMARK  Name = 51137406
REMARK  6 active torsions:
REMARK  status: ('A' for Active; 'I' for Inactive)
REMARK    1  A    between atoms: N_2  and  C_9
REMARK    2  A    between atoms: C_5  and  C_10
REMARK    3  A    between atoms: C_9  and  C_11
REMARK    4  A    between atoms: C_9  and  C_12
REMARK    5  A    between atoms: C_13  and  C_14
REMARK    6  A    between atoms: C_14  and  C_15
REMARK                            x       y       z     vdW  Elec       q    Type
REMARK                         _______ _______ _______ _____ _____    ______ ____
ROOT
ATOM      1  O   UNL     1       0.144  -0.723  -0.329  0.00  0.00    -0.424 OA
ATOM      3  N   UNL     1      -0.011  -2.682   0.741  0.00  0.00    -0.112 NA
ATOM      4  N   UNL     1       1.200  -2.653   0.076  0.00  0.00    -0.112 NA
ATOM     10  C   UNL     1      -0.594  -1.536   0.477  0.00  0.00    +0.222 A 
ATOM     13  C   UNL     1       1.248  -1.492  -0.535  0.00  0.00    +0.222 A 
ENDROOT
BRANCH  10   5
ATOM      2  N   UNL     1      -3.707   0.388   0.296  0.00  0.00    -0.299 NA
ATOM      5  C   UNL     1      -1.934  -1.009   0.933  0.00  0.00    +0.092 C 
ATOM      6  C   UNL     1      -2.885  -0.704  -0.232  0.00  0.00    +0.097 C 
ATOM      7  C   UNL     1      -1.874   0.300   1.740  0.00  0.00    +0.029 C 
ATOM      8  C   UNL     1      -2.764   1.274   0.978  0.00  0.00    +0.085 C 
BRANCH   2   9
ATOM      9  C   UNL     1      -4.456   1.073  -0.747  0.00  0.00    +0.050 C 
ATOM     11  C   UNL     1      -5.240   2.241  -0.155  0.00  0.00    +0.024 C 
ATOM     12  C   UNL     1      -5.387   0.083  -1.438  0.00  0.00    +0.024 C 
ENDBRANCH   2   9
ENDBRANCH  10   5
BRANCH  13  14
ATOM     14  C   UNL     1       2.302  -0.924  -1.384  0.00  0.00    +0.132 C 
BRANCH  14  15
ATOM     15  C   UNL     1       3.185   0.112  -0.698  0.00  0.00    -0.038 A 
ATOM     16  C   UNL     1       2.736   1.425  -0.553  0.00  0.00    +0.004 A 
ATOM     17  C   UNL     1       4.442  -0.252  -0.215  0.00  0.00    +0.004 A 
ATOM     18  C   UNL     1       3.544   2.373   0.074  0.00  0.00    +0.000 A 
ATOM     19  C   UNL     1       5.250   0.696   0.412  0.00  0.00    +0.000 A 
ATOM     20  C   UNL     1       4.801   2.009   0.557  0.00  0.00    +0.000 A 
ENDBRANCH  14  15
ENDBRANCH  13  14
TORSDOF 4
