REMARK  Name = 11883078
REMARK  12 active torsions:
REMARK  status: ('A' for Active; 'I' for Inactive)
REMARK    1  A    between atoms: O_2  and  C_16
REMARK    2  A    between atoms: O_3  and  C_21
REMARK    3  A    between atoms: O_6  and  C_29
REMARK    4  A    between atoms: O_6  and  C_32
REMARK    5  A    between atoms: N_9  and  C_27
REMARK    6  A    between atoms: C_11  and  C_19
REMARK    7  A    between atoms: C_13  and  C_21
REMARK    8  A    between atoms: C_13  and  C_22
REMARK    9  A    between atoms: C_14  and  C_24
REMARK   10  A    between atoms: C_24  and  C_25
REMARK   11  A    between atoms: C_27  and  C_29
REMARK   12  A    between atoms: C_28  and  C_30
REMARK                            x       y       z     vdW  Elec       q    Type
REMARK                         _______ _______ _______ _____ _____    ______ ____
ROOT
ATOM      1  S   UNL     1       0.224   2.829   0.230  0.00  0.00    -0.057 S 
ATOM      5  O   UNL     1       3.752  -0.092  -0.390  0.00  0.00    -0.266 OA
ATOM      8  N   UNL     1       0.879   0.357  -0.164  0.00  0.00    -0.229 NA
ATOM     10  N   UNL     1       2.681   1.952  -0.032  0.00  0.00    -0.258 N 
ATOM     11  C   UNL     1      -2.833  -0.568   0.316  0.00  0.00    -0.019 C 
ATOM     12  C   UNL     1      -3.337   0.823  -0.273  0.00  0.00    +0.011 C 
ATOM     13  C   UNL     1      -4.889   1.101  -0.224  0.00  0.00    +0.021 C 
ATOM     14  C   UNL     1      -1.350  -0.822  -0.222  0.00  0.00    +0.054 C 
ATOM     15  C   UNL     1      -3.745  -1.709  -0.206  0.00  0.00    +0.010 C 
ATOM     16  C   UNL     1      -5.651  -0.155  -0.736  0.00  0.00    +0.123 C 
ATOM     17  C   UNL     1      -2.472   2.008   0.248  0.00  0.00    +0.049 C 
ATOM     18  C   UNL     1      -5.232  -1.440  -0.030  0.00  0.00    +0.032 C 
ATOM     19  C   UNL     1      -2.833  -0.602   1.864  0.00  0.00    +0.012 C 
ATOM     20  C   UNL     1      -0.499   0.412  -0.069  0.00  0.00    +0.058 A 
ATOM     22  C   UNL     1      -5.226   2.271  -1.191  0.00  0.00    +0.016 C 
ATOM     23  C   UNL     1      -1.024   1.674   0.123  0.00  0.00    +0.015 A 
ATOM     26  C   UNL     1       1.366   1.570  -0.014  0.00  0.00    +0.165 A 
ATOM     28  C   UNL     1       3.810   1.123  -0.216  0.00  0.00    +0.285 C 
ATOM     38  H   UNL     1       2.841   2.947   0.110  0.00  0.00    +0.157 HD
ENDROOT
BRANCH  28  30
ATOM      7  O   UNL     1       5.107   3.151   0.094  0.00  0.00    -0.458 OA
ATOM     30  C   UNL     1       5.110   1.813  -0.140  0.00  0.00    +0.189 A 
ATOM     31  C   UNL     1       6.399   1.347  -0.266  0.00  0.00    +0.054 A 
ATOM     33  C   UNL     1       7.241   2.472  -0.098  0.00  0.00    +0.042 A 
ATOM     34  C   UNL     1       6.408   3.545   0.119  0.00  0.00    +0.196 A 
ENDBRANCH  28  30
BRANCH  16   2
ATOM      2  O   UNL     1      -7.060   0.015  -0.584  0.00  0.00    -0.391 OA
ATOM     35  H   UNL     1      -7.493  -0.771  -0.958  0.00  0.00    +0.210 HD
ENDBRANCH  16   2
BRANCH  13  21
ATOM     21  C   UNL     1      -5.419   1.540   1.159  0.00  0.00    +0.165 C 
BRANCH  21   3
ATOM      3  O   UNL     1      -6.806   1.759   1.040  0.00  0.00    -0.394 OA
ATOM     36  H   UNL     1      -7.130   2.045   1.911  0.00  0.00    +0.209 HD
ENDBRANCH  21   3
ENDBRANCH  13  21
BRANCH  14  24
ATOM     24  C   UNL     1      -0.660  -2.058   0.371  0.00  0.00    +0.106 C 
BRANCH  24  25
ATOM      4  O   UNL     1       0.647  -2.150  -1.663  0.00  0.00    -0.276 OA
ATOM      9  N   UNL     1       1.008  -3.729   0.004  0.00  0.00    -0.313 N 
ATOM     25  C   UNL     1       0.390  -2.621  -0.558  0.00  0.00    +0.214 C 
ATOM     37  H   UNL     1       0.729  -4.035   0.932  0.00  0.00    +0.149 HD
BRANCH   9  27
ATOM     27  C   UNL     1       2.051  -4.474  -0.662  0.00  0.00    +0.132 C 
BRANCH  27  29
ATOM     29  C   UNL     1       3.427  -3.922  -0.334  0.00  0.00    +0.178 C 
BRANCH  29   6
ATOM      6  O   UNL     1       3.630  -3.967   1.072  0.00  0.00    -0.381 OA
ATOM     32  C   UNL     1       4.906  -3.454   1.430  0.00  0.00    +0.194 C 
ENDBRANCH  29   6
ENDBRANCH  27  29
ENDBRANCH   9  27
ENDBRANCH  24  25
ENDBRANCH  14  24
TORSDOF 9
