REMARK  Name = 51137783
REMARK  7 active torsions:
REMARK  status: ('A' for Active; 'I' for Inactive)
REMARK    1  A    between atoms: S_1  and  N_5
REMARK    2  A    between atoms: S_1  and  C_14
REMARK    3  A    between atoms: N_8  and  C_24
REMARK    4  A    between atoms: N_8  and  C_27
REMARK    5  A    between atoms: N_8  and  C_28
REMARK    6  A    between atoms: C_9  and  C_13
REMARK    7  A    between atoms: C_15  and  C_18
REMARK                            x       y       z     vdW  Elec       q    Type
REMARK                         _______ _______ _______ _____ _____    ______ ____
ROOT
ATOM      5  N   UNL     1      -3.831  -1.043  -0.829  0.00  0.00    -0.176 NA
ATOM      9  C   UNL     1      -1.996  -2.449  -0.119  0.00  0.00    +0.094 C 
ATOM     10  C   UNL     1      -3.216  -2.660   0.780  0.00  0.00    +0.031 C 
ATOM     11  C   UNL     1      -2.583  -1.695  -1.324  0.00  0.00    +0.122 C 
ATOM     12  C   UNL     1      -4.025  -1.384   0.601  0.00  0.00    +0.110 C 
ENDROOT
BRANCH   9  13
ATOM      2  O   UNL     1       0.294  -1.565  -0.068  0.00  0.00    -0.420 OA
ATOM      6  N   UNL     1      -0.809  -1.345   1.866  0.00  0.00    -0.112 NA
ATOM      7  N   UNL     1       0.455  -0.811   2.033  0.00  0.00    -0.107 NA
ATOM     13  C   UNL     1      -0.859  -1.772   0.626  0.00  0.00    +0.222 A 
ATOM     15  C   UNL     1       1.063  -0.962   0.879  0.00  0.00    +0.248 A 
BRANCH  15  18
ATOM     18  C   UNL     1       2.388  -0.595   0.470  0.00  0.00    +0.039 A 
ATOM     22  C   UNL     1       3.249   0.029   1.373  0.00  0.00    +0.015 A 
ATOM     23  C   UNL     1       2.816  -0.863  -0.830  0.00  0.00    +0.015 A 
ATOM     24  C   UNL     1       4.965   0.118  -0.325  0.00  0.00    +0.029 A 
ATOM     25  C   UNL     1       4.538   0.386   0.975  0.00  0.00    +0.024 A 
ATOM     26  C   UNL     1       4.104  -0.506  -1.228  0.00  0.00    +0.024 A 
BRANCH  24   8
ATOM      8  N   UNL     1       6.268   0.480  -0.727  0.00  0.00    -0.336 N 
ATOM     27  C   UNL     1       6.725   0.199  -2.074  0.00  0.00    +0.129 C 
ATOM     28  C   UNL     1       7.169   1.130   0.203  0.00  0.00    +0.129 C 
ENDBRANCH  24   8
ENDBRANCH  15  18
ENDBRANCH   9  13
BRANCH   5   1
ATOM      1  S   UNL     1      -4.195   0.530  -1.344  0.00  0.00    +0.061 S 
ATOM      3  O   UNL     1      -5.544   0.876  -0.935  0.00  0.00    -0.153 OA
ATOM      4  O   UNL     1      -3.782   0.695  -2.726  0.00  0.00    -0.153 OA
BRANCH   1  14
ATOM     14  C   UNL     1      -3.079   1.464  -0.339  0.00  0.00    +0.105 A 
ATOM     16  C   UNL     1      -1.794   1.747  -0.801  0.00  0.00    +0.028 A 
ATOM     17  C   UNL     1      -3.485   1.918   0.916  0.00  0.00    +0.028 A 
ATOM     19  C   UNL     1      -0.914   2.484  -0.009  0.00  0.00    +0.002 A 
ATOM     20  C   UNL     1      -2.605   2.655   1.708  0.00  0.00    +0.002 A 
ATOM     21  C   UNL     1      -1.319   2.938   1.246  0.00  0.00    +0.000 A 
ENDBRANCH   1  14
ENDBRANCH   5   1
TORSDOF 5
