REMARK  Name = 75367803
REMARK  7 active torsions:
REMARK  status: ('A' for Active; 'I' for Inactive)
REMARK    1  A    between atoms: O_2  and  C_8
REMARK    2  A    between atoms: O_2  and  C_14
REMARK    3  A    between atoms: N_4  and  C_12
REMARK    4  A    between atoms: N_6  and  C_20
REMARK    5  A    between atoms: N_6  and  C_21
REMARK    6  A    between atoms: C_12  and  C_13
REMARK    7  A    between atoms: C_14  and  C_16
REMARK                            x       y       z     vdW  Elec       q    Type
REMARK                         _______ _______ _______ _____ _____    ______ ____
ROOT
ATOM      1  O   UNL     1      -0.203   3.797  -0.501  0.00  0.00    -0.376 OA
ATOM      4  N   UNL     1      -1.693   1.256   0.525  0.00  0.00    -0.292 NA
ATOM      7  C   UNL     1      -0.362   0.674   0.323  0.00  0.00    +0.118 C 
ATOM      8  C   UNL     1       0.766   1.608  -0.143  0.00  0.00    +0.158 C 
ATOM      9  C   UNL     1      -1.682   2.609   1.083  0.00  0.00    +0.113 C 
ATOM     10  C   UNL     1       0.334   2.655  -1.160  0.00  0.00    +0.192 C 
ATOM     11  C   UNL     1      -1.538   3.636  -0.040  0.00  0.00    +0.175 C 
ENDROOT
BRANCH   8   2
ATOM      2  O   UNL     1       1.787   0.807  -0.741  0.00  0.00    -0.364 OA
BRANCH   2  14
ATOM     14  C   UNL     1       2.612   0.206   0.244  0.00  0.00    +0.256 C 
BRANCH  14  16
ATOM      3  O   UNL     1       3.680  -0.715  -1.661  0.00  0.00    -0.273 OA
ATOM      6  N   UNL     1       4.615  -1.263   0.393  0.00  0.00    -0.306 N 
ATOM     16  C   UNL     1       3.680  -0.633  -0.428  0.00  0.00    +0.241 C 
ATOM     20  C   UNL     1       5.667  -2.073  -0.208  0.00  0.00    +0.131 C 
ATOM     21  C   UNL     1       4.656  -1.175   1.851  0.00  0.00    +0.131 C 
ENDBRANCH  14  16
ENDBRANCH   2  14
ENDBRANCH   8   2
BRANCH   4  12
ATOM     12  C   UNL     1      -2.521   0.353   1.325  0.00  0.00    +0.140 C 
BRANCH  12  13
ATOM      5  N   UNL     1      -2.283  -2.015   0.821  0.00  0.00    -0.259 NA
ATOM     13  C   UNL     1      -2.937  -0.865   0.544  0.00  0.00    +0.055 A 
ATOM     15  C   UNL     1      -3.947  -0.755  -0.399  0.00  0.00    +0.024 A 
ATOM     17  C   UNL     1      -4.309  -1.899  -1.101  0.00  0.00    +0.003 A 
ATOM     18  C   UNL     1      -2.662  -3.106   0.118  0.00  0.00    +0.111 A 
ATOM     19  C   UNL     1      -3.659  -3.101  -0.844  0.00  0.00    +0.020 A 
ENDBRANCH  12  13
ENDBRANCH   4  12
TORSDOF 5
