REMARK  Name = 11884021
REMARK  7 active torsions:
REMARK  status: ('A' for Active; 'I' for Inactive)
REMARK    1  A    between atoms: O_4  and  C_13
REMARK    2  A    between atoms: O_4  and  C_17
REMARK    3  A    between atoms: O_7  and  C_27
REMARK    4  A    between atoms: O_7  and  C_28
REMARK    5  A    between atoms: N_8  and  C_12
REMARK    6  A    between atoms: N_9  and  C_20
REMARK    7  A    between atoms: C_16  and  C_18
REMARK                            x       y       z     vdW  Elec       q    Type
REMARK                         _______ _______ _______ _____ _____    ______ ____
ROOT
ATOM      4  O   UNL     1      -0.421   2.159  -0.094  0.00  0.00    -0.442 OA
ENDROOT
BRANCH   4  13
ATOM      2  O   UNL     1      -2.797   1.483   1.172  0.00  0.00    -0.368 OA
ATOM      3  O   UNL     1      -3.670   2.689  -1.508  0.00  0.00    -0.368 OA
ATOM     10  C   UNL     1      -3.855   1.373  -0.947  0.00  0.00    +0.173 C 
ATOM     11  C   UNL     1      -2.591   1.041  -0.180  0.00  0.00    +0.192 C 
ATOM     12  C   UNL     1      -4.926   1.409   0.118  0.00  0.00    +0.130 C 
ATOM     13  C   UNL     1      -1.550   1.874  -0.888  0.00  0.00    +0.235 C 
ATOM     14  C   UNL     1      -4.159   1.909   1.330  0.00  0.00    +0.185 C 
ATOM     15  C   UNL     1      -2.328   3.122  -1.242  0.00  0.00    +0.207 C 
BRANCH  12   8
ATOM      5  O   UNL     1      -7.255   0.362  -1.081  0.00  0.00    -0.270 OA
ATOM      8  N   UNL     1      -5.477   0.096   0.350  0.00  0.00    -0.303 N 
ATOM     16  C   UNL     1      -6.637  -0.347  -0.285  0.00  0.00    +0.251 C 
ATOM     34  H   UNL     1      -4.958  -0.526   0.961  0.00  0.00    +0.149 HD
BRANCH  16  18
ATOM      1  S   UNL     1      -8.469  -2.351  -0.704  0.00  0.00    -0.092 S 
ATOM     18  C   UNL     1      -7.055  -1.721   0.030  0.00  0.00    +0.074 A 
ATOM     19  C   UNL     1      -6.457  -2.635   0.869  0.00  0.00    +0.021 A 
ATOM     21  C   UNL     1      -7.168  -3.869   0.910  0.00  0.00    +0.008 A 
ATOM     22  C   UNL     1      -8.283  -3.851   0.101  0.00  0.00    +0.046 A 
ENDBRANCH  16  18
ENDBRANCH  12   8
ENDBRANCH   4  13
BRANCH   4  17
ATOM      6  O   UNL     1       0.645   0.323  -0.943  0.00  0.00    -0.226 OA
ATOM      9  N   UNL     1       1.666   1.716   0.636  0.00  0.00    -0.251 N 
ATOM     17  C   UNL     1       0.650   1.297  -0.201  0.00  0.00    +0.405 C 
ATOM     35  H   UNL     1       1.483   2.557   1.180  0.00  0.00    +0.158 HD
BRANCH   9  20
ATOM     20  C   UNL     1       2.933   1.122   0.833  0.00  0.00    +0.037 A 
ATOM     23  C   UNL     1       3.840   1.691   1.728  0.00  0.00    +0.027 A 
ATOM     24  C   UNL     1       3.277  -0.035   0.133  0.00  0.00    +0.027 A 
ATOM     25  C   UNL     1       5.090   1.104   1.922  0.00  0.00    +0.048 A 
ATOM     26  C   UNL     1       4.527  -0.622   0.328  0.00  0.00    +0.048 A 
ATOM     27  C   UNL     1       5.433  -0.053   1.222  0.00  0.00    +0.129 A 
BRANCH  27   7
ATOM      7  O   UNL     1       6.652  -0.627   1.414  0.00  0.00    -0.456 OA
BRANCH   7  28
ATOM     28  C   UNL     1       7.356  -1.034   0.293  0.00  0.00    +0.128 A 
ATOM     29  C   UNL     1       7.444  -0.194  -0.817  0.00  0.00    +0.046 A 
ATOM     30  C   UNL     1       7.976  -2.283   0.273  0.00  0.00    +0.046 A 
ATOM     31  C   UNL     1       8.152  -0.603  -1.947  0.00  0.00    +0.004 A 
ATOM     32  C   UNL     1       8.684  -2.692  -0.857  0.00  0.00    +0.004 A 
ATOM     33  C   UNL     1       8.772  -1.852  -1.967  0.00  0.00    +0.000 A 
ENDBRANCH   7  28
ENDBRANCH  27   7
ENDBRANCH   9  20
ENDBRANCH   4  17
TORSDOF 7
