REMARK  Name = 7164740
REMARK  7 active torsions:
REMARK  status: ('A' for Active; 'I' for Inactive)
REMARK    1  A    between atoms: O_4  and  C_26
REMARK    2  A    between atoms: O_4  and  C_30
REMARK    3  A    between atoms: O_5  and  C_29
REMARK    4  A    between atoms: O_5  and  C_31
REMARK    5  A    between atoms: N_8  and  C_22
REMARK    6  A    between atoms: N_9  and  C_20
REMARK    7  A    between atoms: C_23  and  C_26
REMARK                            x       y       z     vdW  Elec       q    Type
REMARK                         _______ _______ _______ _____ _____    ______ ____
ROOT
ATOM      1  O   UNL     1      -0.717   2.526   1.917  0.00  0.00    -0.266 OA
ATOM      2  O   UNL     1      -3.775  -1.710   1.855  0.00  0.00    -0.252 OA
ATOM      6  N   UNL     1      -4.572  -0.221   0.274  0.00  0.00    -0.284 N 
ATOM      7  N   UNL     1      -2.480   2.183   0.421  0.00  0.00    -0.310 N 
ATOM      8  N   UNL     1      -3.250  -2.064  -0.375  0.00  0.00    -0.269 N 
ATOM     10  C   UNL     1      -4.927   2.088   1.163  0.00  0.00    +0.027 C 
ATOM     11  C   UNL     1      -4.359   1.771  -1.206  0.00  0.00    +0.054 C 
ATOM     12  C   UNL     1      -5.231   2.577  -0.247  0.00  0.00    +0.018 C 
ATOM     13  C   UNL     1      -5.248   0.590   1.291  0.00  0.00    +0.114 C 
ATOM     14  C   UNL     1      -3.462   2.395   1.493  0.00  0.00    +0.130 C 
ATOM     15  C   UNL     1      -4.719   0.273  -1.108  0.00  0.00    +0.119 C 
ATOM     16  C   UNL     1      -2.885   1.963  -0.899  0.00  0.00    +0.027 A 
ATOM     17  C   UNL     1      -1.973   1.888  -1.882  0.00  0.00    +0.024 A 
ATOM     18  C   UNL     1      -1.121   2.316   0.772  0.00  0.00    +0.273 A 
ATOM     19  C   UNL     1      -3.847  -1.365   0.673  0.00  0.00    +0.306 C 
ATOM     20  C   UNL     1      -0.135   2.200  -0.348  0.00  0.00    +0.099 A 
ATOM     21  C   UNL     1      -0.571   2.008  -1.598  0.00  0.00    +0.030 A 
ATOM     37  H   UNL     1      -3.690  -2.029  -1.288  0.00  0.00    +0.156 HD
ENDROOT
BRANCH   8  22
ATOM     22  C   UNL     1      -2.057  -2.826  -0.326  0.00  0.00    +0.035 A 
ATOM     24  C   UNL     1      -1.347  -2.933   0.870  0.00  0.00    +0.027 A 
ATOM     25  C   UNL     1      -1.592  -3.469  -1.473  0.00  0.00    +0.027 A 
ATOM     27  C   UNL     1      -0.171  -3.683   0.918  0.00  0.00    +0.047 A 
ATOM     28  C   UNL     1      -0.416  -4.219  -1.425  0.00  0.00    +0.047 A 
ATOM     29  C   UNL     1       0.294  -4.325  -0.229  0.00  0.00    +0.120 A 
BRANCH  29   5
ATOM      5  O   UNL     1       1.442  -5.054  -0.182  0.00  0.00    -0.495 OA
ATOM     31  C   UNL     1       2.118  -5.122   1.073  0.00  0.00    +0.277 C 
ENDBRANCH  29   5
ENDBRANCH   8  22
BRANCH  20   9
ATOM      3  O   UNL     1       2.036   0.950  -1.746  0.00  0.00    -0.272 OA
ATOM      9  N   UNL     1       1.191   2.306  -0.048  0.00  0.00    -0.278 N 
ATOM     23  C   UNL     1       2.197   1.674  -0.766  0.00  0.00    +0.255 C 
ATOM     38  H   UNL     1       1.424   2.685   0.867  0.00  0.00    +0.155 HD
BRANCH  23  26
ATOM     26  C   UNL     1       3.565   1.980  -0.195  0.00  0.00    +0.324 C 
BRANCH  26   4
ATOM      4  O   UNL     1       4.575   1.345  -0.949  0.00  0.00    -0.483 OA
BRANCH   4  30
ATOM     30  C   UNL     1       5.732   1.004  -0.289  0.00  0.00    +0.121 A 
ATOM     32  C   UNL     1       6.166   1.767   0.795  0.00  0.00    +0.045 A 
ATOM     33  C   UNL     1       6.472  -0.103  -0.704  0.00  0.00    +0.045 A 
ATOM     34  C   UNL     1       7.340   1.422   1.464  0.00  0.00    +0.004 A 
ATOM     35  C   UNL     1       7.646  -0.447  -0.035  0.00  0.00    +0.004 A 
ATOM     36  C   UNL     1       8.080   0.315   1.050  0.00  0.00    +0.000 A 
ENDBRANCH   4  30
ENDBRANCH  26   4
ENDBRANCH  23  26
ENDBRANCH  20   9
TORSDOF 6
