REMARK  Name = 7135144
REMARK  9 active torsions:
REMARK  status: ('A' for Active; 'I' for Inactive)
REMARK    1  A    between atoms: O_3  and  C_15
REMARK    2  A    between atoms: O_4  and  C_20
REMARK    3  A    between atoms: C_10  and  C_18
REMARK    4  A    between atoms: C_12  and  C_20
REMARK    5  A    between atoms: C_12  and  C_21
REMARK    6  A    between atoms: C_13  and  C_23
REMARK    7  A    between atoms: C_23  and  C_24
REMARK    8  A    between atoms: C_30  and  C_31
REMARK    9  A    between atoms: C_32  and  C_33
REMARK                            x       y       z     vdW  Elec       q    Type
REMARK                         _______ _______ _______ _____ _____    ______ ____
ROOT
ATOM      1  S   UNL     1       0.460   3.139   0.231  0.00  0.00    -0.057 S 
ATOM      6  O   UNL     1       3.492  -0.371  -0.173  0.00  0.00    -0.270 OA
ATOM      7  N   UNL     1       0.693   0.579  -0.062  0.00  0.00    -0.229 NA
ATOM      9  N   UNL     1       2.737   1.847   0.084  0.00  0.00    -0.261 N 
ATOM     10  C   UNL     1      -3.136   0.318   0.313  0.00  0.00    -0.019 C 
ATOM     11  C   UNL     1      -3.376   1.753  -0.336  0.00  0.00    +0.011 C 
ATOM     12  C   UNL     1      -4.858   2.292  -0.351  0.00  0.00    +0.021 C 
ATOM     13  C   UNL     1      -1.703  -0.204  -0.164  0.00  0.00    +0.054 C 
ATOM     14  C   UNL     1      -4.213  -0.669  -0.206  0.00  0.00    +0.010 C 
ATOM     15  C   UNL     1      -5.808   1.167  -0.850  0.00  0.00    +0.123 C 
ATOM     16  C   UNL     1      -2.336   2.791   0.179  0.00  0.00    +0.049 C 
ATOM     17  C   UNL     1      -5.638  -0.144  -0.091  0.00  0.00    +0.032 C 
ATOM     18  C   UNL     1      -3.187   0.342   1.860  0.00  0.00    +0.012 C 
ATOM     19  C   UNL     1      -0.658   0.872  -0.018  0.00  0.00    +0.058 A 
ATOM     21  C   UNL     1      -4.960   3.467  -1.365  0.00  0.00    +0.016 C 
ATOM     22  C   UNL     1      -0.964   2.211   0.116  0.00  0.00    +0.015 A 
ATOM     25  C   UNL     1       1.376   1.696   0.067  0.00  0.00    +0.165 A 
ATOM     32  C   UNL     1       3.698   0.830  -0.034  0.00  0.00    +0.250 C 
ATOM     41  H   UNL     1       3.036   2.815   0.153  0.00  0.00    +0.157 HD
ENDROOT
BRANCH  32  33
ATOM      2  F   UNL     1       9.043   2.552   0.040  0.00  0.00    -0.205 F 
ATOM     33  C   UNL     1       5.113   1.286  -0.014  0.00  0.00    +0.037 A 
ATOM     34  C   UNL     1       6.097   0.535  -0.658  0.00  0.00    +0.016 A 
ATOM     35  C   UNL     1       5.457   2.464   0.649  0.00  0.00    +0.016 A 
ATOM     36  C   UNL     1       7.424   0.963  -0.640  0.00  0.00    +0.039 A 
ATOM     37  C   UNL     1       6.785   2.892   0.667  0.00  0.00    +0.039 A 
ATOM     38  C   UNL     1       7.768   2.141   0.023  0.00  0.00    +0.123 A 
ENDBRANCH  32  33
BRANCH  15   3
ATOM      3  O   UNL     1      -7.171   1.580  -0.754  0.00  0.00    -0.391 OA
ATOM     39  H   UNL     1      -7.721   0.866  -1.119  0.00  0.00    +0.210 HD
ENDBRANCH  15   3
BRANCH  12  20
ATOM     20  C   UNL     1      -5.345   2.866   0.998  0.00  0.00    +0.165 C 
BRANCH  20   4
ATOM      4  O   UNL     1      -6.671   3.313   0.824  0.00  0.00    -0.394 OA
ATOM     40  H   UNL     1      -6.967   3.682   1.673  0.00  0.00    +0.209 HD
ENDBRANCH  20   4
ENDBRANCH  12  20
BRANCH  13  23
ATOM     23  C   UNL     1      -1.253  -1.517   0.491  0.00  0.00    +0.106 C 
BRANCH  23  24
ATOM      5  O   UNL     1      -0.025  -1.753  -1.521  0.00  0.00    -0.276 OA
ATOM      8  N   UNL     1       0.200  -3.462   0.036  0.00  0.00    -0.301 N 
ATOM     24  C   UNL     1      -0.305  -2.248  -0.426  0.00  0.00    +0.216 C 
ATOM     26  C   UNL     1      -0.114  -4.075   1.332  0.00  0.00    +0.108 C 
ATOM     27  C   UNL     1       1.157  -4.212  -0.780  0.00  0.00    +0.108 C 
ATOM     28  C   UNL     1      -0.622  -5.504   1.147  0.00  0.00    +0.022 C 
ATOM     29  C   UNL     1       0.672  -5.642  -1.011  0.00  0.00    +0.022 C 
ATOM     30  C   UNL     1       0.362  -6.345   0.320  0.00  0.00    -0.011 C 
ATOM     31  C   UNL     1      -0.191  -7.747   0.078  0.00  0.00    +0.007 C 
ENDBRANCH  23  24
ENDBRANCH  13  23
TORSDOF 6
