REMARK  Name = 45361691
REMARK  11 active torsions:
REMARK  status: ('A' for Active; 'I' for Inactive)
REMARK    1  A    between atoms: O_1  and  C_14
REMARK    2  A    between atoms: O_1  and  C_23
REMARK    3  A    between atoms: O_2  and  C_15
REMARK    4  A    between atoms: O_3  and  C_19
REMARK    5  A    between atoms: N_7  and  C_28
REMARK    6  A    between atoms: C_8  and  C_18
REMARK    7  A    between atoms: C_10  and  C_19
REMARK    8  A    between atoms: C_10  and  C_21
REMARK    9  A    between atoms: C_11  and  C_20
REMARK   10  A    between atoms: C_20  and  C_22
REMARK   11  A    between atoms: C_33  and  C_34
REMARK                            x       y       z     vdW  Elec       q    Type
REMARK                         _______ _______ _______ _____ _____    ______ ____
ROOT
ATOM      8  C   UNL     1      -1.782  -0.683   0.354  0.00  0.00    -0.023 C 
ATOM      9  C   UNL     1      -1.051  -1.736  -0.567  0.00  0.00    +0.007 C 
ATOM     10  C   UNL     1       0.469  -2.015  -0.253  0.00  0.00    +0.031 C 
ATOM     11  C   UNL     1      -3.164  -0.340  -0.343  0.00  0.00    +0.032 C 
ATOM     12  C   UNL     1      -0.911   0.601   0.419  0.00  0.00    +0.011 C 
ATOM     13  C   UNL     1      -1.915  -3.003  -0.748  0.00  0.00    +0.007 C 
ATOM     14  C   UNL     1       1.218  -0.653  -0.133  0.00  0.00    +0.186 C 
ATOM     15  C   UNL     1      -4.034  -1.586  -0.630  0.00  0.00    +0.119 C 
ATOM     16  C   UNL     1       0.541   0.341   0.805  0.00  0.00    +0.046 C 
ATOM     17  C   UNL     1      -3.265  -2.668  -1.383  0.00  0.00    +0.032 C 
ATOM     18  C   UNL     1      -2.011  -1.179   1.802  0.00  0.00    +0.012 C 
ATOM     21  C   UNL     1       1.100  -2.789  -1.447  0.00  0.00    +0.017 C 
ENDROOT
BRANCH  15   2
ATOM      2  O   UNL     1      -4.564  -2.125   0.577  0.00  0.00    -0.391 OA
ATOM     35  H   UNL     1      -5.128  -2.881   0.341  0.00  0.00    +0.210 HD
ENDBRANCH  15   2
BRANCH  14   1
ATOM      1  O   UNL     1       2.557  -0.823   0.332  0.00  0.00    -0.446 OA
BRANCH   1  23
ATOM      5  O   UNL     1       3.189   1.025  -0.858  0.00  0.00    -0.226 OA
ATOM      7  N   UNL     1       4.708  -0.207   0.429  0.00  0.00    -0.251 N 
ATOM     23  C   UNL     1       3.472   0.098  -0.109  0.00  0.00    +0.405 C 
ATOM     37  H   UNL     1       4.745  -1.023   1.035  0.00  0.00    +0.158 HD
BRANCH   7  28
ATOM     28  C   UNL     1       5.931   0.476   0.241  0.00  0.00    +0.036 A 
ATOM     29  C   UNL     1       7.089   0.019   0.871  0.00  0.00    +0.023 A 
ATOM     30  C   UNL     1       5.981   1.607  -0.573  0.00  0.00    +0.023 A 
ATOM     31  C   UNL     1       8.296   0.692   0.685  0.00  0.00    +0.005 A 
ATOM     32  C   UNL     1       7.188   2.281  -0.759  0.00  0.00    +0.005 A 
ATOM     33  C   UNL     1       8.345   1.823  -0.129  0.00  0.00    -0.050 A 
ATOM     34  C   UNL     1       9.636   2.543  -0.329  0.00  0.00    +0.044 C 
ENDBRANCH   7  28
ENDBRANCH   1  23
ENDBRANCH  14   1
BRANCH  10  19
ATOM     19  C   UNL     1       0.704  -2.898   0.989  0.00  0.00    +0.166 C 
BRANCH  19   3
ATOM      3  O   UNL     1       1.997  -3.452   0.889  0.00  0.00    -0.394 OA
ATOM     36  H   UNL     1       2.135  -4.011   1.674  0.00  0.00    +0.209 HD
ENDBRANCH  19   3
ENDBRANCH  10  19
BRANCH  11  20
ATOM     20  C   UNL     1      -4.003   0.728   0.377  0.00  0.00    +0.102 C 
BRANCH  20  22
ATOM      4  O   UNL     1      -4.662   1.467  -1.789  0.00  0.00    -0.276 OA
ATOM      6  N   UNL     1      -6.151   1.816  -0.057  0.00  0.00    -0.301 N 
ATOM     22  C   UNL     1      -4.960   1.366  -0.598  0.00  0.00    +0.216 C 
ATOM     24  C   UNL     1      -7.176   2.461  -0.864  0.00  0.00    +0.108 C 
ATOM     25  C   UNL     1      -6.565   1.723   1.339  0.00  0.00    +0.108 C 
ATOM     26  C   UNL     1      -8.404   2.489   0.032  0.00  0.00    +0.020 C 
ATOM     27  C   UNL     1      -7.803   2.604   1.427  0.00  0.00    +0.020 C 
ENDBRANCH  20  22
ENDBRANCH  11  20
TORSDOF 8
