REMARK  Name = 11911727
REMARK  8 active torsions:
REMARK  status: ('A' for Active; 'I' for Inactive)
REMARK    1  A    between atoms: S_1  and  N_6
REMARK    2  A    between atoms: S_1  and  C_19
REMARK    3  A    between atoms: N_6  and  C_14
REMARK    4  A    between atoms: N_7  and  C_15
REMARK    5  A    between atoms: N_11  and  C_36
REMARK    6  A    between atoms: N_11  and  C_37
REMARK    7  A    between atoms: N_11  and  C_38
REMARK    8  A    between atoms: C_23  and  C_28
REMARK                            x       y       z     vdW  Elec       q    Type
REMARK                         _______ _______ _______ _____ _____    ______ ____
ROOT
ATOM      2  O   UNL     1      -0.127   1.777   1.352  0.00  0.00    -0.370 OA
ATOM      3  O   UNL     1       1.942  -0.242   2.527  0.00  0.00    -0.370 OA
ATOM     12  C   UNL     1       1.685   0.243   1.199  0.00  0.00    +0.170 C 
ATOM     13  C   UNL     1       0.184   0.404   1.060  0.00  0.00    +0.171 C 
ATOM     14  C   UNL     1       2.222   1.647   1.039  0.00  0.00    +0.133 C 
ATOM     15  C   UNL     1      -0.385  -0.501   2.127  0.00  0.00    +0.130 C 
ATOM     16  C   UNL     1       1.092   2.493   1.600  0.00  0.00    +0.183 C 
ATOM     17  C   UNL     1       0.693  -0.475   3.195  0.00  0.00    +0.185 C 
ENDROOT
BRANCH  15   7
ATOM      7  N   UNL     1      -0.543  -1.841   1.607  0.00  0.00    -0.306 N 
ATOM      8  N   UNL     1      -2.648  -1.357   0.690  0.00  0.00    -0.214 NA
ATOM      9  N   UNL     1      -1.675  -3.550   0.465  0.00  0.00    -0.223 NA
ATOM     18  C   UNL     1      -1.655  -2.262   0.899  0.00  0.00    +0.216 A 
ATOM     23  C   UNL     1      -3.717  -1.800  -0.003  0.00  0.00    +0.076 A 
ATOM     25  C   UNL     1      -2.775  -3.926  -0.221  0.00  0.00    +0.116 A 
ATOM     27  C   UNL     1      -3.837  -3.087  -0.488  0.00  0.00    +0.048 A 
ATOM     40  H   UNL     1       0.213  -2.509   1.712  0.00  0.00    +0.149 HD
BRANCH  23  28
ATOM     28  C   UNL     1      -4.758  -0.823  -0.215  0.00  0.00    +0.001 A 
ATOM     32  C   UNL     1      -6.090  -1.230  -0.325  0.00  0.00    +0.012 A 
ATOM     33  C   UNL     1      -4.437   0.532  -0.313  0.00  0.00    +0.012 A 
ATOM     34  C   UNL     1      -7.095  -0.286  -0.531  0.00  0.00    +0.024 A 
ATOM     35  C   UNL     1      -5.443   1.477  -0.520  0.00  0.00    +0.024 A 
ATOM     36  C   UNL     1      -6.772   1.067  -0.629  0.00  0.00    +0.029 A 
BRANCH  36  11
ATOM     11  N   UNL     1      -7.789   2.022  -0.837  0.00  0.00    -0.336 N 
ATOM     37  C   UNL     1      -7.654   3.366  -0.310  0.00  0.00    +0.129 C 
ATOM     38  C   UNL     1      -8.990   1.668  -1.568  0.00  0.00    +0.129 C 
ENDBRANCH  36  11
ENDBRANCH  23  28
ENDBRANCH  15   7
BRANCH  14   6
ATOM      6  N   UNL     1       2.469   1.957  -0.348  0.00  0.00    -0.182 NA
ATOM     39  H   UNL     1       1.788   1.637  -1.047  0.00  0.00    +0.148 HD
BRANCH   6   1
ATOM      1  S   UNL     1       4.007   2.487  -0.835  0.00  0.00    +0.061 S 
ATOM      4  O   UNL     1       4.398   3.632  -0.036  0.00  0.00    -0.153 OA
ATOM      5  O   UNL     1       4.038   2.562  -2.283  0.00  0.00    -0.153 OA
BRANCH   1  19
ATOM     10  N   UNL     1       4.080  -0.222  -2.079  0.00  0.00    -0.253 NA
ATOM     19  C   UNL     1       5.027   1.121  -0.367  0.00  0.00    +0.131 A 
ATOM     20  C   UNL     1       4.940  -0.080  -1.052  0.00  0.00    +0.097 A 
ATOM     21  C   UNL     1       5.901   1.313   0.699  0.00  0.00    +0.031 A 
ATOM     22  C   UNL     1       5.779  -1.134  -0.633  0.00  0.00    +0.002 A 
ATOM     24  C   UNL     1       6.725   0.270   1.105  0.00  0.00    +0.003 A 
ATOM     26  C   UNL     1       6.665  -0.952   0.442  0.00  0.00    +0.010 A 
ATOM     29  C   UNL     1       5.698  -2.354  -1.319  0.00  0.00    +0.011 A 
ATOM     30  C   UNL     1       4.033  -1.415  -2.714  0.00  0.00    +0.111 A 
ATOM     31  C   UNL     1       4.813  -2.502  -2.377  0.00  0.00    +0.020 A 
ENDBRANCH   1  19
ENDBRANCH   6   1
ENDBRANCH  14   6
TORSDOF 6
