REMARK  Name = 40777542
REMARK  6 active torsions:
REMARK  status: ('A' for Active; 'I' for Inactive)
REMARK    1  A    between atoms: N_2  and  C_9
REMARK    2  A    between atoms: N_5  and  C_20
REMARK    3  A    between atoms: C_7  and  C_10
REMARK    4  A    between atoms: C_13  and  C_15
REMARK    5  A    between atoms: C_14  and  C_16
REMARK    6  A    between atoms: C_20  and  C_21
REMARK                            x       y       z     vdW  Elec       q    Type
REMARK                         _______ _______ _______ _____ _____    ______ ____
ROOT
ATOM      7  C   UNL     1      -0.935  -1.129   0.481  0.00  0.00    +0.047 C 
ATOM      8  C   UNL     1      -0.087  -0.156  -0.364  0.00  0.00    +0.039 C 
ATOM      9  C   UNL     1       1.065   0.292   0.544  0.00  0.00    +0.098 C 
ATOM     11  C   UNL     1      -0.558  -0.751   1.884  0.00  0.00    -0.021 C 
ATOM     12  C   UNL     1       0.534   0.019   1.913  0.00  0.00    -0.009 C 
ENDROOT
BRANCH   7  10
ATOM      3  N   UNL     1      -4.472  -0.372  -0.100  0.00  0.00    -0.218 N 
ATOM      4  N   UNL     1      -4.524  -1.672  -0.436  0.00  0.00    -0.170 NA
ATOM      6  N   UNL     1      -5.493   1.722  -0.430  0.00  0.00    -0.236 NA
ATOM     10  C   UNL     1      -2.414  -1.048   0.180  0.00  0.00    +0.003 A 
ATOM     13  C   UNL     1      -3.231   0.051   0.276  0.00  0.00    +0.048 A 
ATOM     14  C   UNL     1      -3.264  -2.080  -0.263  0.00  0.00    +0.064 A 
ATOM     15  C   UNL     1      -2.937   1.440   0.685  0.00  0.00    +0.066 C 
ATOM     16  C   UNL     1      -2.913  -3.485  -0.538  0.00  0.00    +0.068 C 
ATOM     18  C   UNL     1      -5.630   0.405  -0.158  0.00  0.00    +0.154 A 
ATOM     19  C   UNL     1      -6.846  -0.219   0.065  0.00  0.00    +0.048 A 
ATOM     22  C   UNL     1      -7.997   0.558   0.004  0.00  0.00    +0.005 A 
ATOM     23  C   UNL     1      -6.634   2.446  -0.480  0.00  0.00    +0.113 A 
ATOM     24  C   UNL     1      -7.898   1.917  -0.273  0.00  0.00    +0.020 A 
ENDBRANCH   7  10
BRANCH   9   2
ATOM      1  O   UNL     1       3.270   0.935  -1.203  0.00  0.00    -0.253 OA
ATOM      2  N   UNL     1       2.264  -0.477   0.342  0.00  0.00    -0.293 N 
ATOM      5  N   UNL     1       4.328  -1.017  -0.531  0.00  0.00    -0.295 N 
ATOM     17  C   UNL     1       3.287  -0.092  -0.527  0.00  0.00    +0.300 C 
ATOM     30  H   UNL     1       2.359  -1.371   0.816  0.00  0.00    +0.151 HD
ATOM     31  H   UNL     1       4.266  -1.826   0.080  0.00  0.00    +0.151 HD
BRANCH   5  20
ATOM     20  C   UNL     1       5.512  -0.860  -1.344  0.00  0.00    +0.141 C 
BRANCH  20  21
ATOM     21  C   UNL     1       6.592  -0.106  -0.624  0.00  0.00    -0.030 A 
ATOM     25  C   UNL     1       6.657   1.284  -0.723  0.00  0.00    +0.005 A 
ATOM     26  C   UNL     1       7.530  -0.794   0.145  0.00  0.00    +0.005 A 
ATOM     27  C   UNL     1       7.660   1.985  -0.054  0.00  0.00    +0.000 A 
ATOM     28  C   UNL     1       8.533  -0.094   0.814  0.00  0.00    +0.000 A 
ATOM     29  C   UNL     1       8.598   1.296   0.715  0.00  0.00    +0.000 A 
ENDBRANCH  20  21
ENDBRANCH   5  20
ENDBRANCH   9   2
TORSDOF 4
