REMARK  Name = 7135170
REMARK  11 active torsions:
REMARK  status: ('A' for Active; 'I' for Inactive)
REMARK    1  A    between atoms: O_2  and  C_15
REMARK    2  A    between atoms: O_3  and  C_20
REMARK    3  A    between atoms: N_8  and  C_26
REMARK    4  A    between atoms: C_10  and  C_18
REMARK    5  A    between atoms: C_12  and  C_20
REMARK    6  A    between atoms: C_12  and  C_21
REMARK    7  A    between atoms: C_13  and  C_23
REMARK    8  A    between atoms: C_23  and  C_24
REMARK    9  A    between atoms: C_26  and  C_28
REMARK   10  A    between atoms: C_26  and  C_29
REMARK   11  A    between atoms: C_27  and  C_30
REMARK                            x       y       z     vdW  Elec       q    Type
REMARK                         _______ _______ _______ _____ _____    ______ ____
ROOT
ATOM      1  S   UNL     1      -0.635   3.170   0.121  0.00  0.00    -0.057 S 
ATOM      5  O   UNL     1       3.227   0.659  -0.259  0.00  0.00    -0.266 OA
ATOM      7  N   UNL     1       0.316   0.775  -0.110  0.00  0.00    -0.229 NA
ATOM      9  N   UNL     1       1.914   2.579  -0.044  0.00  0.00    -0.258 N 
ATOM     10  C   UNL     1      -3.272  -0.556   0.360  0.00  0.00    -0.019 C 
ATOM     11  C   UNL     1      -3.922   0.728  -0.320  0.00  0.00    +0.011 C 
ATOM     12  C   UNL     1      -5.497   0.822  -0.315  0.00  0.00    +0.021 C 
ATOM     13  C   UNL     1      -1.756  -0.663  -0.136  0.00  0.00    +0.054 C 
ATOM     14  C   UNL     1      -4.029  -1.826  -0.108  0.00  0.00    +0.010 C 
ATOM     15  C   UNL     1      -6.092  -0.543  -0.763  0.00  0.00    +0.123 C 
ATOM     16  C   UNL     1      -3.215   2.036   0.143  0.00  0.00    +0.049 C 
ATOM     17  C   UNL     1      -5.542  -1.727   0.026  0.00  0.00    +0.032 C 
ATOM     18  C   UNL     1      -3.305  -0.500   1.907  0.00  0.00    +0.012 C 
ATOM     19  C   UNL     1      -1.061   0.671  -0.043  0.00  0.00    +0.058 A 
ATOM     21  C   UNL     1      -5.945   1.885  -1.357  0.00  0.00    +0.016 C 
ATOM     22  C   UNL     1      -1.735   1.871   0.064  0.00  0.00    +0.015 A 
ATOM     25  C   UNL     1       0.653   2.044  -0.026  0.00  0.00    +0.165 A 
ATOM     27  C   UNL     1       3.137   1.880  -0.158  0.00  0.00    +0.285 C 
ATOM     42  H   UNL     1       1.952   3.591   0.040  0.00  0.00    +0.157 HD
ENDROOT
BRANCH  27  30
ATOM      6  O   UNL     1       4.178   4.063   0.051  0.00  0.00    -0.458 OA
ATOM     30  C   UNL     1       4.345   2.723  -0.102  0.00  0.00    +0.189 A 
ATOM     33  C   UNL     1       5.681   2.408  -0.176  0.00  0.00    +0.054 A 
ATOM     37  C   UNL     1       6.381   3.633  -0.062  0.00  0.00    +0.042 A 
ATOM     38  C   UNL     1       5.422   4.609   0.074  0.00  0.00    +0.196 A 
ENDBRANCH  27  30
BRANCH  15   2
ATOM      2  O   UNL     1      -7.514  -0.534  -0.646  0.00  0.00    -0.391 OA
ATOM     39  H   UNL     1      -7.843  -1.387  -0.980  0.00  0.00    +0.210 HD
ENDBRANCH  15   2
BRANCH  12  20
ATOM     20  C   UNL     1      -6.107   1.274   1.029  0.00  0.00    +0.165 C 
BRANCH  20   3
ATOM      3  O   UNL     1      -7.508   1.319   0.874  0.00  0.00    -0.394 OA
ATOM     40  H   UNL     1      -7.885   1.614   1.720  0.00  0.00    +0.209 HD
ENDBRANCH  20   3
ENDBRANCH  12  20
BRANCH  13  23
ATOM     23  C   UNL     1      -0.940  -1.771   0.543  0.00  0.00    +0.106 C 
BRANCH  23  24
ATOM      4  O   UNL     1       0.418  -1.824  -1.459  0.00  0.00    -0.276 OA
ATOM      8  N   UNL     1       0.921  -3.250   0.306  0.00  0.00    -0.309 N 
ATOM     24  C   UNL     1       0.192  -2.258  -0.333  0.00  0.00    +0.214 C 
ATOM     41  H   UNL     1       0.679  -3.498   1.262  0.00  0.00    +0.149 HD
BRANCH   8  26
ATOM     26  C   UNL     1       2.062  -3.903  -0.296  0.00  0.00    +0.100 C 
ATOM     28  C   UNL     1       2.155  -5.348   0.189  0.00  0.00    +0.033 C 
BRANCH  26  29
ATOM     29  C   UNL     1       3.337  -3.125  -0.053  0.00  0.00    -0.027 A 
ATOM     31  C   UNL     1       3.513  -2.429   1.143  0.00  0.00    +0.005 A 
ATOM     32  C   UNL     1       4.337  -3.103  -1.025  0.00  0.00    +0.005 A 
ATOM     34  C   UNL     1       4.688  -1.712   1.367  0.00  0.00    +0.000 A 
ATOM     35  C   UNL     1       5.512  -2.386  -0.801  0.00  0.00    +0.000 A 
ATOM     36  C   UNL     1       5.688  -1.691   0.395  0.00  0.00    +0.000 A 
ENDBRANCH  26  29
ENDBRANCH   8  26
ENDBRANCH  23  24
ENDBRANCH  13  23
TORSDOF 8
