REMARK  Name = 51136831
REMARK  6 active torsions:
REMARK  status: ('A' for Active; 'I' for Inactive)
REMARK    1  A    between atoms: N_3  and  C_13
REMARK    2  A    between atoms: C_9  and  C_14
REMARK    3  A    between atoms: C_13  and  C_15
REMARK    4  A    between atoms: C_13  and  C_16
REMARK    5  A    between atoms: C_21  and  C_23
REMARK    6  A    between atoms: C_25  and  C_28
REMARK                            x       y       z     vdW  Elec       q    Type
REMARK                         _______ _______ _______ _____ _____    ______ ____
ROOT
ATOM      2  O   UNL     1       6.940  -2.193  -0.821  0.00  0.00    -0.276 OA
ATOM      4  N   UNL     1       2.896   0.734  -0.010  0.00  0.00    -0.312 N 
ATOM      6  N   UNL     1       5.024  -1.227   0.069  0.00  0.00    -0.299 N 
ATOM      8  N   UNL     1       2.248   3.002  -0.122  0.00  0.00    -0.240 NA
ATOM     17  C   UNL     1       4.147   0.942  -0.744  0.00  0.00    +0.125 C 
ATOM     18  C   UNL     1       2.715  -0.531   0.705  0.00  0.00    +0.125 C 
ATOM     19  C   UNL     1       4.788  -0.396  -1.108  0.00  0.00    +0.126 C 
ATOM     20  C   UNL     1       4.061  -1.092   1.165  0.00  0.00    +0.126 C 
ATOM     22  C   UNL     1       1.893   1.701  -0.026  0.00  0.00    +0.122 A 
ATOM     23  C   UNL     1      -0.428   2.212   0.046  0.00  0.00    +0.027 A 
ATOM     24  C   UNL     1       0.583   1.258   0.059  0.00  0.00    +0.055 A 
ATOM     25  C   UNL     1       6.129  -2.078   0.101  0.00  0.00    +0.213 C 
ATOM     26  C   UNL     1      -0.104   3.560  -0.051  0.00  0.00    +0.031 A 
ATOM     27  C   UNL     1       1.237   3.900  -0.132  0.00  0.00    +0.113 A 
ATOM     28  C   UNL     1       6.305  -2.896   1.357  0.00  0.00    +0.109 C 
ENDROOT
BRANCH  23  21
ATOM      1  O   UNL     1      -3.937   1.851   0.221  0.00  0.00    -0.336 OA
ATOM      5  N   UNL     1      -2.157   0.491   0.226  0.00  0.00    -0.190 NA
ATOM      7  N   UNL     1      -2.813   2.681   0.121  0.00  0.00    -0.056 NA
ATOM     14  C   UNL     1      -3.462   0.579   0.278  0.00  0.00    +0.245 A 
ATOM     21  C   UNL     1      -1.803   1.806   0.130  0.00  0.00    +0.202 A 
BRANCH  14   9
ATOM      3  N   UNL     1      -4.027  -1.800  -0.181  0.00  0.00    -0.289 NA
ATOM      9  C   UNL     1      -4.496  -0.522   0.390  0.00  0.00    +0.146 C 
ATOM     10  C   UNL     1      -4.855  -0.854   1.850  0.00  0.00    +0.030 C 
ATOM     11  C   UNL     1      -4.706  -2.860   0.565  0.00  0.00    +0.085 C 
ATOM     12  C   UNL     1      -4.614  -2.350   1.989  0.00  0.00    +0.017 C 
BRANCH   3  13
ATOM     13  C   UNL     1      -4.255  -1.907  -1.616  0.00  0.00    +0.051 C 
ATOM     15  C   UNL     1      -3.554  -0.754  -2.328  0.00  0.00    +0.024 C 
ATOM     16  C   UNL     1      -3.757  -3.254  -2.132  0.00  0.00    +0.024 C 
ENDBRANCH   3  13
ENDBRANCH  14   9
ENDBRANCH  23  21
TORSDOF 3
