REMARK  Name = 45360660
REMARK  10 active torsions:
REMARK  status: ('A' for Active; 'I' for Inactive)
REMARK    1  A    between atoms: O_3  and  C_31
REMARK    2  A    between atoms: O_3  and  C_32
REMARK    3  A    between atoms: N_6  and  C_9
REMARK    4  A    between atoms: N_6  and  C_17
REMARK    5  A    between atoms: N_7  and  C_22
REMARK    6  A    between atoms: C_10  and  C_15
REMARK    7  A    between atoms: C_15  and  C_16
REMARK    8  A    between atoms: C_16  and  C_18
REMARK    9  A    between atoms: C_17  and  C_19
REMARK   10  A    between atoms: C_22  and  C_26
REMARK                            x       y       z     vdW  Elec       q    Type
REMARK                         _______ _______ _______ _____ _____    ______ ____
ROOT
ATOM      1  O   UNL     1      -0.129  -2.087   2.671  0.00  0.00    -0.274 OA
ATOM      4  N   UNL     1      -0.152   1.008   0.736  0.00  0.00    -0.286 NA
ATOM      5  N   UNL     1      -0.764   0.009   3.286  0.00  0.00    -0.313 N 
ATOM      8  C   UNL     1      -0.154  -0.449   0.916  0.00  0.00    +0.145 C 
ATOM      9  C   UNL     1       1.905   0.384  -0.066  0.00  0.00    +0.070 C 
ATOM     10  C   UNL     1      -1.125   1.716   1.562  0.00  0.00    +0.075 C 
ATOM     11  C   UNL     1       1.203  -0.907   0.358  0.00  0.00    +0.048 C 
ATOM     12  C   UNL     1       1.239   1.449   0.794  0.00  0.00    +0.104 C 
ATOM     13  C   UNL     1      -0.895   1.426   3.037  0.00  0.00    +0.123 C 
ATOM     14  C   UNL     1      -0.323  -0.907   2.362  0.00  0.00    +0.230 C 
ATOM     33  H   UNL     1      -0.893  -0.313   4.240  0.00  0.00    +0.149 HD
ENDROOT
BRANCH   9   6
ATOM      6  N   UNL     1       3.349   0.327   0.096  0.00  0.00    -0.308 NA
ATOM     34  H   UNL     1       3.720   1.277   0.116  0.00  0.00    +0.123 HD
BRANCH   6  17
ATOM     17  C   UNL     1       3.971  -0.398  -1.005  0.00  0.00    +0.116 C 
BRANCH  17  19
ATOM     19  C   UNL     1       5.466  -0.480  -0.848  0.00  0.00    -0.034 A 
ATOM     20  C   UNL     1       6.279   0.516  -1.389  0.00  0.00    +0.005 A 
ATOM     21  C   UNL     1       6.038  -1.552  -0.163  0.00  0.00    +0.005 A 
ATOM     23  C   UNL     1       7.665   0.441  -1.244  0.00  0.00    +0.000 A 
ATOM     24  C   UNL     1       7.424  -1.627  -0.018  0.00  0.00    +0.000 A 
ATOM     25  C   UNL     1       8.237  -0.631  -0.559  0.00  0.00    +0.000 A 
ENDBRANCH  17  19
ENDBRANCH   6  17
ENDBRANCH   9   6
BRANCH  10  15
ATOM     15  C   UNL     1      -1.145   3.222   1.295  0.00  0.00    +0.029 C 
BRANCH  15  16
ATOM     16  C   UNL     1      -1.332   3.516  -0.187  0.00  0.00    +0.097 C 
BRANCH  16  18
ATOM      2  O   UNL     1      -3.741   3.304  -0.285  0.00  0.00    -0.276 OA
ATOM      7  N   UNL     1      -2.437   2.049  -1.738  0.00  0.00    -0.311 N 
ATOM     18  C   UNL     1      -2.643   2.966  -0.718  0.00  0.00    +0.213 C 
ATOM     35  H   UNL     1      -1.492   1.805  -2.019  0.00  0.00    +0.149 HD
BRANCH   7  22
ATOM     22  C   UNL     1      -3.528   1.383  -2.408  0.00  0.00    +0.139 C 
BRANCH  22  26
ATOM     26  C   UNL     1      -3.899   0.091  -1.728  0.00  0.00    -0.030 A 
ATOM     27  C   UNL     1      -3.099  -1.040  -1.896  0.00  0.00    +0.009 A 
ATOM     28  C   UNL     1      -5.040   0.026  -0.929  0.00  0.00    +0.009 A 
ATOM     29  C   UNL     1      -3.441  -2.235  -1.264  0.00  0.00    +0.046 A 
ATOM     30  C   UNL     1      -5.382  -1.170  -0.297  0.00  0.00    +0.046 A 
ATOM     31  C   UNL     1      -4.582  -2.300  -0.465  0.00  0.00    +0.120 A 
BRANCH  31   3
ATOM      3  O   UNL     1      -4.915  -3.467   0.153  0.00  0.00    -0.495 OA
ATOM     32  C   UNL     1      -4.053  -4.583  -0.061  0.00  0.00    +0.277 C 
ENDBRANCH  31   3
ENDBRANCH  22  26
ENDBRANCH   7  22
ENDBRANCH  16  18
ENDBRANCH  15  16
ENDBRANCH  10  15
TORSDOF 9
