REMARK  Name = 28962742
REMARK  8 active torsions:
REMARK  status: ('A' for Active; 'I' for Inactive)
REMARK    1  A    between atoms: O_1  and  C_9
REMARK    2  A    between atoms: N_4  and  C_13
REMARK    3  A    between atoms: C_6  and  C_16
REMARK    4  A    between atoms: C_8  and  C_18
REMARK    5  A    between atoms: C_11  and  C_17
REMARK    6  A    between atoms: C_17  and  C_19
REMARK    7  A    between atoms: C_17  and  C_20
REMARK    8  A    between atoms: C_21  and  C_22
REMARK                            x       y       z     vdW  Elec       q    Type
REMARK                         _______ _______ _______ _____ _____    ______ ____
ROOT
ATOM      6  C   UNL     1      -0.409   1.891   0.518  0.00  0.00    -0.027 C 
ATOM      7  C   UNL     1      -0.271   0.454  -0.086  0.00  0.00    +0.028 C 
ATOM      8  C   UNL     1       1.137   0.262  -0.757  0.00  0.00    +0.012 C 
ATOM      9  C   UNL     1      -1.492   0.100  -0.982  0.00  0.00    +0.122 C 
ATOM     10  C   UNL     1      -1.757   2.008   1.268  0.00  0.00    +0.007 C 
ATOM     11  C   UNL     1      -2.842   0.319  -0.261  0.00  0.00    +0.029 C 
ATOM     12  C   UNL     1       0.723   2.115   1.548  0.00  0.00    +0.009 C 
ATOM     13  C   UNL     1       2.267   0.564   0.267  0.00  0.00    +0.076 C 
ATOM     14  C   UNL     1      -2.958   1.700   0.382  0.00  0.00    +0.007 C 
ATOM     15  C   UNL     1       2.113   1.917   0.961  0.00  0.00    +0.023 C 
ATOM     16  C   UNL     1      -0.342   2.999  -0.563  0.00  0.00    +0.011 C 
ATOM     18  C   UNL     1       1.351  -1.142  -1.348  0.00  0.00    +0.010 C 
ENDROOT
BRANCH  13   4
ATOM      3  O   UNL     1       4.764  -0.254   1.503  0.00  0.00    -0.276 OA
ATOM      4  N   UNL     1       3.576   0.510  -0.348  0.00  0.00    -0.312 N 
ATOM     21  C   UNL     1       4.712   0.104   0.329  0.00  0.00    +0.216 C 
ATOM     32  H   UNL     1       3.659   0.835  -1.307  0.00  0.00    +0.149 HD
BRANCH  21  22
ATOM     22  C   UNL     1       5.929   0.118  -0.549  0.00  0.00    +0.075 C 
ATOM     25  C   UNL     1       7.188   0.435   0.261  0.00  0.00    +0.013 C 
ATOM     26  C   UNL     1       6.038  -1.200  -1.320  0.00  0.00    +0.013 C 
ATOM     29  C   UNL     1       7.687  -0.744   1.095  0.00  0.00    +0.001 C 
ATOM     30  C   UNL     1       6.535  -2.358  -0.458  0.00  0.00    +0.001 C 
ATOM     31  C   UNL     1       7.834  -2.010   0.259  0.00  0.00    +0.000 C 
ENDBRANCH  21  22
ENDBRANCH  13   4
BRANCH   9   1
ATOM      1  O   UNL     1      -1.438  -1.283  -1.337  0.00  0.00    -0.391 OA
ATOM     33  H   UNL     1      -1.463  -1.806  -0.518  0.00  0.00    +0.210 HD
ENDBRANCH   9   1
BRANCH  11  17
ATOM     17  C   UNL     1      -4.033   0.090  -1.201  0.00  0.00    +0.078 C 
ATOM     19  C   UNL     1      -4.005   1.062  -2.366  0.00  0.00    +0.017 C 
BRANCH  17  20
ATOM      2  O   UNL     1      -5.864   1.360  -0.360  0.00  0.00    -0.275 OA
ATOM      5  N   UNL     1      -5.774  -0.874   0.222  0.00  0.00    -0.301 N 
ATOM     20  C   UNL     1      -5.308   0.262  -0.414  0.00  0.00    +0.219 C 
ATOM     23  C   UNL     1      -6.987  -0.872   1.026  0.00  0.00    +0.108 C 
ATOM     24  C   UNL     1      -5.165  -2.201   0.195  0.00  0.00    +0.108 C 
ATOM     27  C   UNL     1      -7.297  -2.344   1.250  0.00  0.00    +0.020 C 
ATOM     28  C   UNL     1      -5.914  -2.983   1.265  0.00  0.00    +0.020 C 
ENDBRANCH  17  20
ENDBRANCH  11  17
TORSDOF 5
