REMARK  Name = 45783558
REMARK  12 active torsions:
REMARK  status: ('A' for Active; 'I' for Inactive)
REMARK    1  A    between atoms: O_2  and  C_23
REMARK    2  A    between atoms: O_2  and  C_24
REMARK    3  A    between atoms: O_3  and  C_25
REMARK    4  A    between atoms: O_3  and  C_26
REMARK    5  A    between atoms: N_4  and  C_11
REMARK    6  A    between atoms: C_8  and  C_14
REMARK    7  A    between atoms: C_11  and  C_13
REMARK    8  A    between atoms: C_13  and  C_15
REMARK    9  A    between atoms: C_13  and  C_16
REMARK   10  A    between atoms: C_13  and  C_17
REMARK   11  A    between atoms: C_18  and  C_19
REMARK   12  A    between atoms: C_24  and  C_25
REMARK                            x       y       z     vdW  Elec       q    Type
REMARK                         _______ _______ _______ _____ _____    ______ ____
ROOT
ATOM      1  O   UNL     1       1.766  -1.765  -1.715  0.00  0.00    -0.336 OA
ATOM      5  N   UNL     1       1.078  -0.820   0.196  0.00  0.00    -0.190 NA
ATOM      6  N   UNL     1       0.399  -1.505  -1.879  0.00  0.00    -0.056 NA
ATOM     14  C   UNL     1       2.084  -1.332  -0.467  0.00  0.00    +0.245 A 
ATOM     18  C   UNL     1       0.066  -0.948  -0.711  0.00  0.00    +0.204 A 
ENDROOT
BRANCH  18  19
ATOM      7  N   UNL     1      -3.562  -0.252  -1.135  0.00  0.00    -0.221 NA
ATOM     19  C   UNL     1      -1.268  -0.510  -0.418  0.00  0.00    +0.041 A 
ATOM     20  C   UNL     1      -1.580   0.064   0.810  0.00  0.00    +0.018 A 
ATOM     21  C   UNL     1      -2.286  -0.644  -1.348  0.00  0.00    +0.126 A 
ATOM     22  C   UNL     1      -2.881   0.481   1.066  0.00  0.00    +0.068 A 
ATOM     23  C   UNL     1      -3.827   0.302   0.070  0.00  0.00    +0.215 A 
BRANCH  23   2
ATOM      2  O   UNL     1      -5.117   0.704   0.298  0.00  0.00    -0.474 OA
BRANCH   2  24
ATOM     24  C   UNL     1      -6.048   0.498  -0.758  0.00  0.00    +0.258 C 
BRANCH  24  25
ATOM     25  C   UNL     1      -7.416   0.980  -0.314  0.00  0.00    +0.200 C 
BRANCH  25   3
ATOM      3  O   UNL     1      -7.825   0.230   0.823  0.00  0.00    -0.380 OA
ATOM     26  C   UNL     1      -9.095   0.655   1.298  0.00  0.00    +0.194 C 
ENDBRANCH  25   3
ENDBRANCH  24  25
ENDBRANCH   2  24
ENDBRANCH  23   2
ENDBRANCH  18  19
BRANCH  14   8
ATOM      4  N   UNL     1       4.245  -0.288   0.391  0.00  0.00    -0.291 NA
ATOM      8  C   UNL     1       3.535  -1.504  -0.038  0.00  0.00    +0.146 C 
ATOM      9  C   UNL     1       3.735  -2.418   1.178  0.00  0.00    +0.030 C 
ATOM     10  C   UNL     1       3.951  -0.078   1.803  0.00  0.00    +0.085 C 
ATOM     12  C   UNL     1       3.924  -1.488   2.376  0.00  0.00    +0.017 C 
BRANCH   4  11
ATOM     11  C   UNL     1       4.061   0.897  -0.426  0.00  0.00    +0.091 C 
BRANCH  11  13
ATOM     13  C   UNL     1       5.210   1.932  -0.306  0.00  0.00    -0.025 C 
ATOM     15  C   UNL     1       4.981   2.886   0.879  0.00  0.00    +0.012 C 
ATOM     16  C   UNL     1       6.527   1.167  -0.071  0.00  0.00    +0.012 C 
ATOM     17  C   UNL     1       5.344   2.754  -1.601  0.00  0.00    +0.012 C 
ENDBRANCH  11  13
ENDBRANCH   4  11
ENDBRANCH  14   8
TORSDOF 8
