REMARK  Name = 40780134
REMARK  8 active torsions:
REMARK  status: ('A' for Active; 'I' for Inactive)
REMARK    1  A    between atoms: O_2  and  C_32
REMARK    2  A    between atoms: O_2  and  C_33
REMARK    3  A    between atoms: N_4  and  C_19
REMARK    4  A    between atoms: N_5  and  C_16
REMARK    5  A    between atoms: N_7  and  C_24
REMARK    6  A    between atoms: C_9  and  C_15
REMARK    7  A    between atoms: C_10  and  C_16
REMARK    8  A    between atoms: C_18  and  C_21
REMARK                            x       y       z     vdW  Elec       q    Type
REMARK                         _______ _______ _______ _____ _____    ______ ____
ROOT
ATOM      3  N   UNL     1       0.600   3.320  -0.636  0.00  0.00    -0.297 NA
ATOM      8  C   UNL     1       1.645   2.310   1.525  0.00  0.00    +0.002 C 
ATOM      9  C   UNL     1       2.717   2.427   0.406  0.00  0.00    +0.055 C 
ATOM     10  C   UNL     1      -0.241   2.199  -0.141  0.00  0.00    +0.074 C 
ATOM     11  C   UNL     1       0.466   1.456   1.014  0.00  0.00    +0.024 C 
ATOM     12  C   UNL     1       1.102   3.733   1.772  0.00  0.00    +0.019 C 
ATOM     13  C   UNL     1       1.980   2.842  -0.900  0.00  0.00    +0.094 C 
ATOM     14  C   UNL     1       0.662   4.347   0.431  0.00  0.00    +0.085 C 
ENDROOT
BRANCH   9  15
ATOM      4  N   UNL     1       4.938   1.399  -0.265  0.00  0.00    -0.270 N 
ATOM      6  N   UNL     1       5.606   0.240  -0.390  0.00  0.00    -0.171 NA
ATOM     15  C   UNL     1       3.660   1.252   0.188  0.00  0.00    +0.044 A 
ATOM     17  C   UNL     1       3.479  -0.097   0.372  0.00  0.00    +0.053 A 
ATOM     18  C   UNL     1       4.710  -0.670   0.000  0.00  0.00    +0.093 A 
ATOM     19  C   UNL     1       5.601   2.636  -0.607  0.00  0.00    +0.172 C 
BRANCH  18  21
ATOM     21  C   UNL     1       5.045  -2.070   0.009  0.00  0.00    +0.002 A 
ATOM     22  C   UNL     1       4.053  -3.026  -0.206  0.00  0.00    +0.010 A 
ATOM     23  C   UNL     1       6.362  -2.471   0.235  0.00  0.00    +0.010 A 
ATOM     25  C   UNL     1       4.377  -4.383  -0.196  0.00  0.00    +0.001 A 
ATOM     26  C   UNL     1       6.687  -3.828   0.244  0.00  0.00    +0.001 A 
ATOM     27  C   UNL     1       5.694  -4.784   0.029  0.00  0.00    +0.000 A 
ENDBRANCH  18  21
ENDBRANCH   9  15
BRANCH  10  16
ATOM     16  C   UNL     1      -0.658   1.244  -1.262  0.00  0.00    +0.124 C 
BRANCH  16   5
ATOM      1  O   UNL     1      -3.517   1.412  -1.175  0.00  0.00    -0.253 OA
ATOM      5  N   UNL     1      -1.559   0.246  -0.773  0.00  0.00    -0.298 N 
ATOM      7  N   UNL     1      -3.576  -0.736  -0.229  0.00  0.00    -0.269 N 
ATOM     20  C   UNL     1      -2.957   0.399  -0.762  0.00  0.00    +0.304 C 
ATOM     34  H   UNL     1      -1.167  -0.618  -0.412  0.00  0.00    +0.150 HD
ATOM     35  H   UNL     1      -2.964  -1.491   0.068  0.00  0.00    +0.156 HD
BRANCH   7  24
ATOM     24  C   UNL     1      -4.960  -0.967  -0.050  0.00  0.00    +0.035 A 
ATOM     28  C   UNL     1      -5.401  -2.168   0.503  0.00  0.00    +0.027 A 
ATOM     29  C   UNL     1      -5.883   0.009  -0.426  0.00  0.00    +0.027 A 
ATOM     30  C   UNL     1      -6.766  -2.395   0.681  0.00  0.00    +0.047 A 
ATOM     31  C   UNL     1      -7.248  -0.218  -0.249  0.00  0.00    +0.047 A 
ATOM     32  C   UNL     1      -7.689  -1.419   0.305  0.00  0.00    +0.120 A 
BRANCH  32   2
ATOM      2  O   UNL     1      -9.021  -1.641   0.480  0.00  0.00    -0.495 OA
ATOM     33  C   UNL     1      -9.910  -0.601   0.073  0.00  0.00    +0.277 C 
ENDBRANCH  32   2
ENDBRANCH   7  24
ENDBRANCH  16   5
ENDBRANCH  10  16
TORSDOF 6
