REMARK  Name = 28962466
REMARK  12 active torsions:
REMARK  status: ('A' for Active; 'I' for Inactive)
REMARK    1  A    between atoms: O_1  and  C_10
REMARK    2  A    between atoms: O_4  and  C_26
REMARK    3  A    between atoms: O_4  and  C_31
REMARK    4  A    between atoms: N_5  and  C_14
REMARK    5  A    between atoms: N_6  and  C_24
REMARK    6  A    between atoms: C_7  and  C_17
REMARK    7  A    between atoms: C_9  and  C_19
REMARK    8  A    between atoms: C_13  and  C_18
REMARK    9  A    between atoms: C_18  and  C_20
REMARK   10  A    between atoms: C_18  and  C_21
REMARK   11  A    between atoms: C_22  and  C_23
REMARK   12  A    between atoms: C_24  and  C_25
REMARK                            x       y       z     vdW  Elec       q    Type
REMARK                         _______ _______ _______ _____ _____    ______ ____
ROOT
ATOM      7  C   UNL     1      -1.662   0.145   1.318  0.00  0.00    -0.027 C 
ATOM      8  C   UNL     1      -1.989  -0.494  -0.073  0.00  0.00    +0.028 C 
ATOM      9  C   UNL     1      -3.531  -0.760  -0.217  0.00  0.00    +0.012 C 
ATOM     10  C   UNL     1      -1.070  -1.715  -0.364  0.00  0.00    +0.122 C 
ATOM     11  C   UNL     1      -0.157   0.498   1.382  0.00  0.00    +0.007 C 
ATOM     12  C   UNL     1      -2.461   1.460   1.469  0.00  0.00    +0.009 C 
ATOM     13  C   UNL     1       0.431  -1.382  -0.196  0.00  0.00    +0.029 C 
ATOM     14  C   UNL     1      -4.328   0.555   0.011  0.00  0.00    +0.076 C 
ATOM     15  C   UNL     1       0.746  -0.704   1.137  0.00  0.00    +0.007 C 
ATOM     16  C   UNL     1      -3.963   1.268   1.313  0.00  0.00    +0.023 C 
ATOM     17  C   UNL     1      -2.003  -0.799   2.499  0.00  0.00    +0.011 C 
ATOM     19  C   UNL     1      -3.927  -1.362  -1.576  0.00  0.00    +0.010 C 
ENDROOT
BRANCH  14   5
ATOM      3  O   UNL     1      -6.402   2.374  -0.891  0.00  0.00    -0.276 OA
ATOM      5  N   UNL     1      -5.757   0.324   0.001  0.00  0.00    -0.312 N 
ATOM     22  C   UNL     1      -6.670   1.259  -0.452  0.00  0.00    +0.210 C 
ATOM     23  C   UNL     1      -8.086   0.754  -0.376  0.00  0.00    +0.109 C 
ATOM     32  H   UNL     1      -6.101  -0.546   0.399  0.00  0.00    +0.149 HD
ENDBRANCH  14   5
BRANCH  10   1
ATOM      1  O   UNL     1      -1.246  -2.133  -1.718  0.00  0.00    -0.391 OA
ATOM     33  H   UNL     1      -1.013  -1.389  -2.298  0.00  0.00    +0.210 HD
ENDBRANCH  10   1
BRANCH  13  18
ATOM     18  C   UNL     1       1.311  -2.628  -0.357  0.00  0.00    +0.077 C 
ATOM     20  C   UNL     1       0.931  -3.678   0.680  0.00  0.00    +0.017 C 
BRANCH  18  21
ATOM      2  O   UNL     1       3.534  -2.725   0.601  0.00  0.00    -0.276 OA
ATOM      6  N   UNL     1       3.160  -1.300  -1.191  0.00  0.00    -0.311 N 
ATOM     21  C   UNL     1       2.783  -2.242  -0.245  0.00  0.00    +0.216 C 
ATOM     34  H   UNL     1       2.493  -0.989  -1.890  0.00  0.00    +0.149 HD
BRANCH   6  24
ATOM     24  C   UNL     1       4.504  -0.778  -1.281  0.00  0.00    +0.143 C 
BRANCH  24  25
ATOM     25  C   UNL     1       4.703   0.418  -0.396  0.00  0.00    +0.011 A 
ATOM     26  C   UNL     1       4.183   1.663  -0.751  0.00  0.00    +0.125 A 
ATOM     27  C   UNL     1       5.418   0.275   0.793  0.00  0.00    +0.009 A 
ATOM     28  C   UNL     1       4.377   2.764   0.083  0.00  0.00    +0.046 A 
ATOM     29  C   UNL     1       5.612   1.376   1.627  0.00  0.00    +0.001 A 
ATOM     30  C   UNL     1       5.092   2.620   1.272  0.00  0.00    +0.004 A 
BRANCH  26   4
ATOM      4  O   UNL     1       3.482   1.821  -1.909  0.00  0.00    -0.495 OA
ATOM     31  C   UNL     1       2.987   3.127  -2.193  0.00  0.00    +0.277 C 
ENDBRANCH  26   4
ENDBRANCH  24  25
ENDBRANCH   6  24
ENDBRANCH  18  21
ENDBRANCH  13  18
TORSDOF 7
