REMARK  Name = 25339565
REMARK  13 active torsions:
REMARK  status: ('A' for Active; 'I' for Inactive)
REMARK    1  A    between atoms: O_1  and  C_13
REMARK    2  A    between atoms: N_3  and  C_9
REMARK    3  A    between atoms: N_3  and  C_20
REMARK    4  A    between atoms: N_4  and  C_28
REMARK    5  A    between atoms: C_6  and  C_14
REMARK    6  A    between atoms: C_8  and  C_16
REMARK    7  A    between atoms: C_8  and  C_17
REMARK    8  A    between atoms: C_13  and  C_19
REMARK    9  A    between atoms: C_14  and  C_18
REMARK   10  A    between atoms: C_18  and  C_22
REMARK   11  A    between atoms: C_20  and  C_21
REMARK   12  A    between atoms: C_28  and  C_29
REMARK   13  A    between atoms: C_29  and  C_30
REMARK                            x       y       z     vdW  Elec       q    Type
REMARK                         _______ _______ _______ _____ _____    ______ ____
ROOT
ATOM      6  C   UNL     1       1.278  -1.332  -0.527  0.00  0.00    -0.010 C 
ATOM      7  C   UNL     1       0.430  -2.093   0.548  0.00  0.00    +0.005 C 
ATOM      8  C   UNL     1       0.518  -1.200   1.849  0.00  0.00    -0.030 C 
ATOM      9  C   UNL     1       2.437  -0.808   0.353  0.00  0.00    +0.061 C 
ATOM     10  C   UNL     1       1.736  -0.267   1.608  0.00  0.00    +0.026 C 
ATOM     11  C   UNL     1       1.735  -2.214  -1.712  0.00  0.00    +0.011 C 
ATOM     12  C   UNL     1       0.918  -3.543   0.789  0.00  0.00    +0.039 C 
ATOM     13  C   UNL     1       1.163  -4.343  -0.491  0.00  0.00    +0.064 C 
ATOM     15  C   UNL     1       2.204  -3.615  -1.343  0.00  0.00    +0.035 C 
ATOM     16  C   UNL     1      -0.777  -0.379   2.025  0.00  0.00    +0.011 C 
ATOM     17  C   UNL     1       0.715  -1.970   3.171  0.00  0.00    +0.011 C 
ATOM     19  C   UNL     1       1.636  -5.759  -0.156  0.00  0.00    +0.041 C 
ENDROOT
BRANCH  13   1
ATOM      1  O   UNL     1      -0.068  -4.449  -1.206  0.00  0.00    -0.389 OA
ATOM     39  H   UNL     1      -0.714  -4.893  -0.629  0.00  0.00    +0.210 HD
ENDBRANCH  13   1
BRANCH   9   3
ATOM      3  N   UNL     1       3.288   0.198  -0.267  0.00  0.00    -0.312 NA
ATOM     38  H   UNL     1       3.500  -0.061  -1.229  0.00  0.00    +0.122 HD
BRANCH   3  20
ATOM     20  C   UNL     1       4.540   0.313   0.478  0.00  0.00    +0.084 C 
BRANCH  20  21
ATOM     21  C   UNL     1       5.409   1.442  -0.073  0.00  0.00    +0.003 C 
ATOM     23  C   UNL     1       4.685   2.790   0.047  0.00  0.00    +0.005 C 
ATOM     24  C   UNL     1       6.764   1.483   0.646  0.00  0.00    +0.005 C 
ATOM     25  C   UNL     1       5.556   3.943  -0.449  0.00  0.00    +0.000 C 
ATOM     26  C   UNL     1       7.630   2.638   0.149  0.00  0.00    +0.000 C 
ATOM     27  C   UNL     1       6.905   3.975   0.262  0.00  0.00    +0.000 C 
ENDBRANCH  20  21
ENDBRANCH   3  20
ENDBRANCH   9   3
BRANCH   6  14
ATOM     14  C   UNL     1       0.478  -0.164  -1.163  0.00  0.00    +0.018 C 
BRANCH  14  18
ATOM     18  C   UNL     1      -0.916  -0.622  -1.539  0.00  0.00    +0.096 C 
BRANCH  18  22
ATOM      2  O   UNL     1      -1.278   1.643  -2.315  0.00  0.00    -0.276 OA
ATOM      4  N   UNL     1      -2.999   0.096  -2.501  0.00  0.00    -0.315 N 
ATOM     22  C   UNL     1      -1.721   0.509  -2.154  0.00  0.00    +0.213 C 
ATOM     40  H   UNL     1      -3.269  -0.873  -2.362  0.00  0.00    +0.149 HD
BRANCH   4  28
ATOM     28  C   UNL     1      -3.961   0.989  -3.104  0.00  0.00    +0.109 C 
BRANCH  28  29
ATOM     29  C   UNL     1      -5.225   1.143  -2.262  0.00  0.00    +0.056 C 
BRANCH  29  30
ATOM      5  N   UNL     1      -4.505   3.160   0.734  0.00  0.00    -0.360 N 
ATOM     30  C   UNL     1      -4.955   1.720  -0.894  0.00  0.00    -0.021 A 
ATOM     31  C   UNL     1      -4.923   1.005   0.336  0.00  0.00    +0.003 A 
ATOM     32  C   UNL     1      -4.695   3.042  -0.617  0.00  0.00    +0.087 A 
ATOM     33  C   UNL     1      -4.639   1.931   1.341  0.00  0.00    +0.047 A 
ATOM     34  C   UNL     1      -5.109  -0.346   0.691  0.00  0.00    +0.010 A 
ATOM     35  C   UNL     1      -4.531   1.573   2.690  0.00  0.00    +0.026 A 
ATOM     36  C   UNL     1      -5.004  -0.719   2.036  0.00  0.00    +0.001 A 
ATOM     37  C   UNL     1      -4.720   0.228   3.018  0.00  0.00    +0.002 A 
ATOM     41  H   UNL     1      -4.297   4.023   1.217  0.00  0.00    +0.165 HD
ENDBRANCH  29  30
ENDBRANCH  28  29
ENDBRANCH   4  28
ENDBRANCH  18  22
ENDBRANCH  14  18
ENDBRANCH   6  14
TORSDOF 10
