REMARK  Name = 26743552
REMARK  4 active torsions:
REMARK  status: ('A' for Active; 'I' for Inactive)
REMARK    1  A    between atoms: O_1  and  C_12
REMARK    2  A    between atoms: N_3  and  C_6
REMARK    3  A    between atoms: C_7  and  C_16
REMARK    4  A    between atoms: C_17  and  C_18
REMARK                            x       y       z     vdW  Elec       q    Type
REMARK                         _______ _______ _______ _____ _____    ______ ____
ROOT
ATOM      3  N   UNL     1       2.231  -0.400   0.342  0.00  0.00    -0.286 NA
ATOM      7  C   UNL     1       1.587  -1.254  -0.677  0.00  0.00    +0.149 C 
ATOM      8  C   UNL     1       3.372  -1.155   0.853  0.00  0.00    +0.116 C 
ATOM     11  C   UNL     1       1.917  -2.695  -0.249  0.00  0.00    +0.061 C 
ATOM     12  C   UNL     1       2.788  -2.548   0.993  0.00  0.00    +0.130 C 
ENDROOT
BRANCH   3   6
ATOM      6  C   UNL     1       2.624   0.912  -0.170  0.00  0.00    +0.058 C 
ATOM      9  C   UNL     1       1.391   1.658  -0.692  0.00  0.00    +0.019 C 
ATOM     10  C   UNL     1       3.328   1.711   0.931  0.00  0.00    +0.019 C 
ATOM     13  C   UNL     1       1.751   3.065  -1.166  0.00  0.00    +0.002 C 
ATOM     14  C   UNL     1       3.687   3.118   0.455  0.00  0.00    +0.002 C 
ATOM     15  C   UNL     1       2.464   3.861  -0.076  0.00  0.00    +0.000 C 
ENDBRANCH   3   6
BRANCH   7  16
ATOM      2  O   UNL     1      -0.470  -1.263  -1.998  0.00  0.00    -0.336 OA
ATOM      4  N   UNL     1      -0.742  -0.566   0.113  0.00  0.00    -0.190 NA
ATOM      5  N   UNL     1      -1.830  -0.960  -1.860  0.00  0.00    -0.056 NA
ATOM     16  C   UNL     1       0.098  -1.003  -0.791  0.00  0.00    +0.245 A 
ATOM     17  C   UNL     1      -1.912  -0.556  -0.589  0.00  0.00    +0.202 A 
BRANCH  17  18
ATOM     18  C   UNL     1      -3.146  -0.137   0.010  0.00  0.00    +0.022 A 
ATOM     19  C   UNL     1      -3.170   0.273   1.343  0.00  0.00    +0.012 A 
ATOM     20  C   UNL     1      -4.323  -0.141  -0.740  0.00  0.00    +0.012 A 
ATOM     21  C   UNL     1      -4.370   0.680   1.926  0.00  0.00    +0.001 A 
ATOM     22  C   UNL     1      -5.523   0.266  -0.156  0.00  0.00    +0.001 A 
ATOM     23  C   UNL     1      -5.546   0.676   1.177  0.00  0.00    +0.000 A 
ENDBRANCH  17  18
ENDBRANCH   7  16
BRANCH  12   1
ATOM      1  O   UNL     1       3.796  -3.540   1.020  0.00  0.00    -0.390 OA
ATOM     24  H   UNL     1       3.353  -4.406   1.032  0.00  0.00    +0.210 HD
ENDBRANCH  12   1
TORSDOF 4
