REMARK  Name = 11885135
REMARK  5 active torsions:
REMARK  status: ('A' for Active; 'I' for Inactive)
REMARK    1  A    between atoms: S_1  and  N_6
REMARK    2  A    between atoms: S_1  and  C_19
REMARK    3  A    between atoms: O_5  and  C_30
REMARK    4  A    between atoms: O_5  and  C_31
REMARK    5  A    between atoms: C_17  and  C_20
REMARK                            x       y       z     vdW  Elec       q    Type
REMARK                         _______ _______ _______ _____ _____    ______ ____
ROOT
ATOM      4  O   UNL     1      -2.298   1.061  -1.790  0.00  0.00    -0.267 OA
ATOM      6  N   UNL     1       2.347  -0.036  -0.352  0.00  0.00    -0.176 NA
ATOM      7  N   UNL     1      -0.461   1.412  -0.397  0.00  0.00    -0.311 N 
ATOM      8  C   UNL     1       1.805   2.218  -1.280  0.00  0.00    +0.025 C 
ATOM      9  C   UNL     1       1.514   1.786   1.121  0.00  0.00    +0.052 C 
ATOM     10  C   UNL     1       1.967   2.832   0.105  0.00  0.00    +0.017 C 
ATOM     11  C   UNL     1       2.673   0.956  -1.416  0.00  0.00    +0.114 C 
ATOM     12  C   UNL     1       2.421   0.546   1.022  0.00  0.00    +0.119 C 
ATOM     13  C   UNL     1       0.318   1.936  -1.528  0.00  0.00    +0.130 C 
ATOM     14  C   UNL     1       0.064   1.399   0.897  0.00  0.00    +0.026 A 
ATOM     15  C   UNL     1      -0.705   1.026   1.932  0.00  0.00    +0.022 A 
ATOM     16  C   UNL     1      -1.789   1.029  -0.668  0.00  0.00    +0.259 A 
ATOM     17  C   UNL     1      -2.616   0.581   0.507  0.00  0.00    +0.047 A 
ATOM     18  C   UNL     1      -2.062   0.606   1.729  0.00  0.00    +0.015 A 
ENDROOT
BRANCH  17  20
ATOM     20  C   UNL     1      -4.002   0.115   0.332  0.00  0.00    -0.012 A 
ATOM     23  C   UNL     1      -5.059   1.022   0.407  0.00  0.00    +0.012 A 
ATOM     24  C   UNL     1      -4.260  -1.235   0.091  0.00  0.00    +0.012 A 
ATOM     28  C   UNL     1      -6.372   0.580   0.241  0.00  0.00    +0.046 A 
ATOM     29  C   UNL     1      -5.572  -1.677  -0.075  0.00  0.00    +0.046 A 
ATOM     30  C   UNL     1      -6.628  -0.770   0.001  0.00  0.00    +0.120 A 
BRANCH  30   5
ATOM      5  O   UNL     1      -7.909  -1.201  -0.160  0.00  0.00    -0.495 OA
ATOM     31  C   UNL     1      -8.100  -2.594  -0.404  0.00  0.00    +0.277 C 
ENDBRANCH  30   5
ENDBRANCH  17  20
BRANCH   6   1
ATOM      1  S   UNL     1       3.055  -1.582  -0.539  0.00  0.00    +0.061 S 
ATOM      2  O   UNL     1       3.054  -1.937  -1.943  0.00  0.00    -0.153 OA
ATOM      3  O   UNL     1       2.502  -2.478   0.456  0.00  0.00    -0.153 OA
BRANCH   1  19
ATOM     19  C   UNL     1       4.720  -1.218  -0.076  0.00  0.00    +0.105 A 
ATOM     21  C   UNL     1       5.095  -1.338   1.252  0.00  0.00    +0.028 A 
ATOM     22  C   UNL     1       5.621  -0.818  -1.048  0.00  0.00    +0.028 A 
ATOM     25  C   UNL     1       6.410  -1.049   1.618  0.00  0.00    +0.002 A 
ATOM     26  C   UNL     1       6.936  -0.529  -0.682  0.00  0.00    +0.002 A 
ATOM     27  C   UNL     1       7.330  -0.644   0.651  0.00  0.00    +0.000 A 
ENDBRANCH   1  19
ENDBRANCH   6   1
TORSDOF 4
