REMARK  Name = 26763546
REMARK  9 active torsions:
REMARK  status: ('A' for Active; 'I' for Inactive)
REMARK    1  A    between atoms: O_3  and  C_13
REMARK    2  A    between atoms: O_4  and  C_18
REMARK    3  A    between atoms: C_8  and  C_16
REMARK    4  A    between atoms: C_10  and  C_18
REMARK    5  A    between atoms: C_10  and  C_19
REMARK    6  A    between atoms: C_11  and  C_21
REMARK    7  A    between atoms: C_21  and  C_22
REMARK    8  A    between atoms: C_23  and  C_26
REMARK    9  A    between atoms: C_29  and  C_30
REMARK                            x       y       z     vdW  Elec       q    Type
REMARK                         _______ _______ _______ _____ _____    ______ ____
ROOT
ATOM      1  S   UNL     1      -0.707   3.625   0.225  0.00  0.00    -0.072 S 
ATOM      6  N   UNL     1       1.000   1.706  -0.085  0.00  0.00    -0.243 NA
ATOM      8  C   UNL     1      -1.920  -0.781   0.315  0.00  0.00    -0.020 C 
ATOM      9  C   UNL     1      -2.971   0.231  -0.323  0.00  0.00    +0.011 C 
ATOM     10  C   UNL     1      -4.484  -0.217  -0.326  0.00  0.00    +0.021 C 
ATOM     11  C   UNL     1      -0.461  -0.348  -0.172  0.00  0.00    +0.053 C 
ATOM     12  C   UNL     1      -2.204  -2.214  -0.203  0.00  0.00    +0.010 C 
ATOM     13  C   UNL     1      -4.583  -1.686  -0.826  0.00  0.00    +0.123 C 
ATOM     14  C   UNL     1      -2.748   1.683   0.191  0.00  0.00    +0.049 C 
ATOM     15  C   UNL     1      -3.660  -2.639  -0.076  0.00  0.00    +0.032 C 
ATOM     16  C   UNL     1      -1.963  -0.794   1.863  0.00  0.00    +0.012 C 
ATOM     17  C   UNL     1      -0.260   1.138  -0.029  0.00  0.00    +0.056 A 
ATOM     19  C   UNL     1      -5.272   0.668  -1.333  0.00  0.00    +0.016 C 
ATOM     20  C   UNL     1      -1.300   2.033   0.115  0.00  0.00    +0.014 A 
ATOM     23  C   UNL     1       0.886   3.010   0.046  0.00  0.00    +0.109 A 
ENDROOT
BRANCH  23  26
ATOM      2  S   UNL     1       4.509   4.692  -0.082  0.00  0.00    -0.104 S 
ATOM     26  C   UNL     1       2.068   3.901   0.037  0.00  0.00    +0.014 A 
ATOM     31  C   UNL     1       2.030   5.319   0.173  0.00  0.00    +0.018 A 
ATOM     32  C   UNL     1       3.353   3.429  -0.109  0.00  0.00    +0.055 A 
ATOM     33  C   UNL     1       3.289   5.876   0.126  0.00  0.00    +0.046 A 
ENDBRANCH  23  26
BRANCH  13   3
ATOM      3  O   UNL     1      -5.923  -2.165  -0.718  0.00  0.00    -0.391 OA
ATOM     34  H   UNL     1      -5.945  -3.066  -1.083  0.00  0.00    +0.210 HD
ENDBRANCH  13   3
BRANCH  10  18
ATOM     18  C   UNL     1      -5.205  -0.046   1.029  0.00  0.00    +0.165 C 
BRANCH  18   4
ATOM      4  O   UNL     1      -6.539  -0.474   0.866  0.00  0.00    -0.394 OA
ATOM     35  H   UNL     1      -6.988  -0.354   1.720  0.00  0.00    +0.209 HD
ENDBRANCH  18   4
ENDBRANCH  10  18
BRANCH  11  21
ATOM     21  C   UNL     1       0.687  -1.136   0.474  0.00  0.00    +0.106 C 
BRANCH  21  22
ATOM      5  O   UNL     1       1.798  -0.596  -1.548  0.00  0.00    -0.276 OA
ATOM      7  N   UNL     1       3.008  -1.835   0.001  0.00  0.00    -0.301 N 
ATOM     22  C   UNL     1       1.876  -1.159  -0.453  0.00  0.00    +0.216 C 
ATOM     24  C   UNL     1       3.131  -2.514   1.296  0.00  0.00    +0.108 C 
ATOM     25  C   UNL     1       4.217  -1.869  -0.824  0.00  0.00    +0.108 C 
ATOM     27  C   UNL     1       3.571  -3.965   1.108  0.00  0.00    +0.022 C 
ATOM     28  C   UNL     1       4.677  -3.306  -1.058  0.00  0.00    +0.022 C 
ATOM     29  C   UNL     1       4.856  -4.055   0.272  0.00  0.00    -0.011 C 
ATOM     30  C   UNL     1       5.244  -5.511   0.027  0.00  0.00    +0.007 C 
ENDBRANCH  21  22
ENDBRANCH  11  21
TORSDOF 6
