REMARK  Name = 28991375
REMARK  7 active torsions:
REMARK  status: ('A' for Active; 'I' for Inactive)
REMARK    1  A    between atoms: O_2  and  C_20
REMARK    2  A    between atoms: O_2  and  C_32
REMARK    3  A    between atoms: N_6  and  C_11
REMARK    4  A    between atoms: N_6  and  C_21
REMARK    5  A    between atoms: C_9  and  C_17
REMARK    6  A    between atoms: C_13  and  C_20
REMARK    7  A    between atoms: C_21  and  C_27
REMARK                            x       y       z     vdW  Elec       q    Type
REMARK                         _______ _______ _______ _____ _____    ______ ____
ROOT
ATOM      4  N   UNL     1      -0.810  -0.624   0.037  0.00  0.00    -0.274 NA
ATOM      5  N   UNL     1      -2.102   2.900  -0.110  0.00  0.00    -0.356 N 
ATOM      8  C   UNL     1      -0.733   0.771  -0.496  0.00  0.00    +0.106 C 
ATOM      9  C   UNL     1       0.348  -1.447  -0.393  0.00  0.00    +0.090 C 
ATOM     10  C   UNL     1       0.566   1.455  -0.044  0.00  0.00    +0.044 C 
ATOM     11  C   UNL     1       1.782   0.657  -0.514  0.00  0.00    +0.058 C 
ATOM     12  C   UNL     1       1.686  -0.777   0.005  0.00  0.00    +0.042 C 
ATOM     13  C   UNL     1      -2.140  -1.255  -0.182  0.00  0.00    +0.172 C 
ATOM     14  C   UNL     1      -1.944   1.543  -0.064  0.00  0.00    +0.038 A 
ATOM     15  C   UNL     1      -3.287  -0.484   0.520  0.00  0.00    +0.068 C 
ATOM     16  C   UNL     1      -3.123   0.989   0.384  0.00  0.00    -0.016 A 
ATOM     18  C   UNL     1      -4.027   2.051   0.657  0.00  0.00    +0.003 A 
ATOM     19  C   UNL     1      -3.361   3.240   0.340  0.00  0.00    +0.047 A 
ATOM     24  C   UNL     1      -5.349   2.124   1.140  0.00  0.00    +0.010 A 
ATOM     25  C   UNL     1      -3.955   4.498   0.484  0.00  0.00    +0.026 A 
ATOM     26  C   UNL     1      -5.954   3.377   1.290  0.00  0.00    +0.001 A 
ATOM     30  C   UNL     1      -5.266   4.545   0.966  0.00  0.00    +0.002 A 
ATOM     37  H   UNL     1      -1.406   3.563  -0.422  0.00  0.00    +0.166 HD
ENDROOT
BRANCH   9  17
ATOM      1  F   UNL     1       0.367  -6.693   1.720  0.00  0.00    -0.205 F 
ATOM     17  C   UNL     1       0.353  -2.863   0.177  0.00  0.00    -0.030 A 
ATOM     22  C   UNL     1       0.864  -3.918  -0.580  0.00  0.00    +0.008 A 
ATOM     23  C   UNL     1      -0.152  -3.102   1.455  0.00  0.00    +0.008 A 
ATOM     28  C   UNL     1       0.868  -5.212  -0.059  0.00  0.00    +0.038 A 
ATOM     29  C   UNL     1      -0.148  -4.396   1.976  0.00  0.00    +0.038 A 
ATOM     31  C   UNL     1       0.362  -5.451   1.219  0.00  0.00    +0.123 A 
ENDBRANCH   9  17
BRANCH  13  20
ATOM      3  O   UNL     1      -1.647  -1.046  -2.533  0.00  0.00    -0.249 OA
ATOM     20  C   UNL     1      -2.416  -1.405  -1.652  0.00  0.00    +0.325 C 
BRANCH  20   2
ATOM      2  O   UNL     1      -3.632  -1.994  -1.830  0.00  0.00    -0.467 OA
ATOM     32  C   UNL     1      -4.024  -2.199  -3.191  0.00  0.00    +0.280 C 
ENDBRANCH  20   2
ENDBRANCH  13  20
BRANCH  11   6
ATOM      6  N   UNL     1       3.013   1.297  -0.052  0.00  0.00    -0.309 NA
ATOM     38  H   UNL     1       2.913   2.310  -0.125  0.00  0.00    +0.123 HD
BRANCH   6  21
ATOM     21  C   UNL     1       4.147   0.878  -0.861  0.00  0.00    +0.118 C 
BRANCH  21  27
ATOM      7  N   UNL     1       7.532   1.325   0.773  0.00  0.00    -0.263 NA
ATOM     27  C   UNL     1       5.429   1.521  -0.404  0.00  0.00    -0.015 A 
ATOM     33  C   UNL     1       5.713   2.849  -0.704  0.00  0.00    +0.008 A 
ATOM     34  C   UNL     1       6.364   0.809   0.331  0.00  0.00    +0.115 A 
ATOM     35  C   UNL     1       6.905   3.416  -0.267  0.00  0.00    +0.020 A 
ATOM     36  C   UNL     1       7.773   2.619   0.462  0.00  0.00    +0.111 A 
ENDBRANCH  21  27
ENDBRANCH   6  21
ENDBRANCH  11   6
TORSDOF 6
