REMARK  Name = 11882559
REMARK  14 active torsions:
REMARK  status: ('A' for Active; 'I' for Inactive)
REMARK    1  A    between atoms: S_1  and  C_35
REMARK    2  A    between atoms: S_1  and  C_39
REMARK    3  A    between atoms: O_2  and  C_13
REMARK    4  A    between atoms: O_3  and  C_16
REMARK    5  A    between atoms: O_4  and  C_18
REMARK    6  A    between atoms: O_8  and  C_27
REMARK    7  A    between atoms: O_8  and  C_38
REMARK    8  A    between atoms: N_9  and  C_14
REMARK    9  A    between atoms: N_10  and  C_20
REMARK   10  A    between atoms: C_13  and  C_19
REMARK   11  A    between atoms: C_20  and  C_22
REMARK   12  A    between atoms: C_20  and  C_25
REMARK   13  A    between atoms: C_21  and  C_23
REMARK   14  A    between atoms: C_22  and  C_24
REMARK                            x       y       z     vdW  Elec       q    Type
REMARK                         _______ _______ _______ _____ _____    ______ ____
ROOT
ATOM     13  C   UNL     1      -1.154   2.909   0.183  0.00  0.00    +0.146 C 
ATOM     14  C   UNL     1       1.371   2.619   0.179  0.00  0.00    +0.107 C 
ATOM     15  C   UNL     1       0.010   1.917   0.240  0.00  0.00    +0.069 C 
ATOM     16  C   UNL     1       1.498   3.711   1.250  0.00  0.00    +0.163 C 
ATOM     17  C   UNL     1      -1.025   3.978   1.266  0.00  0.00    +0.078 C 
ATOM     18  C   UNL     1       0.325   4.693   1.211  0.00  0.00    +0.148 C 
ENDROOT
BRANCH  13  19
ATOM      5  O   UNL     1      -3.238   2.421   1.244  0.00  0.00    -0.273 OA
ATOM     10  N   UNL     1      -2.661   1.264  -0.692  0.00  0.00    -0.301 N 
ATOM     19  C   UNL     1      -2.466   2.192   0.317  0.00  0.00    +0.246 C 
ATOM     44  H   UNL     1      -2.008   1.238  -1.470  0.00  0.00    +0.150 HD
BRANCH  10  20
ATOM     20  C   UNL     1      -3.835   0.426  -0.778  0.00  0.00    +0.163 C 
BRANCH  20  25
ATOM      7  O   UNL     1      -4.639   1.988  -2.458  0.00  0.00    -0.274 OA
ATOM     12  N   UNL     1      -6.175   0.933  -1.114  0.00  0.00    -0.328 N 
ATOM     25  C   UNL     1      -4.893   1.215  -1.537  0.00  0.00    +0.231 C 
ATOM     46  H   UNL     1      -6.976   1.382  -1.546  0.00  0.00    +0.145 HD
ATOM     47  H   UNL     1      -6.371   0.274  -0.368  0.00  0.00    +0.145 HD
ENDBRANCH  20  25
BRANCH  20  22
ATOM     22  C   UNL     1      -3.551  -0.904  -1.487  0.00  0.00    +0.069 C 
BRANCH  22  24
ATOM     11  N   UNL     1      -1.330  -3.042   0.470  0.00  0.00    -0.360 N 
ATOM     24  C   UNL     1      -2.878  -1.906  -0.578  0.00  0.00    -0.020 A 
ATOM     26  C   UNL     1      -3.539  -2.839   0.236  0.00  0.00    +0.003 A 
ATOM     28  C   UNL     1      -1.536  -2.033  -0.432  0.00  0.00    +0.087 A 
ATOM     30  C   UNL     1      -2.536  -3.552   0.895  0.00  0.00    +0.047 A 
ATOM     31  C   UNL     1      -4.885  -3.165   0.494  0.00  0.00    +0.010 A 
ATOM     34  C   UNL     1      -2.812  -4.580   1.804  0.00  0.00    +0.026 A 
ATOM     36  C   UNL     1      -5.177  -4.191   1.401  0.00  0.00    +0.001 A 
ATOM     37  C   UNL     1      -4.155  -4.886   2.044  0.00  0.00    +0.002 A 
ATOM     45  H   UNL     1      -0.424  -3.365   0.781  0.00  0.00    +0.165 HD
ENDBRANCH  22  24
ENDBRANCH  20  22
ENDBRANCH  10  20
ENDBRANCH  13  19
BRANCH  14   9
ATOM      6  O   UNL     1       2.614   1.128  -1.935  0.00  0.00    -0.270 OA
ATOM      9  N   UNL     1       2.430   1.644   0.318  0.00  0.00    -0.306 N 
ATOM     21  C   UNL     1       2.967   0.974  -0.769  0.00  0.00    +0.248 C 
ATOM     40  H   UNL     1       2.690   1.380   1.262  0.00  0.00    +0.149 HD
BRANCH  21  23
ATOM     23  C   UNL     1       4.030  -0.015  -0.457  0.00  0.00    +0.078 A 
ATOM     27  C   UNL     1       4.194  -1.125  -1.262  0.00  0.00    +0.133 A 
ATOM     29  C   UNL     1       4.828   0.215   0.646  0.00  0.00    +0.018 A 
ATOM     32  C   UNL     1       5.197  -2.042  -0.952  0.00  0.00    +0.061 A 
ATOM     33  C   UNL     1       5.832  -0.703   0.957  0.00  0.00    +0.015 A 
ATOM     35  C   UNL     1       6.016  -1.832   0.158  0.00  0.00    +0.011 A 
BRANCH  35   1
ATOM      1  S   UNL     1       7.298  -3.004   0.555  0.00  0.00    -0.128 S 
ATOM     39  C   UNL     1       6.342  -4.524   0.815  0.00  0.00    +0.090 C 
ENDBRANCH  35   1
BRANCH  27   8
ATOM      8  O   UNL     1       3.404  -1.348  -2.350  0.00  0.00    -0.494 OA
ATOM     38  C   UNL     1       2.211  -2.101  -2.141  0.00  0.00    +0.277 C 
ENDBRANCH  27   8
ENDBRANCH  21  23
ENDBRANCH  14   9
BRANCH  13   2
ATOM      2  O   UNL     1      -1.208   3.541  -1.090  0.00  0.00    -0.379 OA
ATOM     41  H   UNL     1      -1.893   4.230  -1.063  0.00  0.00    +0.211 HD
ENDBRANCH  13   2
BRANCH  16   3
ATOM      3  O   UNL     1       2.696   4.458   1.015  0.00  0.00    -0.387 OA
ATOM     42  H   UNL     1       2.848   5.022   1.791  0.00  0.00    +0.210 HD
ENDBRANCH  16   3
BRANCH  18   4
ATOM      4  O   UNL     1       0.430   5.567   2.335  0.00  0.00    -0.389 OA
ATOM     43  H   UNL     1       1.211   6.130   2.200  0.00  0.00    +0.210 HD
ENDBRANCH  18   4
TORSDOF 12
