REMARK  Name = 38027975
REMARK  12 active torsions:
REMARK  status: ('A' for Active; 'I' for Inactive)
REMARK    1  A    between atoms: N_5  and  C_16
REMARK    2  A    between atoms: N_6  and  C_26
REMARK    3  A    between atoms: N_7  and  C_32
REMARK    4  A    between atoms: C_8  and  C_12
REMARK    5  A    between atoms: C_9  and  C_16
REMARK    6  A    between atoms: C_11  and  C_15
REMARK    7  A    between atoms: C_12  and  C_17
REMARK    8  A    between atoms: C_12  and  C_18
REMARK    9  A    between atoms: C_13  and  C_19
REMARK   10  A    between atoms: C_15  and  C_20
REMARK   11  A    between atoms: C_25  and  C_27
REMARK   12  A    between atoms: C_33  and  C_34
REMARK                            x       y       z     vdW  Elec       q    Type
REMARK                         _______ _______ _______ _____ _____    ______ ____
ROOT
ATOM      8  C   UNL     1       3.134   1.031   0.461  0.00  0.00    +0.000 C 
ATOM      9  C   UNL     1       3.246   2.224  -0.521  0.00  0.00    +0.032 C 
ATOM     10  C   UNL     1       3.681  -0.250  -0.187  0.00  0.00    +0.012 C 
ATOM     11  C   UNL     1       2.931  -0.613  -1.483  0.00  0.00    +0.023 C 
ATOM     13  C   UNL     1       2.765   0.587  -2.392  0.00  0.00    -0.073 C 
ATOM     14  C   UNL     1       2.922   1.847  -1.948  0.00  0.00    -0.022 C 
ATOM     19  C   UNL     1       2.458   0.305  -3.837  0.00  0.00    +0.039 C 
ENDROOT
BRANCH   8  12
ATOM     12  C   UNL     1       3.874   1.304   1.774  0.00  0.00    -0.013 C 
ATOM     17  C   UNL     1       3.288   0.459   2.901  0.00  0.00    +0.007 C 
ATOM     18  C   UNL     1       5.365   1.029   1.612  0.00  0.00    +0.007 C 
ENDBRANCH   8  12
BRANCH  11  15
ATOM     15  C   UNL     1       1.576  -1.260  -1.175  0.00  0.00    +0.103 C 
BRANCH  15  20
ATOM      1  O   UNL     1       2.925  -3.129  -0.623  0.00  0.00    -0.276 OA
ATOM      4  N   UNL     1       0.632  -3.395  -0.370  0.00  0.00    -0.299 N 
ATOM      6  N   UNL     1      -1.535  -4.636   1.035  0.00  0.00    -0.302 NA
ATOM     20  C   UNL     1       1.780  -2.677  -0.700  0.00  0.00    +0.216 C 
ATOM     21  C   UNL     1       0.746  -4.774   0.103  0.00  0.00    +0.123 C 
ATOM     22  C   UNL     1      -0.745  -2.934  -0.576  0.00  0.00    +0.123 C 
ATOM     23  C   UNL     1      -0.144  -5.018   1.321  0.00  0.00    +0.103 C 
ATOM     24  C   UNL     1      -1.610  -3.218   0.653  0.00  0.00    +0.103 C 
ATOM     26  C   UNL     1      -2.389  -4.902   2.192  0.00  0.00    +0.105 C 
ENDBRANCH  15  20
ENDBRANCH  11  15
BRANCH   9  16
ATOM     16  C   UNL     1       2.347   3.386  -0.084  0.00  0.00    +0.112 C 
BRANCH  16   5
ATOM      2  O   UNL     1       0.455   3.333   2.076  0.00  0.00    -0.270 OA
ATOM      5  N   UNL     1       0.968   3.020  -0.166  0.00  0.00    -0.311 N 
ATOM     25  C   UNL     1       0.115   3.022   0.937  0.00  0.00    +0.244 C 
ATOM     35  H   UNL     1       0.591   2.839  -1.091  0.00  0.00    +0.149 HD
BRANCH  25  27
ATOM     27  C   UNL     1      -1.285   2.590   0.691  0.00  0.00    +0.037 A 
ATOM     28  C   UNL     1      -2.314   3.064   1.505  0.00  0.00    +0.015 A 
ATOM     29  C   UNL     1      -1.571   1.712  -0.355  0.00  0.00    +0.015 A 
ATOM     30  C   UNL     1      -3.628   2.660   1.274  0.00  0.00    +0.024 A 
ATOM     31  C   UNL     1      -2.886   1.307  -0.586  0.00  0.00    +0.024 A 
ATOM     32  C   UNL     1      -3.914   1.781   0.229  0.00  0.00    +0.033 A 
BRANCH  32   7
ATOM      3  O   UNL     1      -5.052  -0.070  -1.856  0.00  0.00    -0.276 OA
ATOM      7  N   UNL     1      -5.229   1.377  -0.003  0.00  0.00    -0.286 N 
ATOM     33  C   UNL     1      -5.706   0.509  -0.995  0.00  0.00    +0.214 C 
ATOM     34  C   UNL     1      -7.201   0.329  -0.909  0.00  0.00    +0.109 C 
ATOM     36  H   UNL     1      -5.922   1.768   0.633  0.00  0.00    +0.155 HD
ENDBRANCH  32   7
ENDBRANCH  25  27
ENDBRANCH  16   5
ENDBRANCH   9  16
TORSDOF 7
