REMARK  Name = 75536116
REMARK  6 active torsions:
REMARK  status: ('A' for Active; 'I' for Inactive)
REMARK    1  A    between atoms: O_1  and  C_8
REMARK    2  A    between atoms: O_2  and  C_12
REMARK    3  A    between atoms: N_3  and  C_5
REMARK    4  A    between atoms: N_3  and  C_13
REMARK    5  A    between atoms: C_6  and  C_13
REMARK    6  A    between atoms: C_7  and  C_14
REMARK                            x       y       z     vdW  Elec       q    Type
REMARK                         _______ _______ _______ _____ _____    ______ ____
ROOT
ATOM      5  C   UNL     1       0.366  -0.944  -0.624  0.00  0.00    +0.092 C 
ATOM      7  C   UNL     1      -0.379  -0.376   0.624  0.00  0.00    +0.042 C 
ATOM      8  C   UNL     1      -0.022  -2.430  -0.680  0.00  0.00    +0.160 C 
ATOM     11  C   UNL     1      -1.145  -1.565   1.234  0.00  0.00    +0.043 C 
ATOM     12  C   UNL     1      -0.355  -2.779   0.767  0.00  0.00    +0.145 C 
ENDROOT
BRANCH   7  14
ATOM      4  N   UNL     1      -3.131   1.744  -0.901  0.00  0.00    -0.263 NA
ATOM     14  C   UNL     1      -1.266   0.814   0.324  0.00  0.00    -0.025 A 
ATOM     15  C   UNL     1      -1.062   2.036   0.956  0.00  0.00    +0.007 A 
ATOM     16  C   UNL     1      -2.304   0.721  -0.588  0.00  0.00    +0.114 A 
ATOM     17  C   UNL     1      -1.892   3.112   0.661  0.00  0.00    +0.020 A 
ATOM     18  C   UNL     1      -2.903   2.916  -0.267  0.00  0.00    +0.111 A 
ENDBRANCH   7  14
BRANCH   8   1
ATOM      1  O   UNL     1      -1.175  -2.563  -1.510  0.00  0.00    -0.388 OA
ATOM     20  H   UNL     1      -0.913  -2.317  -2.414  0.00  0.00    +0.210 HD
ENDBRANCH   8   1
BRANCH  12   2
ATOM      2  O   UNL     1      -1.115  -3.965   0.880  0.00  0.00    -0.389 OA
ATOM     21  H   UNL     1      -1.362  -4.066   1.815  0.00  0.00    +0.210 HD
ENDBRANCH  12   2
BRANCH   5   3
ATOM      3  N   UNL     1       1.812  -0.813  -0.433  0.00  0.00    -0.310 NA
ATOM     19  H   UNL     1       2.294  -1.449  -1.068  0.00  0.00    +0.122 HD
BRANCH   3  13
ATOM     13  C   UNL     1       2.252   0.546  -0.716  0.00  0.00    +0.084 C 
BRANCH  13   6
ATOM      6  C   UNL     1       3.726   0.692  -0.516  0.00  0.00    +0.003 C 
ATOM      9  C   UNL     1       4.290   0.844   0.869  0.00  0.00    +0.005 C 
ATOM     10  C   UNL     1       4.303   2.010  -0.079  0.00  0.00    +0.005 C 
ENDBRANCH  13   6
ENDBRANCH   3  13
ENDBRANCH   5   3
TORSDOF 6
