REMARK  Name = 28962883
REMARK  10 active torsions:
REMARK  status: ('A' for Active; 'I' for Inactive)
REMARK    1  A    between atoms: O_1  and  C_9
REMARK    2  A    between atoms: N_4  and  C_13
REMARK    3  A    between atoms: N_5  and  C_21
REMARK    4  A    between atoms: C_6  and  C_16
REMARK    5  A    between atoms: C_8  and  C_18
REMARK    6  A    between atoms: C_11  and  C_17
REMARK    7  A    between atoms: C_17  and  C_19
REMARK    8  A    between atoms: C_17  and  C_20
REMARK    9  A    between atoms: C_22  and  C_25
REMARK   10  A    between atoms: C_25  and  C_26
REMARK                            x       y       z     vdW  Elec       q    Type
REMARK                         _______ _______ _______ _____ _____    ______ ____
ROOT
ATOM      6  C   UNL     1      -1.113   1.971   0.168  0.00  0.00    -0.027 C 
ATOM      7  C   UNL     1      -0.737   0.480  -0.123  0.00  0.00    +0.028 C 
ATOM      8  C   UNL     1       0.726   0.372  -0.685  0.00  0.00    +0.012 C 
ATOM      9  C   UNL     1      -1.834  -0.222  -0.975  0.00  0.00    +0.122 C 
ATOM     10  C   UNL     1      -2.513   2.031   0.824  0.00  0.00    +0.007 C 
ATOM     11  C   UNL     1      -3.248  -0.069  -0.368  0.00  0.00    +0.029 C 
ATOM     12  C   UNL     1      -0.096   2.560   1.173  0.00  0.00    +0.009 C 
ATOM     13  C   UNL     1       1.731   1.034   0.299  0.00  0.00    +0.076 C 
ATOM     14  C   UNL     1      -3.596   1.380  -0.025  0.00  0.00    +0.007 C 
ATOM     15  C   UNL     1       1.345   2.459   0.694  0.00  0.00    +0.023 C 
ATOM     16  C   UNL     1      -1.126   2.842  -1.114  0.00  0.00    +0.011 C 
ATOM     18  C   UNL     1       1.172  -1.073  -0.968  0.00  0.00    +0.010 C 
ENDROOT
BRANCH  13   4
ATOM      3  O   UNL     1       4.189   0.856   1.786  0.00  0.00    -0.275 OA
ATOM      4  N   UNL     1       3.074   1.056  -0.241  0.00  0.00    -0.312 N 
ATOM     22  C   UNL     1       4.200   0.964   0.562  0.00  0.00    +0.218 C 
ATOM     32  H   UNL     1       3.178   1.208  -1.240  0.00  0.00    +0.149 HD
BRANCH  22  25
ATOM     25  C   UNL     1       5.472   1.006  -0.263  0.00  0.00    +0.130 C 
BRANCH  25  26
ATOM     26  C   UNL     1       6.320  -0.230  -0.115  0.00  0.00    -0.039 A 
ATOM     27  C   UNL     1       7.296  -0.291   0.879  0.00  0.00    +0.004 A 
ATOM     28  C   UNL     1       6.130  -1.313  -0.973  0.00  0.00    +0.004 A 
ATOM     29  C   UNL     1       8.082  -1.435   1.017  0.00  0.00    +0.000 A 
ATOM     30  C   UNL     1       6.915  -2.457  -0.836  0.00  0.00    +0.000 A 
ATOM     31  C   UNL     1       7.891  -2.518   0.159  0.00  0.00    +0.000 A 
ENDBRANCH  25  26
ENDBRANCH  22  25
ENDBRANCH  13   4
BRANCH   9   1
ATOM      1  O   UNL     1      -1.566  -1.623  -1.037  0.00  0.00    -0.391 OA
ATOM     33  H   UNL     1      -1.570  -1.972  -0.130  0.00  0.00    +0.210 HD
ENDBRANCH   9   1
BRANCH  11  17
ATOM     17  C   UNL     1      -4.328  -0.652  -1.286  0.00  0.00    +0.077 C 
ATOM     19  C   UNL     1      -4.305   0.053  -2.638  0.00  0.00    +0.017 C 
BRANCH  17  20
ATOM      2  O   UNL     1      -6.434   0.435  -0.787  0.00  0.00    -0.276 OA
ATOM      5  N   UNL     1      -5.995  -1.628   0.178  0.00  0.00    -0.312 N 
ATOM     20  C   UNL     1      -5.696  -0.534  -0.621  0.00  0.00    +0.216 C 
ATOM     34  H   UNL     1      -5.326  -2.389   0.266  0.00  0.00    +0.149 HD
BRANCH   5  21
ATOM     21  C   UNL     1      -7.233  -1.744   0.913  0.00  0.00    +0.073 C 
ATOM     23  C   UNL     1      -7.397  -1.108   2.262  0.00  0.00    +0.024 C 
ATOM     24  C   UNL     1      -7.330  -2.602   2.140  0.00  0.00    +0.024 C 
ENDBRANCH   5  21
ENDBRANCH  17  20
ENDBRANCH  11  17
TORSDOF 7
