REMARK  Name = 26741977
REMARK  9 active torsions:
REMARK  status: ('A' for Active; 'I' for Inactive)
REMARK    1  A    between atoms: O_1  and  C_11
REMARK    2  A    between atoms: O_4  and  C_26
REMARK    3  A    between atoms: O_4  and  C_27
REMARK    4  A    between atoms: N_7  and  C_10
REMARK    5  A    between atoms: N_8  and  C_18
REMARK    6  A    between atoms: C_17  and  C_19
REMARK    7  A    between atoms: C_18  and  C_20
REMARK    8  A    between atoms: C_18  and  C_21
REMARK    9  A    between atoms: C_27  and  C_28
REMARK                            x       y       z     vdW  Elec       q    Type
REMARK                         _______ _______ _______ _____ _____    ______ ____
ROOT
ATOM      3  O   UNL     1       0.048  -2.757  -1.513  0.00  0.00    -0.270 OA
ATOM      7  N   UNL     1      -1.016  -1.411   0.046  0.00  0.00    -0.305 N 
ATOM     17  C   UNL     1       0.082  -1.886  -0.647  0.00  0.00    +0.244 C 
ATOM     29  H   UNL     1      -0.912  -0.695   0.757  0.00  0.00    +0.149 HD
ENDROOT
BRANCH   7  10
ATOM      2  O   UNL     1      -1.827   1.382  -1.050  0.00  0.00    -0.253 OA
ATOM      6  N   UNL     1      -3.729   0.061  -0.907  0.00  0.00    -0.284 N 
ATOM      8  N   UNL     1      -3.760   2.331  -0.251  0.00  0.00    -0.297 N 
ATOM     10  C   UNL     1      -2.358  -1.912  -0.191  0.00  0.00    +0.119 C 
ATOM     11  C   UNL     1      -3.123  -1.943   1.146  0.00  0.00    +0.136 C 
ATOM     12  C   UNL     1      -4.648  -2.060   1.038  0.00  0.00    +0.035 C 
ATOM     13  C   UNL     1      -3.013  -1.137  -1.343  0.00  0.00    +0.134 C 
ATOM     14  C   UNL     1      -5.346  -0.716   0.813  0.00  0.00    +0.022 C 
ATOM     15  C   UNL     1      -5.146  -0.140  -0.582  0.00  0.00    +0.109 C 
ATOM     16  C   UNL     1      -3.022   1.269  -0.760  0.00  0.00    +0.302 C 
ATOM     31  H   UNL     1      -4.681   2.172   0.140  0.00  0.00    +0.150 HD
BRANCH   8  18
ATOM     18  C   UNL     1      -3.180   3.636  -0.026  0.00  0.00    +0.068 C 
ATOM     20  C   UNL     1      -2.571   3.712   1.368  0.00  0.00    +0.027 C 
ATOM     21  C   UNL     1      -4.222   4.727  -0.235  0.00  0.00    +0.027 C 
ENDBRANCH   8  18
BRANCH  11   1
ATOM      1  O   UNL     1      -2.640  -3.084   1.869  0.00  0.00    -0.390 OA
ATOM     30  H   UNL     1      -3.033  -3.056   2.758  0.00  0.00    +0.210 HD
ENDBRANCH  11   1
ENDBRANCH   7  10
BRANCH  17  19
ATOM     19  C   UNL     1       1.389  -1.289  -0.269  0.00  0.00    +0.037 A 
ATOM     22  C   UNL     1       2.565  -2.019  -0.442  0.00  0.00    +0.016 A 
ATOM     23  C   UNL     1       1.440   0.000   0.260  0.00  0.00    +0.016 A 
ATOM     24  C   UNL     1       3.792  -1.460  -0.085  0.00  0.00    +0.046 A 
ATOM     25  C   UNL     1       2.667   0.560   0.617  0.00  0.00    +0.046 A 
ATOM     26  C   UNL     1       3.843  -0.170   0.444  0.00  0.00    +0.121 A 
BRANCH  26   4
ATOM      4  O   UNL     1       5.040   0.376   0.792  0.00  0.00    -0.483 OA
BRANCH   4  27
ATOM     27  C   UNL     1       6.185  -0.045   0.052  0.00  0.00    +0.324 C 
BRANCH  27  28
ATOM      5  O   UNL     1       7.024   2.170   0.536  0.00  0.00    -0.272 OA
ATOM      9  N   UNL     1       8.333   0.729  -0.690  0.00  0.00    -0.327 N 
ATOM     28  C   UNL     1       7.197   1.075   0.008  0.00  0.00    +0.248 C 
ATOM     32  H   UNL     1       8.451  -0.185  -1.117  0.00  0.00    +0.145 HD
ATOM     33  H   UNL     1       9.099   1.385  -0.801  0.00  0.00    +0.145 HD
ENDBRANCH  27  28
ENDBRANCH   4  27
ENDBRANCH  26   4
ENDBRANCH  17  19
TORSDOF 7
