REMARK  Name = 71693487
REMARK  12 active torsions:
REMARK  status: ('A' for Active; 'I' for Inactive)
REMARK    1  A    between atoms: S_1  and  N_10
REMARK    2  A    between atoms: S_1  and  C_24
REMARK    3  A    between atoms: O_3  and  C_13
REMARK    4  A    between atoms: N_8  and  C_16
REMARK    5  A    between atoms: N_9  and  C_26
REMARK    6  A    between atoms: N_9  and  C_27
REMARK    7  A    between atoms: N_10  and  C_21
REMARK    8  A    between atoms: C_11  and  C_13
REMARK    9  A    between atoms: C_12  and  C_14
REMARK   10  A    between atoms: C_16  and  C_20
REMARK   11  A    between atoms: C_24  and  C_25
REMARK   12  A    between atoms: C_25  and  C_28
REMARK                            x       y       z     vdW  Elec       q    Type
REMARK                         _______ _______ _______ _____ _____    ______ ____
ROOT
ATOM      2  O   UNL     1       1.285   2.638   0.529  0.00  0.00    -0.361 OA
ATOM      4  O   UNL     1       4.785   2.071   0.882  0.00  0.00    -0.273 OA
ATOM      8  N   UNL     1       3.072   0.515   0.596  0.00  0.00    -0.283 N 
ATOM     11  C   UNL     1       1.617   0.260   0.462  0.00  0.00    +0.135 C 
ATOM     12  C   UNL     1       0.897   1.462  -0.181  0.00  0.00    +0.171 C 
ATOM     15  C   UNL     1       3.604   1.806   0.646  0.00  0.00    +0.242 C 
ATOM     17  C   UNL     1       2.644   2.930   0.310  0.00  0.00    +0.256 C 
ENDROOT
BRANCH  12  14
ATOM     14  C   UNL     1      -0.614   1.386  -0.122  0.00  0.00    -0.017 A 
ATOM     18  C   UNL     1      -1.258   1.240   1.107  0.00  0.00    +0.008 A 
ATOM     19  C   UNL     1      -1.362   1.463  -1.297  0.00  0.00    +0.008 A 
ATOM     21  C   UNL     1      -3.398   1.249  -0.014  0.00  0.00    +0.048 A 
ATOM     22  C   UNL     1      -2.650   1.171   1.161  0.00  0.00    +0.025 A 
ATOM     23  C   UNL     1      -2.754   1.395  -1.243  0.00  0.00    +0.025 A 
BRANCH  21  10
ATOM     10  N   UNL     1      -4.824   1.179   0.042  0.00  0.00    -0.221 N 
ATOM     30  H   UNL     1      -5.226   1.558   0.910  0.00  0.00    +0.173 HD
BRANCH  10   1
ATOM      1  S   UNL     1      -5.593  -0.239  -0.562  0.00  0.00    +0.043 S 
ATOM      6  O   UNL     1      -7.019   0.014  -0.646  0.00  0.00    -0.155 OA
ATOM      7  O   UNL     1      -4.872  -0.775  -1.699  0.00  0.00    -0.155 OA
BRANCH   1  24
ATOM     24  C   UNL     1      -5.344  -1.341   0.812  0.00  0.00    +0.188 C 
BRANCH  24  25
ATOM     25  C   UNL     1      -5.944  -2.710   0.539  0.00  0.00    +0.021 C 
ATOM     28  C   UNL     1      -5.750  -3.647   1.720  0.00  0.00    +0.005 C 
ENDBRANCH  24  25
ENDBRANCH   1  24
ENDBRANCH  10   1
ENDBRANCH  21  10
ENDBRANCH  12  14
BRANCH  11  13
ATOM     13  C   UNL     1       1.315  -1.029  -0.314  0.00  0.00    +0.181 C 
BRANCH  13   3
ATOM      3  O   UNL     1       1.759  -0.857  -1.645  0.00  0.00    -0.393 OA
ATOM     29  H   UNL     1       1.548  -1.675  -2.127  0.00  0.00    +0.209 HD
ENDBRANCH  13   3
ENDBRANCH  11  13
BRANCH   8  16
ATOM     16  C   UNL     1       3.940  -0.612   0.926  0.00  0.00    +0.204 C 
BRANCH  16  20
ATOM      5  O   UNL     1       4.452  -0.565  -1.415  0.00  0.00    -0.274 OA
ATOM      9  N   UNL     1       5.479  -2.219  -0.153  0.00  0.00    -0.306 N 
ATOM     20  C   UNL     1       4.637  -1.114  -0.326  0.00  0.00    +0.232 C 
ATOM     26  C   UNL     1       5.680  -2.851   1.145  0.00  0.00    +0.131 C 
ATOM     27  C   UNL     1       6.218  -2.820  -1.260  0.00  0.00    +0.131 C 
ENDBRANCH  16  20
ENDBRANCH   8  16
TORSDOF 9
