REMARK  Name = 9424620
REMARK  4 active torsions:
REMARK  status: ('A' for Active; 'I' for Inactive)
REMARK    1  A    between atoms: N_5  and  C_14
REMARK    2  A    between atoms: N_8  and  C_21
REMARK    3  A    between atoms: C_25  and  C_26
REMARK    4  A    between atoms: C_27  and  C_28
REMARK                            x       y       z     vdW  Elec       q    Type
REMARK                         _______ _______ _______ _____ _____    ______ ____
ROOT
ATOM      2  O   UNL     1       1.517   2.996  -2.815  0.00  0.00    -0.268 OA
ATOM      5  N   UNL     1       1.628   0.519   1.548  0.00  0.00    -0.298 NA
ATOM      6  N   UNL     1       0.534   2.428  -0.766  0.00  0.00    -0.310 N 
ATOM      9  C   UNL     1       1.617   3.025   1.480  0.00  0.00    +0.024 C 
ATOM     10  C   UNL     1      -0.506   1.809   1.438  0.00  0.00    +0.052 C 
ATOM     11  C   UNL     1       0.186   3.054   1.988  0.00  0.00    +0.017 C 
ATOM     12  C   UNL     1       2.328   1.742   1.958  0.00  0.00    +0.090 C 
ATOM     13  C   UNL     1       0.217   0.545   1.958  0.00  0.00    +0.094 C 
ATOM     15  C   UNL     1       1.591   3.153  -0.046  0.00  0.00    +0.130 C 
ATOM     16  C   UNL     1      -0.535   1.813  -0.089  0.00  0.00    +0.047 A 
ATOM     21  C   UNL     1      -1.529   1.230  -0.798  0.00  0.00    +0.054 A 
ATOM     22  C   UNL     1       0.615   2.461  -2.170  0.00  0.00    +0.252 A 
ATOM     23  C   UNL     1      -1.495   1.239  -2.240  0.00  0.00    +0.030 A 
ATOM     24  C   UNL     1      -0.491   1.805  -2.912  0.00  0.00    +0.072 A 
ENDROOT
BRANCH   5  14
ATOM      3  O   UNL     1       3.251  -4.138  -1.408  0.00  0.00    -0.276 OA
ATOM      7  N   UNL     1       3.291  -2.110  -0.274  0.00  0.00    -0.302 N 
ATOM     14  C   UNL     1       2.303  -0.672   2.068  0.00  0.00    +0.060 C 
ATOM     17  C   UNL     1       3.785  -0.664   1.667  0.00  0.00    +0.038 C 
ATOM     18  C   UNL     1       1.625  -1.945   1.540  0.00  0.00    +0.038 C 
ATOM     19  C   UNL     1       3.988  -0.895   0.168  0.00  0.00    +0.109 C 
ATOM     20  C   UNL     1       1.861  -2.153   0.044  0.00  0.00    +0.109 C 
ATOM     25  C   UNL     1       3.869  -3.152  -1.000  0.00  0.00    +0.212 C 
ATOM     26  C   UNL     1       5.346  -3.039  -1.284  0.00  0.00    +0.109 C 
ENDBRANCH   5  14
BRANCH  21   8
ATOM      4  O   UNL     1      -2.873  -0.998  -1.877  0.00  0.00    -0.269 OA
ATOM      8  N   UNL     1      -2.592   0.586  -0.226  0.00  0.00    -0.280 N 
ATOM     27  C   UNL     1      -3.225  -0.514  -0.800  0.00  0.00    +0.255 C 
ATOM     32  H   UNL     1      -2.790   0.800   0.744  0.00  0.00    +0.155 HD
BRANCH  27  28
ATOM      1  S   UNL     1      -5.143  -2.425  -0.654  0.00  0.00    -0.092 S 
ATOM     28  C   UNL     1      -4.330  -1.085  -0.015  0.00  0.00    +0.074 A 
ATOM     29  C   UNL     1      -4.789  -0.664   1.183  0.00  0.00    +0.021 A 
ATOM     30  C   UNL     1      -5.874  -1.478   1.620  0.00  0.00    +0.008 A 
ATOM     31  C   UNL     1      -6.170  -2.474   0.715  0.00  0.00    +0.046 A 
ENDBRANCH  27  28
ENDBRANCH  21   8
TORSDOF 3
