REMARK  Name = 28991177
REMARK  5 active torsions:
REMARK  status: ('A' for Active; 'I' for Inactive)
REMARK    1  A    between atoms: N_5  and  C_16
REMARK    2  A    between atoms: N_6  and  C_17
REMARK    3  A    between atoms: C_10  and  C_16
REMARK    4  A    between atoms: C_11  and  C_17
REMARK    5  A    between atoms: C_22  and  C_24
REMARK                            x       y       z     vdW  Elec       q    Type
REMARK                         _______ _______ _______ _____ _____    ______ ____
ROOT
ATOM      4  N   UNL     1      -0.941  -3.926   0.124  0.00  0.00    -0.298 NA
ATOM      9  C   UNL     1       0.646  -2.213  -1.021  0.00  0.00    -0.003 C 
ATOM     10  C   UNL     1       1.295  -2.799   0.254  0.00  0.00    +0.020 C 
ATOM     11  C   UNL     1      -1.660  -2.646  -0.114  0.00  0.00    +0.074 C 
ATOM     12  C   UNL     1      -0.700  -1.563  -0.656  0.00  0.00    +0.024 C 
ATOM     13  C   UNL     1       0.258  -3.695   0.967  0.00  0.00    +0.089 C 
ATOM     14  C   UNL     1       0.342  -3.401  -1.954  0.00  0.00    +0.019 C 
ATOM     15  C   UNL     1      -0.488  -4.447  -1.189  0.00  0.00    +0.085 C 
ENDROOT
BRANCH  10  16
ATOM     16  C   UNL     1       1.855  -1.731   1.190  0.00  0.00    +0.089 C 
BRANCH  16   5
ATOM      5  N   UNL     1       2.817  -0.878   0.492  0.00  0.00    -0.299 NA
ATOM      7  N   UNL     1       5.194   0.680   0.207  0.00  0.00    -0.313 N 
ATOM      8  N   UNL     1       6.134   2.663  -0.680  0.00  0.00    -0.240 NA
ATOM     18  C   UNL     1       4.130  -1.531   0.423  0.00  0.00    +0.103 C 
ATOM     19  C   UNL     1       2.939   0.420   1.168  0.00  0.00    +0.103 C 
ATOM     20  C   UNL     1       5.131  -0.673  -0.354  0.00  0.00    +0.122 C 
ATOM     21  C   UNL     1       3.900   1.343   0.415  0.00  0.00    +0.122 C 
ATOM     23  C   UNL     1       6.312   1.484  -0.043  0.00  0.00    +0.121 A 
ATOM     25  C   UNL     1       7.542   1.011   0.385  0.00  0.00    +0.043 A 
ATOM     28  C   UNL     1       8.662   1.799   0.143  0.00  0.00    +0.005 A 
ATOM     29  C   UNL     1       7.246   3.401  -0.898  0.00  0.00    +0.113 A 
ATOM     32  C   UNL     1       8.519   3.018  -0.510  0.00  0.00    +0.020 A 
ENDBRANCH  16   5
ENDBRANCH  10  16
BRANCH  11  17
ATOM     17  C   UNL     1      -2.419  -2.164   1.125  0.00  0.00    +0.123 C 
BRANCH  17   6
ATOM      1  O   UNL     1      -5.141  -2.173   0.210  0.00  0.00    -0.270 OA
ATOM      6  N   UNL     1      -3.233  -1.002   0.810  0.00  0.00    -0.310 N 
ATOM     22  C   UNL     1      -4.539  -1.115   0.376  0.00  0.00    +0.244 C 
ATOM     35  H   UNL     1      -2.775  -0.099   0.862  0.00  0.00    +0.149 HD
BRANCH  22  24
ATOM      2  O   UNL     1      -5.252   3.732   0.934  0.00  0.00    -0.453 OA
ATOM      3  O   UNL     1      -7.041   3.771  -0.680  0.00  0.00    -0.453 OA
ATOM     24  C   UNL     1      -5.227   0.166   0.071  0.00  0.00    +0.040 A 
ATOM     26  C   UNL     1      -4.830   1.337   0.721  0.00  0.00    +0.062 A 
ATOM     27  C   UNL     1      -6.271   0.189  -0.871  0.00  0.00    +0.017 A 
ATOM     30  C   UNL     1      -5.497   2.503   0.405  0.00  0.00    +0.167 A 
ATOM     31  C   UNL     1      -6.930   1.383  -1.173  0.00  0.00    +0.050 A 
ATOM     33  C   UNL     1      -6.519   2.525  -0.517  0.00  0.00    +0.166 A 
ATOM     34  C   UNL     1      -6.233   4.531   0.241  0.00  0.00    +0.466 C 
ENDBRANCH  22  24
ENDBRANCH  17   6
ENDBRANCH  11  17
TORSDOF 5
