REMARK  Name = 56775617
REMARK  12 active torsions:
REMARK  status: ('A' for Active; 'I' for Inactive)
REMARK    1  A    between atoms: O_6  and  C_25
REMARK    2  A    between atoms: O_6  and  C_33
REMARK    3  A    between atoms: N_7  and  C_10
REMARK    4  A    between atoms: N_7  and  C_15
REMARK    5  A    between atoms: N_9  and  C_19
REMARK    6  A    between atoms: N_9  and  C_22
REMARK    7  A    between atoms: N_9  and  C_26
REMARK    8  A    between atoms: C_10  and  C_13
REMARK    9  A    between atoms: C_13  and  C_14
REMARK   10  A    between atoms: C_15  and  C_17
REMARK   11  A    between atoms: C_18  and  C_19
REMARK   12  A    between atoms: C_22  and  C_27
REMARK                            x       y       z     vdW  Elec       q    Type
REMARK                         _______ _______ _______ _____ _____    ______ ____
ROOT
ATOM      4  O   UNL     1      -0.939   4.159   2.597  0.00  0.00    -0.376 OA
ATOM     10  C   UNL     1      -1.106   3.223   0.686  0.00  0.00    +0.072 C 
ATOM     11  C   UNL     1      -0.400   4.435   1.284  0.00  0.00    +0.184 C 
ATOM     12  C   UNL     1      -1.710   3.053   2.075  0.00  0.00    +0.184 C 
ENDROOT
BRANCH  10   7
ATOM      7  N   UNL     1      -0.124   2.170   0.468  0.00  0.00    -0.302 NA
ATOM     34  H   UNL     1      -0.506   1.226   0.420  0.00  0.00    +0.123 HD
BRANCH   7  15
ATOM     15  C   UNL     1       0.645   2.453  -0.741  0.00  0.00    +0.117 C 
BRANCH  15  17
ATOM     17  C   UNL     1       2.000   1.797  -0.710  0.00  0.00    -0.033 A 
ATOM     20  C   UNL     1       3.020   2.338   0.073  0.00  0.00    +0.008 A 
ATOM     21  C   UNL     1       2.234   0.646  -1.462  0.00  0.00    +0.008 A 
ATOM     23  C   UNL     1       4.274   1.729   0.103  0.00  0.00    +0.046 A 
ATOM     24  C   UNL     1       3.488   0.036  -1.431  0.00  0.00    +0.046 A 
ATOM     25  C   UNL     1       4.508   0.577  -0.649  0.00  0.00    +0.130 A 
BRANCH  25   6
ATOM      6  O   UNL     1       5.732  -0.018  -0.618  0.00  0.00    -0.406 OA
BRANCH   6  33
ATOM      1  F   UNL     1       7.011  -1.548   0.439  0.00  0.00    -0.133 F 
ATOM      2  F   UNL     1       4.848  -1.632   0.741  0.00  0.00    -0.133 F 
ATOM      3  F   UNL     1       5.731  -2.232  -1.195  0.00  0.00    -0.133 F 
ATOM     33  C   UNL     1       5.814  -1.364  -0.164  0.00  0.00    +0.575 C 
ENDBRANCH   6  33
ENDBRANCH  25   6
ENDBRANCH  15  17
ENDBRANCH   7  15
ENDBRANCH  10   7
BRANCH  10  13
ATOM     13  C   UNL     1      -2.042   3.426  -0.513  0.00  0.00    +0.085 C 
BRANCH  13  14
ATOM      5  O   UNL     1      -4.774   1.130  -0.379  0.00  0.00    -0.358 OA
ATOM      8  N   UNL     1      -4.156   2.326  -0.035  0.00  0.00    -0.083 NA
ATOM     14  C   UNL     1      -2.974   2.296  -0.656  0.00  0.00    +0.086 A 
ATOM     16  C   UNL     1      -2.791   1.117  -1.399  0.00  0.00    +0.072 A 
ATOM     18  C   UNL     1      -3.951   0.418  -1.191  0.00  0.00    +0.151 A 
BRANCH  18  19
ATOM     19  C   UNL     1      -4.463  -0.916  -1.664  0.00  0.00    +0.161 C 
BRANCH  19   9
ATOM      9  N   UNL     1      -3.576  -2.011  -1.270  0.00  0.00    -0.294 NA
ATOM     26  C   UNL     1      -3.812  -3.186  -2.107  0.00  0.00    +0.105 C 
BRANCH   9  22
ATOM     22  C   UNL     1      -3.769  -2.341   0.141  0.00  0.00    +0.119 C 
BRANCH  22  27
ATOM     27  C   UNL     1      -2.567  -3.036   0.723  0.00  0.00    -0.033 A 
ATOM     28  C   UNL     1      -2.476  -4.428   0.679  0.00  0.00    +0.005 A 
ATOM     29  C   UNL     1      -1.544  -2.289   1.307  0.00  0.00    +0.005 A 
ATOM     30  C   UNL     1      -1.362  -5.071   1.219  0.00  0.00    +0.000 A 
ATOM     31  C   UNL     1      -0.431  -2.932   1.847  0.00  0.00    +0.000 A 
ATOM     32  C   UNL     1      -0.340  -4.324   1.802  0.00  0.00    +0.000 A 
ENDBRANCH  22  27
ENDBRANCH   9  22
ENDBRANCH  19   9
ENDBRANCH  18  19
ENDBRANCH  13  14
ENDBRANCH  10  13
TORSDOF 11
