REMARK  Name = 40779854
REMARK  8 active torsions:
REMARK  status: ('A' for Active; 'I' for Inactive)
REMARK    1  A    between atoms: S_1  and  N_6
REMARK    2  A    between atoms: S_1  and  C_18
REMARK    3  A    between atoms: N_5  and  C_14
REMARK    4  A    between atoms: N_5  and  C_16
REMARK    5  A    between atoms: N_5  and  C_17
REMARK    6  A    between atoms: N_6  and  C_15
REMARK    7  A    between atoms: C_8  and  C_14
REMARK    8  A    between atoms: C_9  and  C_15
REMARK                            x       y       z     vdW  Elec       q    Type
REMARK                         _______ _______ _______ _____ _____    ______ ____
ROOT
ATOM      4  N   UNL     1      -0.015  -2.154   1.428  0.00  0.00    -0.298 NA
ATOM      7  C   UNL     1       1.448  -1.952  -0.714  0.00  0.00    -0.002 C 
ATOM      8  C   UNL     1       1.830  -0.867   0.319  0.00  0.00    +0.023 C 
ATOM      9  C   UNL     1      -0.883  -2.100   0.221  0.00  0.00    +0.072 C 
ATOM     10  C   UNL     1      -0.049  -1.831  -1.051  0.00  0.00    +0.024 C 
ATOM     11  C   UNL     1       0.838  -0.943   1.502  0.00  0.00    +0.090 C 
ATOM     12  C   UNL     1       1.652  -3.316  -0.026  0.00  0.00    +0.019 C 
ATOM     13  C   UNL     1       0.872  -3.336   1.301  0.00  0.00    +0.085 C 
ENDROOT
BRANCH   8  14
ATOM     14  C   UNL     1       1.889   0.538  -0.277  0.00  0.00    +0.109 C 
BRANCH  14   5
ATOM      5  N   UNL     1       3.102   0.693  -1.036  0.00  0.00    -0.333 N 
ATOM     16  C   UNL     1       3.044   0.549  -2.494  0.00  0.00    +0.129 C 
BRANCH   5  17
ATOM     17  C   UNL     1       4.330   0.970  -0.413  0.00  0.00    +0.029 A 
ATOM     19  C   UNL     1       4.393   1.108   0.974  0.00  0.00    +0.023 A 
ATOM     20  C   UNL     1       5.486   1.107  -1.181  0.00  0.00    +0.023 A 
ATOM     21  C   UNL     1       5.612   1.383   1.593  0.00  0.00    +0.002 A 
ATOM     22  C   UNL     1       6.705   1.382  -0.562  0.00  0.00    +0.002 A 
ATOM     25  C   UNL     1       6.769   1.520   0.825  0.00  0.00    +0.000 A 
ENDBRANCH   5  17
ENDBRANCH  14   5
ENDBRANCH   8  14
BRANCH   9  15
ATOM     15  C   UNL     1      -2.031  -1.099   0.371  0.00  0.00    +0.124 C 
BRANCH  15   6
ATOM      6  N   UNL     1      -2.912  -1.201  -0.760  0.00  0.00    -0.188 NA
ATOM     29  H   UNL     1      -2.494  -1.058  -1.688  0.00  0.00    +0.148 HD
BRANCH   6   1
ATOM      1  S   UNL     1      -4.592  -0.858  -0.614  0.00  0.00    +0.058 S 
ATOM      2  O   UNL     1      -5.137  -1.657   0.466  0.00  0.00    -0.153 OA
ATOM      3  O   UNL     1      -5.219  -0.874  -1.922  0.00  0.00    -0.153 OA
BRANCH   1  18
ATOM     18  C   UNL     1      -4.555   0.827  -0.080  0.00  0.00    +0.105 A 
ATOM     23  C   UNL     1      -4.566   1.857  -1.020  0.00  0.00    +0.028 A 
ATOM     24  C   UNL     1      -4.511   1.126   1.282  0.00  0.00    +0.028 A 
ATOM     26  C   UNL     1      -4.533   3.186  -0.599  0.00  0.00    +0.002 A 
ATOM     27  C   UNL     1      -4.479   2.455   1.703  0.00  0.00    +0.002 A 
ATOM     28  C   UNL     1      -4.489   3.486   0.762  0.00  0.00    +0.000 A 
ENDBRANCH   1  18
ENDBRANCH   6   1
ENDBRANCH  15   6
ENDBRANCH   9  15
TORSDOF 7
