REMARK  Name = 71693892
REMARK  8 active torsions:
REMARK  status: ('A' for Active; 'I' for Inactive)
REMARK    1  A    between atoms: O_2  and  C_9
REMARK    2  A    between atoms: O_3  and  C_11
REMARK    3  A    between atoms: O_5  and  C_19
REMARK    4  A    between atoms: O_5  and  C_25
REMARK    5  A    between atoms: N_6  and  C_8
REMARK    6  A    between atoms: C_7  and  C_12
REMARK    7  A    between atoms: C_15  and  C_16
REMARK    8  A    between atoms: C_16  and  C_20
REMARK                            x       y       z     vdW  Elec       q    Type
REMARK                         _______ _______ _______ _____ _____    ______ ____
ROOT
ATOM      7  C   UNL     1       2.068  -0.420  -1.039  0.00  0.00    +0.044 C 
ATOM      8  C   UNL     1       1.995  -1.500   0.063  0.00  0.00    +0.111 C 
ATOM      9  C   UNL     1       3.101  -2.481  -0.327  0.00  0.00    +0.164 C 
ATOM     10  C   UNL     1       3.506  -0.497  -1.613  0.00  0.00    +0.044 C 
ATOM     11  C   UNL     1       4.226  -1.565  -0.793  0.00  0.00    +0.145 C 
ENDROOT
BRANCH   7  12
ATOM     12  C   UNL     1       1.666   0.955  -0.548  0.00  0.00    -0.042 A 
ATOM     13  C   UNL     1       0.589   1.619  -1.136  0.00  0.00    +0.007 A 
ATOM     14  C   UNL     1       2.372   1.557   0.493  0.00  0.00    +0.007 A 
ATOM     17  C   UNL     1       0.219   2.885  -0.683  0.00  0.00    +0.046 A 
ATOM     18  C   UNL     1       2.002   2.824   0.946  0.00  0.00    +0.046 A 
ATOM     19  C   UNL     1       0.925   3.487   0.358  0.00  0.00    +0.120 A 
BRANCH  19   5
ATOM      5  O   UNL     1       0.563   4.722   0.800  0.00  0.00    -0.495 OA
ATOM     25  C   UNL     1      -0.548   5.343   0.155  0.00  0.00    +0.277 C 
ENDBRANCH  19   5
ENDBRANCH   7  12
BRANCH   8   6
ATOM      4  O   UNL     1      -0.231  -0.759   1.729  0.00  0.00    -0.275 OA
ATOM      6  N   UNL     1       0.704  -2.137   0.111  0.00  0.00    -0.309 N 
ATOM     15  C   UNL     1      -0.316  -1.707   0.952  0.00  0.00    +0.218 C 
ATOM     27  H   UNL     1       0.524  -2.892  -0.544  0.00  0.00    +0.149 HD
BRANCH  15  16
ATOM     16  C   UNL     1      -1.565  -2.551   0.794  0.00  0.00    +0.130 C 
BRANCH  16  20
ATOM      1 CL   UNL     1      -6.367   0.613  -0.977  0.00  0.00    -0.084 Cl
ATOM     20  C   UNL     1      -2.768  -1.760   0.350  0.00  0.00    -0.039 A 
ATOM     21  C   UNL     1      -3.612  -1.184   1.299  0.00  0.00    +0.005 A 
ATOM     22  C   UNL     1      -3.037  -1.604  -1.010  0.00  0.00    +0.005 A 
ATOM     23  C   UNL     1      -4.725  -0.451   0.889  0.00  0.00    +0.020 A 
ATOM     24  C   UNL     1      -4.150  -0.871  -1.420  0.00  0.00    +0.020 A 
ATOM     26  C   UNL     1      -4.994  -0.295  -0.471  0.00  0.00    +0.041 A 
ENDBRANCH  16  20
ENDBRANCH  15  16
ENDBRANCH   8   6
BRANCH   9   2
ATOM      2  O   UNL     1       3.513  -3.285   0.762  0.00  0.00    -0.387 OA
ATOM     28  H   UNL     1       4.275  -3.811   0.464  0.00  0.00    +0.210 HD
ENDBRANCH   9   2
BRANCH  11   3
ATOM      3  O   UNL     1       4.864  -0.937   0.315  0.00  0.00    -0.389 OA
ATOM     29  H   UNL     1       5.543  -0.338  -0.040  0.00  0.00    +0.210 HD
ENDBRANCH  11   3
TORSDOF 7
