MODEL 1
REMARK VINA RESULT:      -6.7      0.000      0.000
REMARK  Name = 7134448
REMARK  14 active torsions:
REMARK  status: ('A' for Active; 'I' for Inactive)
REMARK    1  A    between atoms: O_2  and  C_20
REMARK    2  A    between atoms: O_4  and  C_22
REMARK    3  A    between atoms: O_5  and  C_23
REMARK    4  A    between atoms: O_8  and  C_36
REMARK    5  A    between atoms: N_9  and  C_21
REMARK    6  A    between atoms: N_10  and  C_28
REMARK    7  A    between atoms: C_12  and  C_17
REMARK    8  A    between atoms: C_12  and  C_18
REMARK    9  A    between atoms: C_17  and  C_19
REMARK   10  A    between atoms: C_18  and  C_20
REMARK   11  A    between atoms: C_26  and  C_27
REMARK   12  A    between atoms: C_28  and  C_29
REMARK   13  A    between atoms: C_28  and  C_30
REMARK   14  A    between atoms: C_29  and  C_31
REMARK                            x       y       z     vdW  Elec       q    Type
REMARK                         _______ _______ _______ _____ _____    ______ ____
ROOT
ATOM     21  C   UNL     1       9.296   7.679   3.270  0.00  0.00    +0.127 C 
ATOM     22  C   UNL     1       9.872   8.902   2.531  0.00  0.00    +0.167 C 
ATOM     23  C   UNL     1      10.077   8.612   1.039  0.00  0.00    +0.149 C 
ATOM     24  C   UNL     1       9.961   6.384   2.887  0.00  0.00    +0.006 C 
ATOM     25  C   UNL     1      10.969   7.380   0.806  0.00  0.00    +0.074 C 
ATOM     26  C   UNL     1      10.716   6.267   1.783  0.00  0.00    +0.015 C 
ENDROOT
BRANCH  21   9
ATOM      1  O   UNL     1       7.658   6.377   5.270  0.00  0.00    -0.276 OA
ATOM      9  N   UNL     1       9.377   7.837   4.703  0.00  0.00    -0.306 N 
ATOM     19  C   UNL     1       8.543   7.166   5.589  0.00  0.00    +0.214 C 
ATOM     37  H   UNL     1      10.041   8.514   5.066  0.00  0.00    +0.149 HD
BRANCH  19  17
ATOM     17  C   UNL     1       8.857   7.523   7.030  0.00  0.00    +0.103 C 
BRANCH  17  12
ATOM     12  C   UNL     1       9.645   6.426   7.750  0.00  0.00    -0.011 C 
ATOM     13  C   UNL     1       8.911   5.934   9.005  0.00  0.00    +0.008 C 
ATOM     14  C   UNL     1       9.722   5.142   6.912  0.00  0.00    +0.008 C 
ATOM     15  C   UNL     1       9.462   4.534   9.263  0.00  0.00    +0.001 C 
ATOM     16  C   UNL     1       9.984   4.026   7.920  0.00  0.00    +0.001 C 
BRANCH  12  18
ATOM     18  C   UNL     1      11.047   6.954   8.094  0.00  0.00    +0.127 C 
BRANCH  18  20
ATOM      3  O   UNL     1      11.988   6.952   5.844  0.00  0.00    -0.251 OA
ATOM     20  C   UNL     1      12.037   6.615   7.018  0.00  0.00    +0.305 C 
BRANCH  20   2
ATOM      2  O   UNL     1      13.031   5.855   7.544  0.00  0.00    -0.481 OA
ATOM     38  H   UNL     1      13.213   5.061   6.997  0.00  0.00    +0.295 HD
ENDBRANCH  20   2
ENDBRANCH  18  20
ENDBRANCH  12  18
ENDBRANCH  17  12
ENDBRANCH  19  17
ENDBRANCH  21   9
BRANCH  26  27
ATOM      6  O   UNL     1      10.732   3.918   1.821  0.00  0.00    -0.271 OA
ATOM     10  N   UNL     1      12.545   5.045   0.883  0.00  0.00    -0.300 N 
ATOM     27  C   UNL     1      11.312   4.957   1.507  0.00  0.00    +0.241 C 
ATOM     41  H   UNL     1      12.960   5.960   0.733  0.00  0.00    +0.150 HD
BRANCH  10  28
ATOM     28  C   UNL     1      13.326   3.887   0.514  0.00  0.00    +0.163 C 
BRANCH  28  30
ATOM      7  O   UNL     1      15.049   3.050   2.009  0.00  0.00    -0.274 OA
ATOM     11  N   UNL     1      15.318   5.134   1.081  0.00  0.00    -0.328 N 
ATOM     30  C   UNL     1      14.629   3.959   1.296  0.00  0.00    +0.231 C 
ATOM     42  H   UNL     1      14.960   5.876   0.487  0.00  0.00    +0.145 HD
ATOM     43  H   UNL     1      16.211   5.303   1.532  0.00  0.00    +0.145 HD
ENDBRANCH  28  30
BRANCH  28  29
ATOM     29  C   UNL     1      13.610   3.836  -0.991  0.00  0.00    +0.067 C 
BRANCH  29  31
ATOM     31  C   UNL     1      12.374   3.545  -1.809  0.00  0.00    -0.045 A 
ATOM     32  C   UNL     1      11.601   4.595  -2.304  0.00  0.00    +0.007 A 
ATOM     33  C   UNL     1      12.005   2.225  -2.068  0.00  0.00    +0.007 A 
ATOM     34  C   UNL     1      10.460   4.326  -3.059  0.00  0.00    +0.045 A 
ATOM     35  C   UNL     1      10.863   1.955  -2.823  0.00  0.00    +0.045 A 
ATOM     36  C   UNL     1      10.091   3.005  -3.319  0.00  0.00    +0.117 A 
BRANCH  36   8
ATOM      8  O   UNL     1       8.978   2.742  -4.056  0.00  0.00    -0.507 OA
ATOM     44  H   UNL     1       8.898   3.412  -4.755  0.00  0.00    +0.292 HD
ENDBRANCH  36   8
ENDBRANCH  29  31
ENDBRANCH  28  29
ENDBRANCH  10  28
ENDBRANCH  26  27
BRANCH  22   4
ATOM      4  O   UNL     1      11.130   9.262   3.106  0.00  0.00    -0.387 OA
ATOM     39  H   UNL     1      11.081   9.070   4.058  0.00  0.00    +0.210 HD
ENDBRANCH  22   4
BRANCH  23   5
ATOM      5  O   UNL     1       8.817   8.431   0.396  0.00  0.00    -0.389 OA
ATOM     40  H   UNL     1       8.990   8.142  -0.515  0.00  0.00    +0.210 HD
ENDBRANCH  23   5
TORSDOF 14
ENDMDL
MODEL 2
REMARK VINA RESULT:      -6.7     31.155     36.804
REMARK  Name = 7134448
REMARK  14 active torsions:
REMARK  status: ('A' for Active; 'I' for Inactive)
REMARK    1  A    between atoms: O_2  and  C_20
REMARK    2  A    between atoms: O_4  and  C_22
REMARK    3  A    between atoms: O_5  and  C_23
REMARK    4  A    between atoms: O_8  and  C_36
REMARK    5  A    between atoms: N_9  and  C_21
REMARK    6  A    between atoms: N_10  and  C_28
REMARK    7  A    between atoms: C_12  and  C_17
REMARK    8  A    between atoms: C_12  and  C_18
REMARK    9  A    between atoms: C_17  and  C_19
REMARK   10  A    between atoms: C_18  and  C_20
REMARK   11  A    between atoms: C_26  and  C_27
REMARK   12  A    between atoms: C_28  and  C_29
REMARK   13  A    between atoms: C_28  and  C_30
REMARK   14  A    between atoms: C_29  and  C_31
REMARK                            x       y       z     vdW  Elec       q    Type
REMARK                         _______ _______ _______ _____ _____    ______ ____
ROOT
ATOM     21  C   UNL     1     -17.106   4.401  25.009  0.00  0.00    +0.127 C 
ATOM     22  C   UNL     1     -16.942   3.102  24.197  0.00  0.00    +0.167 C 
ATOM     23  C   UNL     1     -17.570   1.904  24.920  0.00  0.00    +0.149 C 
ATOM     24  C   UNL     1     -16.813   4.227  26.475  0.00  0.00    +0.006 C 
ATOM     25  C   UNL     1     -17.002   1.721  26.338  0.00  0.00    +0.074 C 
ATOM     26  C   UNL     1     -16.762   3.018  27.056  0.00  0.00    +0.015 C 
ENDROOT
BRANCH  21   9
ATOM      1  O   UNL     1     -17.680   6.139  22.768  0.00  0.00    -0.276 OA
ATOM      9  N   UNL     1     -16.275   5.461  24.492  0.00  0.00    -0.306 N 
ATOM     19  C   UNL     1     -16.635   6.247  23.405  0.00  0.00    +0.214 C 
ATOM     37  H   UNL     1     -15.361   5.593  24.915  0.00  0.00    +0.149 HD
BRANCH  19  17
ATOM     17  C   UNL     1     -15.572   7.282  23.087  0.00  0.00    +0.103 C 
BRANCH  17  12
ATOM     12  C   UNL     1     -14.895   7.034  21.737  0.00  0.00    -0.011 C 
ATOM     13  C   UNL     1     -15.758   7.534  20.571  0.00  0.00    +0.008 C 
ATOM     14  C   UNL     1     -13.629   7.887  21.574  0.00  0.00    +0.008 C 
ATOM     15  C   UNL     1     -14.779   7.765  19.422  0.00  0.00    +0.001 C 
ATOM     16  C   UNL     1     -13.412   7.991  20.067  0.00  0.00    +0.001 C 
BRANCH  12  18
ATOM     18  C   UNL     1     -14.580   5.536  21.597  0.00  0.00    +0.127 C 
BRANCH  18  20
ATOM      3  O   UNL     1     -13.429   4.827  23.626  0.00  0.00    -0.251 OA
ATOM     20  C   UNL     1     -13.407   5.143  22.446  0.00  0.00    +0.305 C 
BRANCH  20   2
ATOM      2  O   UNL     1     -12.275   5.187  21.697  0.00  0.00    -0.481 OA
ATOM     38  H   UNL     1     -11.520   4.755  22.151  0.00  0.00    +0.295 HD
ENDBRANCH  20   2
ENDBRANCH  18  20
ENDBRANCH  12  18
ENDBRANCH  17  12
ENDBRANCH  19  17
ENDBRANCH  21   9
BRANCH  26  27
ATOM      6  O   UNL     1     -17.303   2.543  29.292  0.00  0.00    -0.271 OA
ATOM     10  N   UNL     1     -15.208   3.441  28.804  0.00  0.00    -0.300 N 
ATOM     27  C   UNL     1     -16.471   2.969  28.492  0.00  0.00    +0.241 C 
ATOM     41  H   UNL     1     -14.629   3.833  28.067  0.00  0.00    +0.150 HD
BRANCH  10  28
ATOM     28  C   UNL     1     -14.697   3.494  30.154  0.00  0.00    +0.163 C 
BRANCH  28  30
ATOM      7  O   UNL     1     -14.976   1.361  31.285  0.00  0.00    -0.274 OA
ATOM     11  N   UNL     1     -13.145   1.655  29.929  0.00  0.00    -0.328 N 
ATOM     30  C   UNL     1     -14.307   2.075  30.542  0.00  0.00    +0.231 C 
ATOM     42  H   UNL     1     -12.603   2.255  29.315  0.00  0.00    +0.145 HD
ATOM     43  H   UNL     1     -12.781   0.721  30.090  0.00  0.00    +0.145 HD
ENDBRANCH  28  30
BRANCH  28  29
ATOM     29  C   UNL     1     -15.727   4.053  31.143  0.00  0.00    +0.067 C 
BRANCH  29  31
ATOM     31  C   UNL     1     -15.088   4.748  32.321  0.00  0.00    -0.045 A 
ATOM     32  C   UNL     1     -15.082   4.136  33.574  0.00  0.00    +0.007 A 
ATOM     33  C   UNL     1     -14.503   6.004  32.155  0.00  0.00    +0.007 A 
ATOM     34  C   UNL     1     -14.492   4.779  34.662  0.00  0.00    +0.045 A 
ATOM     35  C   UNL     1     -13.913   6.647  33.243  0.00  0.00    +0.045 A 
ATOM     36  C   UNL     1     -13.907   6.035  34.496  0.00  0.00    +0.117 A 
BRANCH  36   8
ATOM      8  O   UNL     1     -13.330   6.663  35.557  0.00  0.00    -0.507 OA
ATOM     44  H   UNL     1     -12.542   6.162  35.828  0.00  0.00    +0.292 HD
ENDBRANCH  36   8
ENDBRANCH  29  31
ENDBRANCH  28  29
ENDBRANCH  10  28
ENDBRANCH  26  27
BRANCH  22   4
ATOM      4  O   UNL     1     -15.553   2.837  23.990  0.00  0.00    -0.387 OA
ATOM     39  H   UNL     1     -15.129   3.678  23.748  0.00  0.00    +0.210 HD
ENDBRANCH  22   4
BRANCH  23   5
ATOM      5  O   UNL     1     -18.987   2.052  24.977  0.00  0.00    -0.389 OA
ATOM     40  H   UNL     1     -19.177   2.976  25.211  0.00  0.00    +0.210 HD
ENDBRANCH  23   5
TORSDOF 14
ENDMDL
MODEL 3
REMARK VINA RESULT:      -6.6      3.023      4.530
REMARK  Name = 7134448
REMARK  14 active torsions:
REMARK  status: ('A' for Active; 'I' for Inactive)
REMARK    1  A    between atoms: O_2  and  C_20
REMARK    2  A    between atoms: O_4  and  C_22
REMARK    3  A    between atoms: O_5  and  C_23
REMARK    4  A    between atoms: O_8  and  C_36
REMARK    5  A    between atoms: N_9  and  C_21
REMARK    6  A    between atoms: N_10  and  C_28
REMARK    7  A    between atoms: C_12  and  C_17
REMARK    8  A    between atoms: C_12  and  C_18
REMARK    9  A    between atoms: C_17  and  C_19
REMARK   10  A    between atoms: C_18  and  C_20
REMARK   11  A    between atoms: C_26  and  C_27
REMARK   12  A    between atoms: C_28  and  C_29
REMARK   13  A    between atoms: C_28  and  C_30
REMARK   14  A    between atoms: C_29  and  C_31
REMARK                            x       y       z     vdW  Elec       q    Type
REMARK                         _______ _______ _______ _____ _____    ______ ____
ROOT
ATOM     21  C   UNL     1      13.408   8.502   5.823  0.00  0.00    +0.127 C 
ATOM     22  C   UNL     1      14.819   8.391   6.432  0.00  0.00    +0.167 C 
ATOM     23  C   UNL     1      15.907   8.617   5.376  0.00  0.00    +0.149 C 
ATOM     24  C   UNL     1      13.272   7.789   4.504  0.00  0.00    +0.006 C 
ATOM     25  C   UNL     1      15.765   7.655   4.184  0.00  0.00    +0.074 C 
ATOM     26  C   UNL     1      14.338   7.408   3.784  0.00  0.00    +0.015 C 
ENDROOT
BRANCH  21   9
ATOM      1  O   UNL     1      10.723   9.522   6.176  0.00  0.00    -0.276 OA
ATOM      9  N   UNL     1      12.397   8.006   6.726  0.00  0.00    -0.306 N 
ATOM     19  C   UNL     1      11.129   8.564   6.827  0.00  0.00    +0.214 C 
ATOM     37  H   UNL     1      12.655   7.248   7.351  0.00  0.00    +0.149 HD
BRANCH  19  17
ATOM     17  C   UNL     1      10.279   7.837   7.852  0.00  0.00    +0.103 C 
BRANCH  17  12
ATOM     12  C   UNL     1       9.450   6.708   7.236  0.00  0.00    -0.011 C 
ATOM     13  C   UNL     1       8.305   7.255   6.371  0.00  0.00    +0.008 C 
ATOM     14  C   UNL     1      10.260   5.907   6.209  0.00  0.00    +0.008 C 
ATOM     15  C   UNL     1       7.964   6.124   5.404  0.00  0.00    +0.001 C 
ATOM     16  C   UNL     1       9.218   5.258   5.301  0.00  0.00    +0.001 C 
BRANCH  12  18
ATOM     18  C   UNL     1       8.917   5.802   8.358  0.00  0.00    +0.127 C 
BRANCH  18  20
ATOM      3  O   UNL     1      10.705   5.317   9.944  0.00  0.00    -0.251 OA
ATOM     20  C   UNL     1      10.021   5.000   8.982  0.00  0.00    +0.305 C 
BRANCH  20   2
ATOM      2  O   UNL     1      10.164   3.830   8.308  0.00  0.00    -0.481 OA
ATOM     38  H   UNL     1      10.969   3.343   8.588  0.00  0.00    +0.295 HD
ENDBRANCH  20   2
ENDBRANCH  18  20
ENDBRANCH  12  18
ENDBRANCH  17  12
ENDBRANCH  19  17
ENDBRANCH  21   9
BRANCH  26  27
ATOM      6  O   UNL     1      14.576   7.137   1.462  0.00  0.00    -0.271 OA
ATOM     10  N   UNL     1      13.267   5.616   2.648  0.00  0.00    -0.300 N 
ATOM     27  C   UNL     1      14.086   6.724   2.512  0.00  0.00    +0.241 C 
ATOM     41  H   UNL     1      12.862   5.407   3.557  0.00  0.00    +0.150 HD
BRANCH  10  28
ATOM     28  C   UNL     1      12.875   4.783   1.534  0.00  0.00    +0.163 C 
BRANCH  28  30
ATOM      7  O   UNL     1      11.481   3.080   2.564  0.00  0.00    -0.274 OA
ATOM     11  N   UNL     1      10.459   4.834   1.488  0.00  0.00    -0.328 N 
ATOM     30  C   UNL     1      11.560   4.119   1.912  0.00  0.00    +0.231 C 
ATOM     42  H   UNL     1      10.538   5.692   0.952  0.00  0.00    +0.145 HD
ATOM     43  H   UNL     1       9.519   4.508   1.689  0.00  0.00    +0.145 HD
ENDBRANCH  28  30
BRANCH  28  29
ATOM     29  C   UNL     1      13.932   3.724   1.203  0.00  0.00    +0.067 C 
BRANCH  29  31
ATOM     31  C   UNL     1      14.701   4.040  -0.057  0.00  0.00    -0.045 A 
ATOM     32  C   UNL     1      16.092   4.133  -0.021  0.00  0.00    +0.007 A 
ATOM     33  C   UNL     1      14.019   4.240  -1.258  0.00  0.00    +0.007 A 
ATOM     34  C   UNL     1      16.802   4.425  -1.186  0.00  0.00    +0.045 A 
ATOM     35  C   UNL     1      14.729   4.532  -2.422  0.00  0.00    +0.045 A 
ATOM     36  C   UNL     1      16.120   4.625  -2.387  0.00  0.00    +0.117 A 
BRANCH  36   8
ATOM      8  O   UNL     1      16.813   4.910  -3.523  0.00  0.00    -0.507 OA
ATOM     44  H   UNL     1      17.166   5.813  -3.458  0.00  0.00    +0.292 HD
ENDBRANCH  36   8
ENDBRANCH  29  31
ENDBRANCH  28  29
ENDBRANCH  10  28
ENDBRANCH  26  27
BRANCH  22   4
ATOM      4  O   UNL     1      14.994   7.092   7.003  0.00  0.00    -0.387 OA
ATOM     39  H   UNL     1      15.804   6.713   6.622  0.00  0.00    +0.210 HD
ENDBRANCH  22   4
BRANCH  23   5
ATOM      5  O   UNL     1      15.876   9.967   4.920  0.00  0.00    -0.389 OA
ATOM     40  H   UNL     1      15.620   9.956   3.982  0.00  0.00    +0.210 HD
ENDBRANCH  23   5
TORSDOF 14
ENDMDL
MODEL 4
REMARK VINA RESULT:      -6.5      1.728      3.674
REMARK  Name = 7134448
REMARK  14 active torsions:
REMARK  status: ('A' for Active; 'I' for Inactive)
REMARK    1  A    between atoms: O_2  and  C_20
REMARK    2  A    between atoms: O_4  and  C_22
REMARK    3  A    between atoms: O_5  and  C_23
REMARK    4  A    between atoms: O_8  and  C_36
REMARK    5  A    between atoms: N_9  and  C_21
REMARK    6  A    between atoms: N_10  and  C_28
REMARK    7  A    between atoms: C_12  and  C_17
REMARK    8  A    between atoms: C_12  and  C_18
REMARK    9  A    between atoms: C_17  and  C_19
REMARK   10  A    between atoms: C_18  and  C_20
REMARK   11  A    between atoms: C_26  and  C_27
REMARK   12  A    between atoms: C_28  and  C_29
REMARK   13  A    between atoms: C_28  and  C_30
REMARK   14  A    between atoms: C_29  and  C_31
REMARK                            x       y       z     vdW  Elec       q    Type
REMARK                         _______ _______ _______ _____ _____    ______ ____
ROOT
ATOM     21  C   UNL     1       9.468   6.935   2.911  0.00  0.00    +0.127 C 
ATOM     22  C   UNL     1       9.700   8.413   3.281  0.00  0.00    +0.167 C 
ATOM     23  C   UNL     1       9.478   9.336   2.076  0.00  0.00    +0.149 C 
ATOM     24  C   UNL     1      10.093   6.546   1.598  0.00  0.00    +0.006 C 
ATOM     25  C   UNL     1      10.358   8.942   0.877  0.00  0.00    +0.074 C 
ATOM     26  C   UNL     1      10.495   7.457   0.699  0.00  0.00    +0.015 C 
ENDROOT
BRANCH  21   9
ATOM      1  O   UNL     1       7.991   5.901   5.174  0.00  0.00    -0.276 OA
ATOM      9  N   UNL     1       9.955   6.047   3.939  0.00  0.00    -0.306 N 
ATOM     19  C   UNL     1       9.168   5.602   4.993  0.00  0.00    +0.214 C 
ATOM     37  H   UNL     1      10.936   5.786   3.911  0.00  0.00    +0.149 HD
BRANCH  19  17
ATOM     17  C   UNL     1       9.941   4.678   5.917  0.00  0.00    +0.103 C 
BRANCH  17  12
ATOM     12  C   UNL     1      10.097   5.251   7.326  0.00  0.00    -0.011 C 
ATOM     13  C   UNL     1       9.076   6.364   7.602  0.00  0.00    +0.008 C 
ATOM     14  C   UNL     1       9.729   4.219   8.401  0.00  0.00    +0.008 C 
ATOM     15  C   UNL     1       8.949   6.419   9.122  0.00  0.00    +0.001 C 
ATOM     16  C   UNL     1       9.369   5.042   9.635  0.00  0.00    +0.001 C 
BRANCH  12  18
ATOM     18  C   UNL     1      11.537   5.757   7.509  0.00  0.00    +0.127 C 
BRANCH  18  20
ATOM      3  O   UNL     1      11.458   8.095   6.820  0.00  0.00    -0.251 OA
ATOM     20  C   UNL     1      11.815   6.941   6.631  0.00  0.00    +0.305 C 
BRANCH  20   2
ATOM      2  O   UNL     1      12.545   6.544   5.557  0.00  0.00    -0.481 OA
ATOM     38  H   UNL     1      13.189   5.842   5.793  0.00  0.00    +0.295 HD
ENDBRANCH  20   2
ENDBRANCH  18  20
ENDBRANCH  12  18
ENDBRANCH  17  12
ENDBRANCH  19  17
ENDBRANCH  21   9
BRANCH  26  27
ATOM      6  O   UNL     1      11.811   7.682  -1.234  0.00  0.00    -0.271 OA
ATOM     10  N   UNL     1      10.736   5.653  -0.830  0.00  0.00    -0.300 N 
ATOM     27  C   UNL     1      11.086   6.963  -0.548  0.00  0.00    +0.241 C 
ATOM     41  H   UNL     1      10.074   5.176  -0.224  0.00  0.00    +0.150 HD
BRANCH  10  28
ATOM     28  C   UNL     1      11.195   4.950  -2.005  0.00  0.00    +0.163 C 
BRANCH  28  30
ATOM      7  O   UNL     1       9.558   5.814  -3.579  0.00  0.00    -0.274 OA
ATOM     11  N   UNL     1       9.540   3.568  -3.098  0.00  0.00    -0.328 N 
ATOM     30  C   UNL     1      10.015   4.856  -2.960  0.00  0.00    +0.231 C 
ATOM     42  H   UNL     1       9.928   2.784  -2.582  0.00  0.00    +0.145 HD
ATOM     43  H   UNL     1       8.763   3.364  -3.718  0.00  0.00    +0.145 HD
ENDBRANCH  28  30
BRANCH  28  29
ATOM     29  C   UNL     1      11.725   3.550  -1.673  0.00  0.00    +0.067 C 
BRANCH  29  31
ATOM     31  C   UNL     1      12.758   3.563  -0.572  0.00  0.00    -0.045 A 
ATOM     32  C   UNL     1      14.070   3.948  -0.848  0.00  0.00    +0.007 A 
ATOM     33  C   UNL     1      12.399   3.190   0.724  0.00  0.00    +0.007 A 
ATOM     34  C   UNL     1      15.023   3.960   0.170  0.00  0.00    +0.045 A 
ATOM     35  C   UNL     1      13.352   3.201   1.742  0.00  0.00    +0.045 A 
ATOM     36  C   UNL     1      14.664   3.586   1.465  0.00  0.00    +0.117 A 
BRANCH  36   8
ATOM      8  O   UNL     1      15.594   3.598   2.459  0.00  0.00    -0.507 OA
ATOM     44  H   UNL     1      15.819   2.682   2.690  0.00  0.00    +0.292 HD
ENDBRANCH  36   8
ENDBRANCH  29  31
ENDBRANCH  28  29
ENDBRANCH  10  28
ENDBRANCH  26  27
BRANCH  22   4
ATOM      4  O   UNL     1      11.037   8.586   3.752  0.00  0.00    -0.387 OA
ATOM     39  H   UNL     1      11.318   9.485   3.511  0.00  0.00    +0.210 HD
ENDBRANCH  22   4
BRANCH  23   5
ATOM      5  O   UNL     1       8.103   9.326   1.697  0.00  0.00    -0.389 OA
ATOM     40  H   UNL     1       8.010   9.896   0.915  0.00  0.00    +0.210 HD
ENDBRANCH  23   5
TORSDOF 14
ENDMDL
MODEL 5
REMARK VINA RESULT:      -6.4     23.751     27.953
REMARK  Name = 7134448
REMARK  14 active torsions:
REMARK  status: ('A' for Active; 'I' for Inactive)
REMARK    1  A    between atoms: O_2  and  C_20
REMARK    2  A    between atoms: O_4  and  C_22
REMARK    3  A    between atoms: O_5  and  C_23
REMARK    4  A    between atoms: O_8  and  C_36
REMARK    5  A    between atoms: N_9  and  C_21
REMARK    6  A    between atoms: N_10  and  C_28
REMARK    7  A    between atoms: C_12  and  C_17
REMARK    8  A    between atoms: C_12  and  C_18
REMARK    9  A    between atoms: C_17  and  C_19
REMARK   10  A    between atoms: C_18  and  C_20
REMARK   11  A    between atoms: C_26  and  C_27
REMARK   12  A    between atoms: C_28  and  C_29
REMARK   13  A    between atoms: C_28  and  C_30
REMARK   14  A    between atoms: C_29  and  C_31
REMARK                            x       y       z     vdW  Elec       q    Type
REMARK                         _______ _______ _______ _____ _____    ______ ____
ROOT
ATOM     21  C   UNL     1      -4.695 -11.233  15.085  0.00  0.00    +0.127 C 
ATOM     22  C   UNL     1      -3.569 -11.251  16.138  0.00  0.00    +0.167 C 
ATOM     23  C   UNL     1      -4.103 -11.626  17.525  0.00  0.00    +0.149 C 
ATOM     24  C   UNL     1      -5.949 -10.554  15.567  0.00  0.00    +0.006 C 
ATOM     25  C   UNL     1      -5.241 -10.694  17.978  0.00  0.00    +0.074 C 
ATOM     26  C   UNL     1      -6.177 -10.311  16.867  0.00  0.00    +0.015 C 
ENDROOT
BRANCH  21   9
ATOM      1  O   UNL     1      -3.679 -12.537  12.710  0.00  0.00    -0.276 OA
ATOM      9  N   UNL     1      -4.267 -10.603  13.859  0.00  0.00    -0.306 N 
ATOM     19  C   UNL     1      -3.790 -11.315  12.766  0.00  0.00    +0.214 C 
ATOM     37  H   UNL     1      -4.266  -9.588  13.825  0.00  0.00    +0.149 HD
BRANCH  19  17
ATOM     17  C   UNL     1      -3.418 -10.395  11.618  0.00  0.00    +0.103 C 
BRANCH  17  12
ATOM     12  C   UNL     1      -4.411 -10.471  10.457  0.00  0.00    -0.011 C 
ATOM     13  C   UNL     1      -4.279  -9.262   9.520  0.00  0.00    +0.008 C 
ATOM     14  C   UNL     1      -4.085 -11.634   9.510  0.00  0.00    +0.008 C 
ATOM     15  C   UNL     1      -4.851  -9.730   8.184  0.00  0.00    +0.001 C 
ATOM     16  C   UNL     1      -4.728 -11.253   8.178  0.00  0.00    +0.001 C 
BRANCH  12  18
ATOM     18  C   UNL     1      -5.837 -10.589  11.017  0.00  0.00    +0.127 C 
BRANCH  18  20
ATOM      3  O   UNL     1      -7.193  -8.674  10.354  0.00  0.00    -0.251 OA
ATOM     20  C   UNL     1      -6.478  -9.241  11.167  0.00  0.00    +0.305 C 
BRANCH  20   2
ATOM      2  O   UNL     1      -6.145  -8.716  12.375  0.00  0.00    -0.481 OA
ATOM     38  H   UNL     1      -6.219  -7.738  12.380  0.00  0.00    +0.295 HD
ENDBRANCH  20   2
ENDBRANCH  18  20
ENDBRANCH  12  18
ENDBRANCH  17  12
ENDBRANCH  19  17
ENDBRANCH  21   9
BRANCH  26  27
ATOM      6  O   UNL     1      -7.617  -8.458  16.962  0.00  0.00    -0.271 OA
ATOM     10  N   UNL     1      -8.332 -10.491  17.851  0.00  0.00    -0.300 N 
ATOM     27  C   UNL     1      -7.434  -9.647  17.221  0.00  0.00    +0.241 C 
ATOM     41  H   UNL     1      -8.047 -11.440  18.076  0.00  0.00    +0.150 HD
BRANCH  10  28
ATOM     28  C   UNL     1      -9.638 -10.063  18.297  0.00  0.00    +0.163 C 
BRANCH  28  30
ATOM      7  O   UNL     1      -9.902 -12.145  19.522  0.00  0.00    -0.274 OA
ATOM     11  N   UNL     1     -10.421 -10.173  20.581  0.00  0.00    -0.328 N 
ATOM     30  C   UNL     1     -10.005 -10.920  19.499  0.00  0.00    +0.231 C 
ATOM     42  H   UNL     1     -10.500  -9.161  20.549  0.00  0.00    +0.145 HD
ATOM     43  H   UNL     1     -10.681 -10.622  21.453  0.00  0.00    +0.145 HD
ENDBRANCH  28  30
BRANCH  28  29
ATOM     29  C   UNL     1     -10.699 -10.201  17.199  0.00  0.00    +0.067 C 
BRANCH  29  31
ATOM     31  C   UNL     1     -10.959  -8.903  16.472  0.00  0.00    -0.045 A 
ATOM     32  C   UNL     1     -10.844  -7.688  17.148  0.00  0.00    +0.007 A 
ATOM     33  C   UNL     1     -11.315  -8.920  15.123  0.00  0.00    +0.007 A 
ATOM     34  C   UNL     1     -11.084  -6.490  16.475  0.00  0.00    +0.045 A 
ATOM     35  C   UNL     1     -11.555  -7.722  14.450  0.00  0.00    +0.045 A 
ATOM     36  C   UNL     1     -11.440  -6.507  15.126  0.00  0.00    +0.117 A 
BRANCH  36   8
ATOM      8  O   UNL     1     -11.673  -5.339  14.469  0.00  0.00    -0.507 OA
ATOM     44  H   UNL     1     -10.882  -4.778  14.533  0.00  0.00    +0.292 HD
ENDBRANCH  36   8
ENDBRANCH  29  31
ENDBRANCH  28  29
ENDBRANCH  10  28
ENDBRANCH  26  27
BRANCH  22   4
ATOM      4  O   UNL     1      -2.961  -9.961  16.212  0.00  0.00    -0.387 OA
ATOM     39  H   UNL     1      -2.403  -9.946  17.008  0.00  0.00    +0.210 HD
ENDBRANCH  22   4
BRANCH  23   5
ATOM      5  O   UNL     1      -4.550 -12.980  17.531  0.00  0.00    -0.389 OA
ATOM     40  H   UNL     1      -5.463 -12.990  17.198  0.00  0.00    +0.210 HD
ENDBRANCH  23   5
TORSDOF 14
ENDMDL
MODEL 6
REMARK VINA RESULT:      -6.4     22.776     25.373
REMARK  Name = 7134448
REMARK  14 active torsions:
REMARK  status: ('A' for Active; 'I' for Inactive)
REMARK    1  A    between atoms: O_2  and  C_20
REMARK    2  A    between atoms: O_4  and  C_22
REMARK    3  A    between atoms: O_5  and  C_23
REMARK    4  A    between atoms: O_8  and  C_36
REMARK    5  A    between atoms: N_9  and  C_21
REMARK    6  A    between atoms: N_10  and  C_28
REMARK    7  A    between atoms: C_12  and  C_17
REMARK    8  A    between atoms: C_12  and  C_18
REMARK    9  A    between atoms: C_17  and  C_19
REMARK   10  A    between atoms: C_18  and  C_20
REMARK   11  A    between atoms: C_26  and  C_27
REMARK   12  A    between atoms: C_28  and  C_29
REMARK   13  A    between atoms: C_28  and  C_30
REMARK   14  A    between atoms: C_29  and  C_31
REMARK                            x       y       z     vdW  Elec       q    Type
REMARK                         _______ _______ _______ _____ _____    ______ ____
ROOT
ATOM     21  C   UNL     1      -4.534 -10.149  12.287  0.00  0.00    +0.127 C 
ATOM     22  C   UNL     1      -3.611 -10.919  11.323  0.00  0.00    +0.167 C 
ATOM     23  C   UNL     1      -3.402 -10.152  10.012  0.00  0.00    +0.149 C 
ATOM     24  C   UNL     1      -5.744  -9.562  11.611  0.00  0.00    +0.006 C 
ATOM     25  C   UNL     1      -4.734  -9.817   9.319  0.00  0.00    +0.074 C 
ATOM     26  C   UNL     1      -5.823  -9.427  10.278  0.00  0.00    +0.015 C 
ENDROOT
BRANCH  21   9
ATOM      1  O   UNL     1      -3.103 -10.705  14.740  0.00  0.00    -0.276 OA
ATOM      9  N   UNL     1      -4.971 -10.979  13.383  0.00  0.00    -0.306 N 
ATOM     19  C   UNL     1      -4.211 -11.189  14.527  0.00  0.00    +0.214 C 
ATOM     37  H   UNL     1      -5.853 -11.472  13.279  0.00  0.00    +0.149 HD
BRANCH  19  17
ATOM     17  C   UNL     1      -4.922 -12.101  15.510  0.00  0.00    +0.103 C 
BRANCH  17  12
ATOM     12  C   UNL     1      -5.263 -11.398  16.825  0.00  0.00    -0.011 C 
ATOM     13  C   UNL     1      -6.430 -12.085  17.548  0.00  0.00    +0.008 C 
ATOM     14  C   UNL     1      -4.133 -11.542  17.854  0.00  0.00    +0.008 C 
ATOM     15  C   UNL     1      -6.278 -11.689  19.014  0.00  0.00    +0.001 C 
ATOM     16  C   UNL     1      -4.803 -11.339  19.210  0.00  0.00    +0.001 C 
BRANCH  12  18
ATOM     18  C   UNL     1      -5.575  -9.920  16.541  0.00  0.00    +0.127 C 
BRANCH  18  20
ATOM      3  O   UNL     1      -7.513 -10.098  15.072  0.00  0.00    -0.251 OA
ATOM     20  C   UNL     1      -7.003  -9.734  16.122  0.00  0.00    +0.305 C 
BRANCH  20   2
ATOM      2  O   UNL     1      -7.680  -9.082  17.102  0.00  0.00    -0.481 OA
ATOM     38  H   UNL     1      -8.615  -8.919  16.855  0.00  0.00    +0.295 HD
ENDBRANCH  20   2
ENDBRANCH  18  20
ENDBRANCH  12  18
ENDBRANCH  17  12
ENDBRANCH  19  17
ENDBRANCH  21   9
BRANCH  26  27
ATOM      6  O   UNL     1      -8.088  -8.811  10.387  0.00  0.00    -0.271 OA
ATOM     10  N   UNL     1      -6.885  -8.351   8.444  0.00  0.00    -0.300 N 
ATOM     27  C   UNL     1      -7.049  -8.839   9.729  0.00  0.00    +0.241 C 
ATOM     41  H   UNL     1      -5.997  -8.490   7.970  0.00  0.00    +0.150 HD
BRANCH  10  28
ATOM     28  C   UNL     1      -7.953  -7.730   7.694  0.00  0.00    +0.163 C 
BRANCH  28  30
ATOM      7  O   UNL     1      -6.904  -8.865   5.819  0.00  0.00    -0.274 OA
ATOM     11  N   UNL     1      -8.463  -7.234   5.384  0.00  0.00    -0.328 N 
ATOM     30  C   UNL     1      -7.689  -8.009   6.222  0.00  0.00    +0.231 C 
ATOM     42  H   UNL     1      -9.110  -6.533   5.731  0.00  0.00    +0.145 HD
ATOM     43  H   UNL     1      -8.396  -7.332   4.376  0.00  0.00    +0.145 HD
ENDBRANCH  28  30
BRANCH  28  29
ATOM     29  C   UNL     1      -8.033  -6.220   7.944  0.00  0.00    +0.067 C 
BRANCH  29  31
ATOM     31  C   UNL     1      -9.368  -5.791   8.504  0.00  0.00    -0.045 A 
ATOM     32  C   UNL     1     -10.344  -6.745   8.791  0.00  0.00    +0.007 A 
ATOM     33  C   UNL     1      -9.625  -4.439   8.735  0.00  0.00    +0.007 A 
ATOM     34  C   UNL     1     -11.577  -6.347   9.308  0.00  0.00    +0.045 A 
ATOM     35  C   UNL     1     -10.858  -4.042   9.252  0.00  0.00    +0.045 A 
ATOM     36  C   UNL     1     -11.834  -4.995   9.539  0.00  0.00    +0.117 A 
BRANCH  36   8
ATOM      8  O   UNL     1     -13.036  -4.608  10.044  0.00  0.00    -0.507 OA
ATOM     44  H   UNL     1     -12.959  -3.699  10.380  0.00  0.00    +0.292 HD
ENDBRANCH  36   8
ENDBRANCH  29  31
ENDBRANCH  28  29
ENDBRANCH  10  28
ENDBRANCH  26  27
BRANCH  22   4
ATOM      4  O   UNL     1      -4.185 -12.193  11.024  0.00  0.00    -0.387 OA
ATOM     39  H   UNL     1      -4.068 -12.757  11.808  0.00  0.00    +0.210 HD
ENDBRANCH  22   4
BRANCH  23   5
ATOM      5  O   UNL     1      -2.663  -8.957  10.253  0.00  0.00    -0.389 OA
ATOM     40  H   UNL     1      -2.274  -8.675   9.408  0.00  0.00    +0.210 HD
ENDBRANCH  23   5
TORSDOF 14
ENDMDL
MODEL 7
REMARK VINA RESULT:      -6.4      1.965      4.022
REMARK  Name = 7134448
REMARK  14 active torsions:
REMARK  status: ('A' for Active; 'I' for Inactive)
REMARK    1  A    between atoms: O_2  and  C_20
REMARK    2  A    between atoms: O_4  and  C_22
REMARK    3  A    between atoms: O_5  and  C_23
REMARK    4  A    between atoms: O_8  and  C_36
REMARK    5  A    between atoms: N_9  and  C_21
REMARK    6  A    between atoms: N_10  and  C_28
REMARK    7  A    between atoms: C_12  and  C_17
REMARK    8  A    between atoms: C_12  and  C_18
REMARK    9  A    between atoms: C_17  and  C_19
REMARK   10  A    between atoms: C_18  and  C_20
REMARK   11  A    between atoms: C_26  and  C_27
REMARK   12  A    between atoms: C_28  and  C_29
REMARK   13  A    between atoms: C_28  and  C_30
REMARK   14  A    between atoms: C_29  and  C_31
REMARK                            x       y       z     vdW  Elec       q    Type
REMARK                         _______ _______ _______ _____ _____    ______ ____
ROOT
ATOM     21  C   UNL     1       9.475   7.079   2.085  0.00  0.00    +0.127 C 
ATOM     22  C   UNL     1       9.658   8.608   2.099  0.00  0.00    +0.167 C 
ATOM     23  C   UNL     1       9.522   9.204   0.693  0.00  0.00    +0.149 C 
ATOM     24  C   UNL     1      10.207   6.403   0.957  0.00  0.00    +0.006 C 
ATOM     25  C   UNL     1      10.500   8.560  -0.305  0.00  0.00    +0.074 C 
ATOM     26  C   UNL     1      10.668   7.081  -0.105  0.00  0.00    +0.015 C 
ENDROOT
BRANCH  21   9
ATOM      1  O   UNL     1       8.011   7.047   4.581  0.00  0.00    -0.276 OA
ATOM      9  N   UNL     1       9.888   6.481   3.332  0.00  0.00    -0.306 N 
ATOM     19  C   UNL     1       9.114   6.517   4.485  0.00  0.00    +0.214 C 
ATOM     37  H   UNL     1      10.814   6.066   3.372  0.00  0.00    +0.149 HD
BRANCH  19  17
ATOM     17  C   UNL     1       9.798   5.807   5.639  0.00  0.00    +0.103 C 
BRANCH  17  12
ATOM     12  C   UNL     1      10.081   6.739   6.819  0.00  0.00    -0.011 C 
ATOM     13  C   UNL     1      10.832   8.002   6.374  0.00  0.00    +0.008 C 
ATOM     14  C   UNL     1       8.787   7.333   7.393  0.00  0.00    +0.008 C 
ATOM     15  C   UNL     1      10.532   9.041   7.452  0.00  0.00    +0.001 C 
ATOM     16  C   UNL     1       9.220   8.611   8.107  0.00  0.00    +0.001 C 
BRANCH  12  18
ATOM     18  C   UNL     1      10.867   5.971   7.893  0.00  0.00    +0.127 C 
BRANCH  18  20
ATOM      3  O   UNL     1       9.176   5.170   9.455  0.00  0.00    -0.251 OA
ATOM     20  C   UNL     1      10.003   4.956   8.581  0.00  0.00    +0.305 C 
BRANCH  20   2
ATOM      2  O   UNL     1      10.274   3.722   8.084  0.00  0.00    -0.481 OA
ATOM     38  H   UNL     1      10.951   3.754   7.375  0.00  0.00    +0.295 HD
ENDBRANCH  20   2
ENDBRANCH  18  20
ENDBRANCH  12  18
ENDBRANCH  17  12
ENDBRANCH  19  17
ENDBRANCH  21   9
BRANCH  26  27
ATOM      6  O   UNL     1      12.364   6.770  -1.701  0.00  0.00    -0.271 OA
ATOM     10  N   UNL     1      10.773   5.093  -1.403  0.00  0.00    -0.300 N 
ATOM     27  C   UNL     1      11.364   6.318  -1.146  0.00  0.00    +0.241 C 
ATOM     41  H   UNL     1       9.906   4.852  -0.930  0.00  0.00    +0.150 HD
BRANCH  10  28
ATOM     28  C   UNL     1      11.277   4.166  -2.389  0.00  0.00    +0.163 C 
BRANCH  28  30
ATOM      7  O   UNL     1       9.520   4.553  -4.023  0.00  0.00    -0.274 OA
ATOM     11  N   UNL     1       9.797   2.430  -3.189  0.00  0.00    -0.328 N 
ATOM     30  C   UNL     1      10.105   3.772  -3.275  0.00  0.00    +0.231 C 
ATOM     42  H   UNL     1      10.290   1.795  -2.569  0.00  0.00    +0.145 HD
ATOM     43  H   UNL     1       9.043   2.033  -3.742  0.00  0.00    +0.145 HD
ENDBRANCH  28  30
BRANCH  28  29
ATOM     29  C   UNL     1      11.903   2.922  -1.749  0.00  0.00    +0.067 C 
BRANCH  29  31
ATOM     31  C   UNL     1      12.832   3.258  -0.608  0.00  0.00    -0.045 A 
ATOM     32  C   UNL     1      12.427   3.043   0.710  0.00  0.00    +0.007 A 
ATOM     33  C   UNL     1      14.098   3.782  -0.871  0.00  0.00    +0.007 A 
ATOM     34  C   UNL     1      13.286   3.354   1.763  0.00  0.00    +0.045 A 
ATOM     35  C   UNL     1      14.957   4.093   0.182  0.00  0.00    +0.045 A 
ATOM     36  C   UNL     1      14.552   3.879   1.500  0.00  0.00    +0.117 A 
BRANCH  36   8
ATOM      8  O   UNL     1      15.391   4.181   2.527  0.00  0.00    -0.507 OA
ATOM     44  H   UNL     1      16.302   3.968   2.263  0.00  0.00    +0.292 HD
ENDBRANCH  36   8
ENDBRANCH  29  31
ENDBRANCH  28  29
ENDBRANCH  10  28
ENDBRANCH  26  27
BRANCH  22   4
ATOM      4  O   UNL     1      10.952   8.932   2.613  0.00  0.00    -0.387 OA
ATOM     39  H   UNL     1      11.290   8.144   3.069  0.00  0.00    +0.210 HD
ENDBRANCH  22   4
BRANCH  23   5
ATOM      5  O   UNL     1       8.182   9.061   0.226  0.00  0.00    -0.389 OA
ATOM     40  H   UNL     1       7.606   8.975   1.005  0.00  0.00    +0.210 HD
ENDBRANCH  23   5
TORSDOF 14
ENDMDL
MODEL 8
REMARK VINA RESULT:      -6.3     23.310     26.105
REMARK  Name = 7134448
REMARK  14 active torsions:
REMARK  status: ('A' for Active; 'I' for Inactive)
REMARK    1  A    between atoms: O_2  and  C_20
REMARK    2  A    between atoms: O_4  and  C_22
REMARK    3  A    between atoms: O_5  and  C_23
REMARK    4  A    between atoms: O_8  and  C_36
REMARK    5  A    between atoms: N_9  and  C_21
REMARK    6  A    between atoms: N_10  and  C_28
REMARK    7  A    between atoms: C_12  and  C_17
REMARK    8  A    between atoms: C_12  and  C_18
REMARK    9  A    between atoms: C_17  and  C_19
REMARK   10  A    between atoms: C_18  and  C_20
REMARK   11  A    between atoms: C_26  and  C_27
REMARK   12  A    between atoms: C_28  and  C_29
REMARK   13  A    between atoms: C_28  and  C_30
REMARK   14  A    between atoms: C_29  and  C_31
REMARK                            x       y       z     vdW  Elec       q    Type
REMARK                         _______ _______ _______ _____ _____    ______ ____
ROOT
ATOM     21  C   UNL     1      -6.581 -10.482   9.329  0.00  0.00    +0.127 C 
ATOM     22  C   UNL     1      -5.327 -10.176   8.488  0.00  0.00    +0.167 C 
ATOM     23  C   UNL     1      -4.075 -10.830   9.086  0.00  0.00    +0.149 C 
ATOM     24  C   UNL     1      -6.352 -10.344  10.810  0.00  0.00    +0.006 C 
ATOM     25  C   UNL     1      -3.849 -10.413  10.550  0.00  0.00    +0.074 C 
ATOM     26  C   UNL     1      -5.120 -10.307  11.343  0.00  0.00    +0.015 C 
ENDROOT
BRANCH  21   9
ATOM      1  O   UNL     1      -8.499 -10.964   7.216  0.00  0.00    -0.276 OA
ATOM      9  N   UNL     1      -7.693  -9.643   8.951  0.00  0.00    -0.306 N 
ATOM     19  C   UNL     1      -8.565  -9.958   7.917  0.00  0.00    +0.214 C 
ATOM     37  H   UNL     1      -7.800  -8.756   9.434  0.00  0.00    +0.149 HD
BRANCH  19  17
ATOM     17  C   UNL     1      -9.638  -8.898   7.748  0.00  0.00    +0.103 C 
BRANCH  17  12
ATOM     12  C   UNL     1      -9.503  -8.128   6.433  0.00  0.00    -0.011 C 
ATOM     13  C   UNL     1      -9.482  -9.074   5.224  0.00  0.00    +0.008 C 
ATOM     14  C   UNL     1     -10.749  -7.281   6.142  0.00  0.00    +0.008 C 
ATOM     15  C   UNL     1      -9.926  -8.216   4.041  0.00  0.00    +0.001 C 
ATOM     16  C   UNL     1     -10.739  -7.065   4.631  0.00  0.00    +0.001 C 
BRANCH  12  18
ATOM     18  C   UNL     1      -8.236  -7.258   6.483  0.00  0.00    +0.127 C 
BRANCH  18  20
ATOM      3  O   UNL     1      -9.009  -5.616   8.111  0.00  0.00    -0.251 OA
ATOM     20  C   UNL     1      -8.186  -6.439   7.739  0.00  0.00    +0.305 C 
BRANCH  20   2
ATOM      2  O   UNL     1      -7.061  -6.748   8.434  0.00  0.00    -0.481 OA
ATOM     38  H   UNL     1      -6.264  -6.737   7.861  0.00  0.00    +0.295 HD
ENDBRANCH  20   2
ENDBRANCH  18  20
ENDBRANCH  12  18
ENDBRANCH  17  12
ENDBRANCH  19  17
ENDBRANCH  21   9
BRANCH  26  27
ATOM      6  O   UNL     1      -5.895  -9.607  13.447  0.00  0.00    -0.271 OA
ATOM     10  N   UNL     1      -3.862 -10.739  13.312  0.00  0.00    -0.300 N 
ATOM     27  C   UNL     1      -5.017 -10.174  12.799  0.00  0.00    +0.241 C 
ATOM     41  H   UNL     1      -3.171 -11.122  12.673  0.00  0.00    +0.150 HD
BRANCH  10  28
ATOM     28  C   UNL     1      -3.538 -10.730  14.720  0.00  0.00    +0.163 C 
BRANCH  28  30
ATOM      7  O   UNL     1      -1.285  -9.857  14.979  0.00  0.00    -0.274 OA
ATOM     11  N   UNL     1      -1.568 -12.129  14.800  0.00  0.00    -0.328 N 
ATOM     30  C   UNL     1      -2.023 -10.828  14.832  0.00  0.00    +0.231 C 
ATOM     42  H   UNL     1      -2.190 -12.923  14.680  0.00  0.00    +0.145 HD
ATOM     43  H   UNL     1      -0.578 -12.336  14.881  0.00  0.00    +0.145 HD
ENDBRANCH  28  30
BRANCH  28  29
ATOM     29  C   UNL     1      -4.204 -11.885  15.476  0.00  0.00    +0.067 C 
BRANCH  29  31
ATOM     31  C   UNL     1      -4.871 -11.439  16.754  0.00  0.00    -0.045 A 
ATOM     32  C   UNL     1      -6.034 -10.670  16.704  0.00  0.00    +0.007 A 
ATOM     33  C   UNL     1      -4.323 -11.795  17.987  0.00  0.00    +0.007 A 
ATOM     34  C   UNL     1      -6.650 -10.259  17.886  0.00  0.00    +0.045 A 
ATOM     35  C   UNL     1      -4.939 -11.384  19.169  0.00  0.00    +0.045 A 
ATOM     36  C   UNL     1      -6.102 -10.615  19.119  0.00  0.00    +0.117 A 
BRANCH  36   8
ATOM      8  O   UNL     1      -6.703 -10.214  20.271  0.00  0.00    -0.507 OA
ATOM     44  H   UNL     1      -6.830 -10.988  20.846  0.00  0.00    +0.292 HD
ENDBRANCH  36   8
ENDBRANCH  29  31
ENDBRANCH  28  29
ENDBRANCH  10  28
ENDBRANCH  26  27
BRANCH  22   4
ATOM      4  O   UNL     1      -5.123  -8.763   8.426  0.00  0.00    -0.387 OA
ATOM     39  H   UNL     1      -4.322  -8.561   8.938  0.00  0.00    +0.210 HD
ENDBRANCH  22   4
BRANCH  23   5
ATOM      5  O   UNL     1      -4.170 -12.250   8.991  0.00  0.00    -0.389 OA
ATOM     40  H   UNL     1      -4.863 -12.540   9.607  0.00  0.00    +0.210 HD
ENDBRANCH  23   5
TORSDOF 14
ENDMDL
MODEL 9
REMARK VINA RESULT:      -6.3     22.794     25.433
REMARK  Name = 7134448
REMARK  14 active torsions:
REMARK  status: ('A' for Active; 'I' for Inactive)
REMARK    1  A    between atoms: O_2  and  C_20
REMARK    2  A    between atoms: O_4  and  C_22
REMARK    3  A    between atoms: O_5  and  C_23
REMARK    4  A    between atoms: O_8  and  C_36
REMARK    5  A    between atoms: N_9  and  C_21
REMARK    6  A    between atoms: N_10  and  C_28
REMARK    7  A    between atoms: C_12  and  C_17
REMARK    8  A    between atoms: C_12  and  C_18
REMARK    9  A    between atoms: C_17  and  C_19
REMARK   10  A    between atoms: C_18  and  C_20
REMARK   11  A    between atoms: C_26  and  C_27
REMARK   12  A    between atoms: C_28  and  C_29
REMARK   13  A    between atoms: C_28  and  C_30
REMARK   14  A    between atoms: C_29  and  C_31
REMARK                            x       y       z     vdW  Elec       q    Type
REMARK                         _______ _______ _______ _____ _____    ______ ____
ROOT
ATOM     21  C   UNL     1      -4.548 -10.084  12.286  0.00  0.00    +0.127 C 
ATOM     22  C   UNL     1      -3.674 -10.916  11.328  0.00  0.00    +0.167 C 
ATOM     23  C   UNL     1      -3.495 -10.213   9.977  0.00  0.00    +0.149 C 
ATOM     24  C   UNL     1      -5.769  -9.504  11.624  0.00  0.00    +0.006 C 
ATOM     25  C   UNL     1      -4.844  -9.882   9.314  0.00  0.00    +0.074 C 
ATOM     26  C   UNL     1      -5.892  -9.427  10.290  0.00  0.00    +0.015 C 
ENDROOT
BRANCH  21   9
ATOM      1  O   UNL     1      -3.079 -10.492  14.746  0.00  0.00    -0.276 OA
ATOM      9  N   UNL     1      -4.963 -10.855  13.433  0.00  0.00    -0.306 N 
ATOM     19  C   UNL     1      -4.186 -10.995  14.576  0.00  0.00    +0.214 C 
ATOM     37  H   UNL     1      -5.842 -11.360  13.369  0.00  0.00    +0.149 HD
BRANCH  19  17
ATOM     17  C   UNL     1      -4.875 -11.856  15.618  0.00  0.00    +0.103 C 
BRANCH  17  12
ATOM     12  C   UNL     1      -5.667 -11.031  16.634  0.00  0.00    -0.011 C 
ATOM     13  C   UNL     1      -6.167  -9.713  16.026  0.00  0.00    +0.008 C 
ATOM     14  C   UNL     1      -6.986 -11.716  17.016  0.00  0.00    +0.008 C 
ATOM     15  C   UNL     1      -7.360  -9.306  16.886  0.00  0.00    +0.001 C 
ATOM     16  C   UNL     1      -7.886 -10.592  17.523  0.00  0.00    +0.001 C 
BRANCH  12  18
ATOM     18  C   UNL     1      -4.791 -10.777  17.872  0.00  0.00    +0.127 C 
BRANCH  18  20
ATOM      3  O   UNL     1      -4.476 -13.055  18.681  0.00  0.00    -0.251 OA
ATOM     20  C   UNL     1      -4.881 -11.914  18.846  0.00  0.00    +0.305 C 
BRANCH  20   2
ATOM      2  O   UNL     1      -5.496 -11.488  19.980  0.00  0.00    -0.481 OA
ATOM     38  H   UNL     1      -6.470 -11.596  19.929  0.00  0.00    +0.295 HD
ENDBRANCH  20   2
ENDBRANCH  18  20
ENDBRANCH  12  18
ENDBRANCH  17  12
ENDBRANCH  19  17
ENDBRANCH  21   9
BRANCH  26  27
ATOM      6  O   UNL     1      -8.173  -8.878  10.397  0.00  0.00    -0.271 OA
ATOM     10  N   UNL     1      -6.954  -8.271   8.505  0.00  0.00    -0.300 N 
ATOM     27  C   UNL     1      -7.124  -8.839   9.756  0.00  0.00    +0.241 C 
ATOM     41  H   UNL     1      -6.055  -8.358   8.039  0.00  0.00    +0.150 HD
BRANCH  10  28
ATOM     28  C   UNL     1      -8.025  -7.634   7.776  0.00  0.00    +0.163 C 
BRANCH  28  30
ATOM      7  O   UNL     1      -8.463  -7.415   5.395  0.00  0.00    -0.274 OA
ATOM     11  N   UNL     1      -6.661  -8.670   6.071  0.00  0.00    -0.328 N 
ATOM     30  C   UNL     1      -7.775  -7.888   6.297  0.00  0.00    +0.231 C 
ATOM     42  H   UNL     1      -6.100  -9.053   6.825  0.00  0.00    +0.145 HD
ATOM     43  H   UNL     1      -6.372  -8.903   5.126  0.00  0.00    +0.145 HD
ENDBRANCH  28  30
BRANCH  28  29
ATOM     29  C   UNL     1      -8.099  -6.128   8.053  0.00  0.00    +0.067 C 
BRANCH  29  31
ATOM     31  C   UNL     1      -9.497  -5.663   8.385  0.00  0.00    -0.045 A 
ATOM     32  C   UNL     1      -9.717  -4.347   8.791  0.00  0.00    +0.007 A 
ATOM     33  C   UNL     1     -10.568  -6.552   8.286  0.00  0.00    +0.007 A 
ATOM     34  C   UNL     1     -11.009  -3.919   9.098  0.00  0.00    +0.045 A 
ATOM     35  C   UNL     1     -11.860  -6.124   8.593  0.00  0.00    +0.045 A 
ATOM     36  C   UNL     1     -12.080  -4.807   8.999  0.00  0.00    +0.117 A 
BRANCH  36   8
ATOM      8  O   UNL     1     -13.340  -4.390   9.298  0.00  0.00    -0.507 OA
ATOM     44  H   UNL     1     -13.413  -4.272  10.260  0.00  0.00    +0.292 HD
ENDBRANCH  36   8
ENDBRANCH  29  31
ENDBRANCH  28  29
ENDBRANCH  10  28
ENDBRANCH  26  27
BRANCH  22   4
ATOM      4  O   UNL     1      -4.282 -12.190  11.107  0.00  0.00    -0.387 OA
ATOM     39  H   UNL     1      -4.408 -12.291  10.148  0.00  0.00    +0.210 HD
ENDBRANCH  22   4
BRANCH  23   5
ATOM      5  O   UNL     1      -2.725  -9.024  10.139  0.00  0.00    -0.389 OA
ATOM     40  H   UNL     1      -1.814  -9.224   9.865  0.00  0.00    +0.210 HD
ENDBRANCH  23   5
TORSDOF 14
ENDMDL
MODEL 10
REMARK VINA RESULT:      -6.3     23.125     27.143
REMARK  Name = 7134448
REMARK  14 active torsions:
REMARK  status: ('A' for Active; 'I' for Inactive)
REMARK    1  A    between atoms: O_2  and  C_20
REMARK    2  A    between atoms: O_4  and  C_22
REMARK    3  A    between atoms: O_5  and  C_23
REMARK    4  A    between atoms: O_8  and  C_36
REMARK    5  A    between atoms: N_9  and  C_21
REMARK    6  A    between atoms: N_10  and  C_28
REMARK    7  A    between atoms: C_12  and  C_17
REMARK    8  A    between atoms: C_12  and  C_18
REMARK    9  A    between atoms: C_17  and  C_19
REMARK   10  A    between atoms: C_18  and  C_20
REMARK   11  A    between atoms: C_26  and  C_27
REMARK   12  A    between atoms: C_28  and  C_29
REMARK   13  A    between atoms: C_28  and  C_30
REMARK   14  A    between atoms: C_29  and  C_31
REMARK                            x       y       z     vdW  Elec       q    Type
REMARK                         _______ _______ _______ _____ _____    ______ ____
ROOT
ATOM     21  C   UNL     1      -3.787 -11.208  13.086  0.00  0.00    +0.127 C 
ATOM     22  C   UNL     1      -2.328 -11.248  13.578  0.00  0.00    +0.167 C 
ATOM     23  C   UNL     1      -2.227 -11.834  14.992  0.00  0.00    +0.149 C 
ATOM     24  C   UNL     1      -4.753 -10.711  14.128  0.00  0.00    +0.006 C 
ATOM     25  C   UNL     1      -3.108 -11.073  15.998  0.00  0.00    +0.074 C 
ATOM     26  C   UNL     1      -4.432 -10.648  15.429  0.00  0.00    +0.015 C 
ENDROOT
BRANCH  21   9
ATOM      1  O   UNL     1      -3.351 -12.030  10.346  0.00  0.00    -0.276 OA
ATOM      9  N   UNL     1      -3.927 -10.399  11.899  0.00  0.00    -0.306 N 
ATOM     19  C   UNL     1      -3.694 -10.883  10.618  0.00  0.00    +0.214 C 
ATOM     37  H   UNL     1      -4.152  -9.416  12.022  0.00  0.00    +0.149 HD
BRANCH  19  17
ATOM     17  C   UNL     1      -3.921  -9.813   9.566  0.00  0.00    +0.103 C 
BRANCH  17  12
ATOM     12  C   UNL     1      -5.298  -9.917   8.908  0.00  0.00    -0.011 C 
ATOM     13  C   UNL     1      -5.185 -10.161   7.396  0.00  0.00    +0.008 C 
ATOM     14  C   UNL     1      -6.052 -11.172   9.368  0.00  0.00    +0.008 C 
ATOM     15  C   UNL     1      -6.511 -10.804   6.998  0.00  0.00    +0.001 C 
ATOM     16  C   UNL     1      -7.068 -11.453   8.264  0.00  0.00    +0.001 C 
BRANCH  12  18
ATOM     18  C   UNL     1      -6.101  -8.642   9.209  0.00  0.00    +0.127 C 
BRANCH  18  20
ATOM      3  O   UNL     1      -6.359  -8.778  11.630  0.00  0.00    -0.251 OA
ATOM     20  C   UNL     1      -6.843  -8.758  10.508  0.00  0.00    +0.305 C 
BRANCH  20   2
ATOM      2  O   UNL     1      -8.175  -8.840  10.259  0.00  0.00    -0.481 OA
ATOM     38  H   UNL     1      -8.372  -9.462   9.526  0.00  0.00    +0.295 HD
ENDBRANCH  20   2
ENDBRANCH  18  20
ENDBRANCH  12  18
ENDBRANCH  17  12
ENDBRANCH  19  17
ENDBRANCH  21   9
BRANCH  26  27
ATOM      6  O   UNL     1      -5.723  -8.952  16.416  0.00  0.00    -0.271 OA
ATOM     10  N   UNL     1      -6.036 -11.156  17.108  0.00  0.00    -0.300 N 
ATOM     27  C   UNL     1      -5.454 -10.151  16.355  0.00  0.00    +0.241 C 
ATOM     41  H   UNL     1      -5.685 -12.106  17.022  0.00  0.00    +0.150 HD
BRANCH  10  28
ATOM     28  C   UNL     1      -7.066 -10.910  18.090  0.00  0.00    +0.163 C 
BRANCH  28  30
ATOM      7  O   UNL     1      -6.417 -11.448  20.369  0.00  0.00    -0.274 OA
ATOM     11  N   UNL     1      -7.066 -13.158  18.979  0.00  0.00    -0.328 N 
ATOM     30  C   UNL     1      -6.795 -11.837  19.266  0.00  0.00    +0.231 C 
ATOM     42  H   UNL     1      -7.380 -13.465  18.063  0.00  0.00    +0.145 HD
ATOM     43  H   UNL     1      -6.942 -13.879  19.682  0.00  0.00    +0.145 HD
ENDBRANCH  28  30
BRANCH  28  29
ATOM     29  C   UNL     1      -8.472 -11.157  17.530  0.00  0.00    +0.067 C 
BRANCH  29  31
ATOM     31  C   UNL     1      -9.084  -9.918  16.923  0.00  0.00    -0.045 A 
ATOM     32  C   UNL     1      -9.611  -8.923  17.746  0.00  0.00    +0.007 A 
ATOM     33  C   UNL     1      -9.123  -9.768  15.536  0.00  0.00    +0.007 A 
ATOM     34  C   UNL     1     -10.176  -7.779  17.184  0.00  0.00    +0.045 A 
ATOM     35  C   UNL     1      -9.688  -8.624  14.974  0.00  0.00    +0.045 A 
ATOM     36  C   UNL     1     -10.215  -7.629  15.797  0.00  0.00    +0.117 A 
BRANCH  36   8
ATOM      8  O   UNL     1     -10.766  -6.513  15.249  0.00  0.00    -0.507 OA
ATOM     44  H   UNL     1     -10.451  -5.733  15.737  0.00  0.00    +0.292 HD
ENDBRANCH  36   8
ENDBRANCH  29  31
ENDBRANCH  28  29
ENDBRANCH  10  28
ENDBRANCH  26  27
BRANCH  22   4
ATOM      4  O   UNL     1      -1.789  -9.924  13.590  0.00  0.00    -0.387 OA
ATOM     39  H   UNL     1      -2.210  -9.444  14.323  0.00  0.00    +0.210 HD
ENDBRANCH  22   4
BRANCH  23   5
ATOM      5  O   UNL     1      -2.583 -13.215  14.977  0.00  0.00    -0.389 OA
ATOM     40  H   UNL     1      -2.248 -13.596  14.148  0.00  0.00    +0.210 HD
ENDBRANCH  23   5
TORSDOF 14
ENDMDL
