MODEL 1
REMARK VINA RESULT:      -7.4      0.000      0.000
REMARK  Name = 51136659
REMARK  10 active torsions:
REMARK  status: ('A' for Active; 'I' for Inactive)
REMARK    1  A    between atoms: O_2  and  C_16
REMARK    2  A    between atoms: O_4  and  C_26
REMARK    3  A    between atoms: O_4  and  C_33
REMARK    4  A    between atoms: C_7  and  C_12
REMARK    5  A    between atoms: C_8  and  C_13
REMARK    6  A    between atoms: C_12  and  C_14
REMARK    7  A    between atoms: C_13  and  C_16
REMARK    8  A    between atoms: C_15  and  C_18
REMARK    9  A    between atoms: C_18  and  C_22
REMARK   10  A    between atoms: C_22  and  C_27
REMARK                            x       y       z     vdW  Elec       q    Type
REMARK                         _______ _______ _______ _____ _____    ______ ____
ROOT
ATOM      1  O   UNL     1      16.101  12.549  21.132  0.00  0.00    -0.276 OA
ATOM      5  N   UNL     1      14.554  11.772  22.682  0.00  0.00    -0.301 N 
ATOM      7  C   UNL     1      12.258  11.062  23.308  0.00  0.00    +0.016 C 
ATOM      8  C   UNL     1      12.067  12.429  24.013  0.00  0.00    +0.006 C 
ATOM      9  C   UNL     1      12.963  13.515  23.393  0.00  0.00    +0.023 C 
ATOM     10  C   UNL     1      13.752  10.695  23.275  0.00  0.00    +0.112 C 
ATOM     11  C   UNL     1      14.421  13.070  23.345  0.00  0.00    +0.108 C 
ATOM     15  C   UNL     1      15.417  11.633  21.596  0.00  0.00    +0.216 C 
ENDROOT
BRANCH   7  12
ATOM     12  C   UNL     1      11.663  11.001  21.895  0.00  0.00    +0.061 C 
BRANCH  12  14
ATOM      6  N   UNL     1      10.805   8.795  22.307  0.00  0.00    -0.287 NA
ATOM     14  C   UNL     1      11.450   9.562  21.491  0.00  0.00    +0.044 C 
ATOM     17  C   UNL     1      11.994   9.098  20.189  0.00  0.00    -0.001 A 
ATOM     19  C   UNL     1      12.125   7.714  20.019  0.00  0.00    -0.033 A 
ATOM     20  C   UNL     1      11.730   6.807  21.146  0.00  0.00    +0.059 C 
ATOM     21  C   UNL     1      10.546   7.415  21.887  0.00  0.00    +0.146 C 
ATOM     23  C   UNL     1      12.376   9.976  19.173  0.00  0.00    +0.013 A 
ATOM     24  C   UNL     1      12.668   7.213  18.831  0.00  0.00    +0.050 A 
ATOM     25  C   UNL     1      12.903   9.467  17.986  0.00  0.00    +0.046 A 
ATOM     26  C   UNL     1      13.051   8.089  17.815  0.00  0.00    +0.120 A 
BRANCH  26   4
ATOM      4  O   UNL     1      13.573   7.601  16.657  0.00  0.00    -0.495 OA
ATOM     33  C   UNL     1      14.145   8.546  15.754  0.00  0.00    +0.277 C 
ENDBRANCH  26   4
ENDBRANCH  12  14
ENDBRANCH   7  12
BRANCH   8  13
ATOM     13  C   UNL     1      10.609  12.889  24.048  0.00  0.00    +0.124 C 
BRANCH  13  16
ATOM      3  O   UNL     1      10.160  15.162  24.804  0.00  0.00    -0.251 OA
ATOM     16  C   UNL     1      10.398  13.990  25.051  0.00  0.00    +0.305 C 
BRANCH  16   2
ATOM      2  O   UNL     1      10.512  13.491  26.309  0.00  0.00    -0.481 OA
ATOM     34  H   UNL     1      11.450  13.395  26.580  0.00  0.00    +0.295 HD
ENDBRANCH  16   2
ENDBRANCH  13  16
ENDBRANCH   8  13
BRANCH  15  18
ATOM     18  C   UNL     1      15.495  10.265  20.965  0.00  0.00    +0.100 C 
BRANCH  18  22
ATOM     22  C   UNL     1      16.678   9.487  21.521  0.00  0.00    +0.044 C 
BRANCH  22  27
ATOM     27  C   UNL     1      16.958   8.209  20.768  0.00  0.00    -0.047 A 
ATOM     28  C   UNL     1      18.174   7.549  20.941  0.00  0.00    +0.003 A 
ATOM     29  C   UNL     1      15.998   7.687  19.900  0.00  0.00    +0.003 A 
ATOM     30  C   UNL     1      18.433   6.368  20.246  0.00  0.00    +0.000 A 
ATOM     31  C   UNL     1      16.257   6.505  19.205  0.00  0.00    +0.000 A 
ATOM     32  C   UNL     1      17.474   5.845  19.378  0.00  0.00    +0.000 A 
ENDBRANCH  22  27
ENDBRANCH  18  22
ENDBRANCH  15  18
TORSDOF 9
ENDMDL
MODEL 2
REMARK VINA RESULT:      -6.8      3.876      7.301
REMARK  Name = 51136659
REMARK  10 active torsions:
REMARK  status: ('A' for Active; 'I' for Inactive)
REMARK    1  A    between atoms: O_2  and  C_16
REMARK    2  A    between atoms: O_4  and  C_26
REMARK    3  A    between atoms: O_4  and  C_33
REMARK    4  A    between atoms: C_7  and  C_12
REMARK    5  A    between atoms: C_8  and  C_13
REMARK    6  A    between atoms: C_12  and  C_14
REMARK    7  A    between atoms: C_13  and  C_16
REMARK    8  A    between atoms: C_15  and  C_18
REMARK    9  A    between atoms: C_18  and  C_22
REMARK   10  A    between atoms: C_22  and  C_27
REMARK                            x       y       z     vdW  Elec       q    Type
REMARK                         _______ _______ _______ _____ _____    ______ ____
ROOT
ATOM      1  O   UNL     1      13.057   8.818  15.004  0.00  0.00    -0.276 OA
ATOM      5  N   UNL     1      12.912   9.309  17.271  0.00  0.00    -0.301 N 
ATOM      7  C   UNL     1      13.698   9.059  19.614  0.00  0.00    +0.016 C 
ATOM      8  C   UNL     1      12.488   8.127  19.881  0.00  0.00    +0.006 C 
ATOM      9  C   UNL     1      12.014   7.432  18.593  0.00  0.00    +0.023 C 
ATOM     10  C   UNL     1      13.366  10.029  18.466  0.00  0.00    +0.112 C 
ATOM     11  C   UNL     1      11.750   8.444  17.483  0.00  0.00    +0.108 C 
ATOM     15  C   UNL     1      13.475   9.416  16.000  0.00  0.00    +0.216 C 
ENDROOT
BRANCH   7  12
ATOM     12  C   UNL     1      15.006   8.313  19.319  0.00  0.00    +0.061 C 
BRANCH  12  14
ATOM      6  N   UNL     1      15.852   9.767  21.034  0.00  0.00    -0.287 NA
ATOM     14  C   UNL     1      16.056   8.702  20.331  0.00  0.00    +0.044 C 
ATOM     17  C   UNL     1      17.269   7.854  20.465  0.00  0.00    -0.001 A 
ATOM     19  C   UNL     1      18.373   8.430  21.105  0.00  0.00    -0.033 A 
ATOM     20  C   UNL     1      18.269   9.845  21.591  0.00  0.00    +0.059 C 
ATOM     21  C   UNL     1      16.843  10.111  22.058  0.00  0.00    +0.146 C 
ATOM     23  C   UNL     1      17.335   6.549  19.974  0.00  0.00    +0.013 A 
ATOM     24  C   UNL     1      19.559   7.699  21.228  0.00  0.00    +0.050 A 
ATOM     25  C   UNL     1      18.518   5.821  20.115  0.00  0.00    +0.046 A 
ATOM     26  C   UNL     1      19.627   6.394  20.737  0.00  0.00    +0.120 A 
BRANCH  26   4
ATOM      4  O   UNL     1      20.779   5.680  20.864  0.00  0.00    -0.495 OA
ATOM     33  C   UNL     1      21.989   6.324  20.469  0.00  0.00    +0.277 C 
ENDBRANCH  26   4
ENDBRANCH  12  14
ENDBRANCH   7  12
BRANCH   8  13
ATOM     13  C   UNL     1      12.753   7.099  20.982  0.00  0.00    +0.124 C 
BRANCH  13  16
ATOM      3  O   UNL     1      10.452   7.088  21.784  0.00  0.00    -0.251 OA
ATOM     16  C   UNL     1      11.476   6.491  21.492  0.00  0.00    +0.305 C 
BRANCH  16   2
ATOM      2  O   UNL     1      11.618   5.143  21.588  0.00  0.00    -0.481 OA
ATOM     34  H   UNL     1      12.074   4.882  22.416  0.00  0.00    +0.295 HD
ENDBRANCH  16   2
ENDBRANCH  13  16
ENDBRANCH   8  13
BRANCH  15  18
ATOM     18  C   UNL     1      14.671  10.323  15.864  0.00  0.00    +0.100 C 
BRANCH  18  22
ATOM     22  C   UNL     1      14.380  11.449  14.884  0.00  0.00    +0.044 C 
BRANCH  22  27
ATOM     27  C   UNL     1      15.572  11.829  14.040  0.00  0.00    -0.047 A 
ATOM     28  C   UNL     1      16.848  11.847  14.603  0.00  0.00    +0.003 A 
ATOM     29  C   UNL     1      15.398  12.160  12.696  0.00  0.00    +0.003 A 
ATOM     30  C   UNL     1      17.950  12.197  13.823  0.00  0.00    +0.000 A 
ATOM     31  C   UNL     1      16.500  12.511  11.916  0.00  0.00    +0.000 A 
ATOM     32  C   UNL     1      17.776  12.529  12.479  0.00  0.00    +0.000 A 
ENDBRANCH  22  27
ENDBRANCH  18  22
ENDBRANCH  15  18
TORSDOF 9
ENDMDL
MODEL 3
REMARK VINA RESULT:      -6.6     26.691     29.523
REMARK  Name = 51136659
REMARK  10 active torsions:
REMARK  status: ('A' for Active; 'I' for Inactive)
REMARK    1  A    between atoms: O_2  and  C_16
REMARK    2  A    between atoms: O_4  and  C_26
REMARK    3  A    between atoms: O_4  and  C_33
REMARK    4  A    between atoms: C_7  and  C_12
REMARK    5  A    between atoms: C_8  and  C_13
REMARK    6  A    between atoms: C_12  and  C_14
REMARK    7  A    between atoms: C_13  and  C_16
REMARK    8  A    between atoms: C_15  and  C_18
REMARK    9  A    between atoms: C_18  and  C_22
REMARK   10  A    between atoms: C_22  and  C_27
REMARK                            x       y       z     vdW  Elec       q    Type
REMARK                         _______ _______ _______ _____ _____    ______ ____
ROOT
ATOM      1  O   UNL     1      -1.082  -9.547  14.469  0.00  0.00    -0.276 OA
ATOM      5  N   UNL     1      -2.738 -11.088  14.999  0.00  0.00    -0.301 N 
ATOM      7  C   UNL     1      -5.100 -11.856  14.961  0.00  0.00    +0.016 C 
ATOM      8  C   UNL     1      -5.226 -11.421  16.443  0.00  0.00    +0.006 C 
ATOM      9  C   UNL     1      -4.235 -10.297  16.789  0.00  0.00    +0.023 C 
ATOM     10  C   UNL     1      -3.634 -12.194  14.639  0.00  0.00    +0.112 C 
ATOM     11  C   UNL     1      -2.810 -10.675  16.401  0.00  0.00    +0.108 C 
ATOM     15  C   UNL     1      -1.844 -10.457  14.134  0.00  0.00    +0.216 C 
ENDROOT
BRANCH   7  12
ATOM     12  C   UNL     1      -5.641 -10.825  13.961  0.00  0.00    +0.061 C 
BRANCH  12  14
ATOM      6  N   UNL     1      -7.066 -12.658  13.344  0.00  0.00    -0.287 NA
ATOM     14  C   UNL     1      -6.624 -11.486  13.026  0.00  0.00    +0.044 C 
ATOM     17  C   UNL     1      -7.027 -10.768  11.788  0.00  0.00    -0.001 A 
ATOM     19  C   UNL     1      -7.611 -11.538  10.775  0.00  0.00    -0.033 A 
ATOM     20  C   UNL     1      -7.776 -13.013  10.993  0.00  0.00    +0.059 C 
ATOM     21  C   UNL     1      -8.066 -13.274  12.466  0.00  0.00    +0.146 C 
ATOM     23  C   UNL     1      -6.832  -9.397  11.613  0.00  0.00    +0.013 A 
ATOM     24  C   UNL     1      -7.977 -10.930   9.570  0.00  0.00    +0.050 A 
ATOM     25  C   UNL     1      -7.213  -8.797  10.413  0.00  0.00    +0.046 A 
ATOM     26  C   UNL     1      -7.782  -9.560   9.393  0.00  0.00    +0.120 A 
BRANCH  26   4
ATOM      4  O   UNL     1      -8.144  -8.967   8.223  0.00  0.00    -0.495 OA
ATOM     33  C   UNL     1      -7.947  -7.558   8.121  0.00  0.00    +0.277 C 
ENDBRANCH  26   4
ENDBRANCH  12  14
ENDBRANCH   7  12
BRANCH   8  13
ATOM     13  C   UNL     1      -6.650 -11.024  16.834  0.00  0.00    +0.124 C 
BRANCH  13  16
ATOM      3  O   UNL     1      -6.287 -11.345  19.222  0.00  0.00    -0.251 OA
ATOM     16  C   UNL     1      -6.753 -10.697  18.298  0.00  0.00    +0.305 C 
BRANCH  16   2
ATOM      2  O   UNL     1      -7.457  -9.547  18.462  0.00  0.00    -0.481 OA
ATOM     34  H   UNL     1      -8.091  -9.610  19.208  0.00  0.00    +0.295 HD
ENDBRANCH  16   2
ENDBRANCH  13  16
ENDBRANCH   8  13
BRANCH  15  18
ATOM     18  C   UNL     1      -1.833 -10.938  12.705  0.00  0.00    +0.100 C 
BRANCH  18  22
ATOM     22  C   UNL     1      -2.629  -9.994  11.817  0.00  0.00    +0.044 C 
BRANCH  22  27
ATOM     27  C   UNL     1      -3.344 -10.696  10.689  0.00  0.00    -0.047 A 
ATOM     28  C   UNL     1      -3.554 -12.074  10.747  0.00  0.00    +0.003 A 
ATOM     29  C   UNL     1      -3.797  -9.968   9.589  0.00  0.00    +0.003 A 
ATOM     30  C   UNL     1      -4.215 -12.724   9.704  0.00  0.00    +0.000 A 
ATOM     31  C   UNL     1      -4.457 -10.618   8.546  0.00  0.00    +0.000 A 
ATOM     32  C   UNL     1      -4.667 -11.995   8.603  0.00  0.00    +0.000 A 
ENDBRANCH  22  27
ENDBRANCH  18  22
ENDBRANCH  15  18
TORSDOF 9
ENDMDL
MODEL 4
REMARK VINA RESULT:      -6.5     13.890     16.524
REMARK  Name = 51136659
REMARK  10 active torsions:
REMARK  status: ('A' for Active; 'I' for Inactive)
REMARK    1  A    between atoms: O_2  and  C_16
REMARK    2  A    between atoms: O_4  and  C_26
REMARK    3  A    between atoms: O_4  and  C_33
REMARK    4  A    between atoms: C_7  and  C_12
REMARK    5  A    between atoms: C_8  and  C_13
REMARK    6  A    between atoms: C_12  and  C_14
REMARK    7  A    between atoms: C_13  and  C_16
REMARK    8  A    between atoms: C_15  and  C_18
REMARK    9  A    between atoms: C_18  and  C_22
REMARK   10  A    between atoms: C_22  and  C_27
REMARK                            x       y       z     vdW  Elec       q    Type
REMARK                         _______ _______ _______ _____ _____    ______ ____
ROOT
ATOM      1  O   UNL     1       5.557  10.207   3.561  0.00  0.00    -0.276 OA
ATOM      5  N   UNL     1       7.581  11.240   4.041  0.00  0.00    -0.301 N 
ATOM      7  C   UNL     1       9.511  11.672   5.545  0.00  0.00    +0.016 C 
ATOM      8  C   UNL     1       8.887  13.048   5.890  0.00  0.00    +0.006 C 
ATOM      9  C   UNL     1       7.359  13.035   5.715  0.00  0.00    +0.023 C 
ATOM     10  C   UNL     1       9.045  11.222   4.149  0.00  0.00    +0.112 C 
ATOM     11  C   UNL     1       6.963  12.535   4.330  0.00  0.00    +0.108 C 
ATOM     15  C   UNL     1       6.785  10.158   3.670  0.00  0.00    +0.216 C 
ENDROOT
BRANCH   7  12
ATOM     12  C   UNL     1       9.220  10.578   6.581  0.00  0.00    +0.061 C 
BRANCH  12  14
ATOM      6  N   UNL     1      11.594  10.238   6.447  0.00  0.00    -0.287 NA
ATOM     14  C   UNL     1      10.455   9.739   6.801  0.00  0.00    +0.044 C 
ATOM     17  C   UNL     1      10.305   8.389   7.402  0.00  0.00    -0.001 A 
ATOM     19  C   UNL     1      11.378   7.503   7.238  0.00  0.00    -0.033 A 
ATOM     20  C   UNL     1      12.581   7.961   6.468  0.00  0.00    +0.059 C 
ATOM     21  C   UNL     1      12.800   9.448   6.716  0.00  0.00    +0.146 C 
ATOM     23  C   UNL     1       9.157   7.992   8.089  0.00  0.00    +0.013 A 
ATOM     24  C   UNL     1      11.283   6.204   7.746  0.00  0.00    +0.050 A 
ATOM     25  C   UNL     1       9.078   6.698   8.605  0.00  0.00    +0.046 A 
ATOM     26  C   UNL     1      10.136   5.805   8.432  0.00  0.00    +0.120 A 
BRANCH  26   4
ATOM      4  O   UNL     1      10.048   4.542   8.932  0.00  0.00    -0.495 OA
ATOM     33  C   UNL     1       9.119   4.328   9.994  0.00  0.00    +0.277 C 
ENDBRANCH  26   4
ENDBRANCH  12  14
ENDBRANCH   7  12
BRANCH   8  13
ATOM     13  C   UNL     1       9.266  13.547   7.285  0.00  0.00    +0.124 C 
BRANCH  13  16
ATOM      3  O   UNL     1      11.512  13.227   8.176  0.00  0.00    -0.251 OA
ATOM     16  C   UNL     1      10.746  13.785   7.406  0.00  0.00    +0.305 C 
BRANCH  16   2
ATOM      2  O   UNL     1      11.130  14.735   6.514  0.00  0.00    -0.481 OA
ATOM     34  H   UNL     1      12.038  15.060   6.696  0.00  0.00    +0.295 HD
ENDBRANCH  16   2
ENDBRANCH  13  16
ENDBRANCH   8  13
BRANCH  15  18
ATOM     18  C   UNL     1       7.497   8.858   3.393  0.00  0.00    +0.100 C 
BRANCH  18  22
ATOM     22  C   UNL     1       7.667   8.058   4.675  0.00  0.00    +0.044 C 
BRANCH  22  27
ATOM     27  C   UNL     1       8.688   6.953   4.557  0.00  0.00    -0.047 A 
ATOM     28  C   UNL     1       8.474   5.733   5.198  0.00  0.00    +0.003 A 
ATOM     29  C   UNL     1       9.848   7.152   3.807  0.00  0.00    +0.003 A 
ATOM     30  C   UNL     1       9.418   4.711   5.089  0.00  0.00    +0.000 A 
ATOM     31  C   UNL     1      10.792   6.130   3.699  0.00  0.00    +0.000 A 
ATOM     32  C   UNL     1      10.577   4.910   4.339  0.00  0.00    +0.000 A 
ENDBRANCH  22  27
ENDBRANCH  18  22
ENDBRANCH  15  18
TORSDOF 9
ENDMDL
MODEL 5
REMARK VINA RESULT:      -6.5     27.003     29.398
REMARK  Name = 51136659
REMARK  10 active torsions:
REMARK  status: ('A' for Active; 'I' for Inactive)
REMARK    1  A    between atoms: O_2  and  C_16
REMARK    2  A    between atoms: O_4  and  C_26
REMARK    3  A    between atoms: O_4  and  C_33
REMARK    4  A    between atoms: C_7  and  C_12
REMARK    5  A    between atoms: C_8  and  C_13
REMARK    6  A    between atoms: C_12  and  C_14
REMARK    7  A    between atoms: C_13  and  C_16
REMARK    8  A    between atoms: C_15  and  C_18
REMARK    9  A    between atoms: C_18  and  C_22
REMARK   10  A    between atoms: C_22  and  C_27
REMARK                            x       y       z     vdW  Elec       q    Type
REMARK                         _______ _______ _______ _____ _____    ______ ____
ROOT
ATOM      1  O   UNL     1      -8.848 -10.215  13.605  0.00  0.00    -0.276 OA
ATOM      5  N   UNL     1      -7.379  -9.956  15.386  0.00  0.00    -0.301 N 
ATOM      7  C   UNL     1      -5.531 -10.776  16.829  0.00  0.00    +0.016 C 
ATOM      8  C   UNL     1      -6.579 -11.103  17.923  0.00  0.00    +0.006 C 
ATOM      9  C   UNL     1      -7.965 -11.375  17.314  0.00  0.00    +0.023 C 
ATOM     10  C   UNL     1      -6.052  -9.642  15.928  0.00  0.00    +0.112 C 
ATOM     11  C   UNL     1      -8.401 -10.238  16.396  0.00  0.00    +0.108 C 
ATOM     15  C   UNL     1      -7.717  -9.973  14.033  0.00  0.00    +0.216 C 
ENDROOT
BRANCH   7  12
ATOM     12  C   UNL     1      -5.120 -11.986  15.979  0.00  0.00    +0.061 C 
BRANCH  12  14
ATOM      6  N   UNL     1      -2.875 -11.141  15.840  0.00  0.00    -0.287 NA
ATOM     14  C   UNL     1      -3.869 -11.661  15.198  0.00  0.00    +0.044 C 
ATOM     17  C   UNL     1      -3.842 -11.947  13.740  0.00  0.00    -0.001 A 
ATOM     19  C   UNL     1      -2.855 -11.297  12.989  0.00  0.00    -0.033 A 
ATOM     20  C   UNL     1      -1.915 -10.361  13.689  0.00  0.00    +0.059 C 
ATOM     21  C   UNL     1      -1.640 -10.882  15.094  0.00  0.00    +0.146 C 
ATOM     23  C   UNL     1      -4.753 -12.805  13.122  0.00  0.00    +0.013 A 
ATOM     24  C   UNL     1      -2.801 -11.492  11.605  0.00  0.00    +0.050 A 
ATOM     25  C   UNL     1      -4.682 -13.005  11.743  0.00  0.00    +0.046 A 
ATOM     26  C   UNL     1      -3.710 -12.349  10.986  0.00  0.00    +0.120 A 
BRANCH  26   4
ATOM      4  O   UNL     1      -3.652 -12.544   9.640  0.00  0.00    -0.495 OA
ATOM     33  C   UNL     1      -4.438 -13.607   9.104  0.00  0.00    +0.277 C 
ENDBRANCH  26   4
ENDBRANCH  12  14
ENDBRANCH   7  12
BRANCH   8  13
ATOM     13  C   UNL     1      -6.155 -12.253  18.837  0.00  0.00    +0.124 C 
BRANCH  13  16
ATOM      3  O   UNL     1      -5.851 -11.199  21.013  0.00  0.00    -0.251 OA
ATOM     16  C   UNL     1      -5.387 -11.759  20.032  0.00  0.00    +0.305 C 
BRANCH  16   2
ATOM      2  O   UNL     1      -4.066 -12.028  19.869  0.00  0.00    -0.481 OA
ATOM     34  H   UNL     1      -3.505 -11.454  20.432  0.00  0.00    +0.295 HD
ENDBRANCH  16   2
ENDBRANCH  13  16
ENDBRANCH   8  13
BRANCH  15  18
ATOM     18  C   UNL     1      -6.608  -9.676  13.056  0.00  0.00    +0.100 C 
BRANCH  18  22
ATOM     22  C   UNL     1      -7.174  -9.131  11.754  0.00  0.00    +0.044 C 
BRANCH  22  27
ATOM     27  C   UNL     1      -6.229  -9.275  10.586  0.00  0.00    -0.047 A 
ATOM     28  C   UNL     1      -4.966  -8.685  10.633  0.00  0.00    +0.003 A 
ATOM     29  C   UNL     1      -6.619  -9.999   9.458  0.00  0.00    +0.003 A 
ATOM     30  C   UNL     1      -4.092  -8.818   9.554  0.00  0.00    +0.000 A 
ATOM     31  C   UNL     1      -5.745 -10.131   8.379  0.00  0.00    +0.000 A 
ATOM     32  C   UNL     1      -4.482  -9.542   8.427  0.00  0.00    +0.000 A 
ENDBRANCH  22  27
ENDBRANCH  18  22
ENDBRANCH  15  18
TORSDOF 9
ENDMDL
MODEL 6
REMARK VINA RESULT:      -6.5     14.304     19.903
REMARK  Name = 51136659
REMARK  10 active torsions:
REMARK  status: ('A' for Active; 'I' for Inactive)
REMARK    1  A    between atoms: O_2  and  C_16
REMARK    2  A    between atoms: O_4  and  C_26
REMARK    3  A    between atoms: O_4  and  C_33
REMARK    4  A    between atoms: C_7  and  C_12
REMARK    5  A    between atoms: C_8  and  C_13
REMARK    6  A    between atoms: C_12  and  C_14
REMARK    7  A    between atoms: C_13  and  C_16
REMARK    8  A    between atoms: C_15  and  C_18
REMARK    9  A    between atoms: C_18  and  C_22
REMARK   10  A    between atoms: C_22  and  C_27
REMARK                            x       y       z     vdW  Elec       q    Type
REMARK                         _______ _______ _______ _____ _____    ______ ____
ROOT
ATOM      1  O   UNL     1      11.215   8.185  -1.365  0.00  0.00    -0.276 OA
ATOM      5  N   UNL     1      10.889   6.157  -0.279  0.00  0.00    -0.301 N 
ATOM      7  C   UNL     1      11.210   4.645   1.665  0.00  0.00    +0.016 C 
ATOM      8  C   UNL     1      12.273   3.872   0.842  0.00  0.00    +0.006 C 
ATOM      9  C   UNL     1      12.926   4.771  -0.222  0.00  0.00    +0.023 C 
ATOM     10  C   UNL     1      10.206   5.323   0.717  0.00  0.00    +0.112 C 
ATOM     11  C   UNL     1      11.877   5.450  -1.096  0.00  0.00    +0.108 C 
ATOM     15  C   UNL     1      10.645   7.512  -0.502  0.00  0.00    +0.216 C 
ENDROOT
BRANCH   7  12
ATOM     12  C   UNL     1      11.803   5.673   2.638  0.00  0.00    +0.061 C 
BRANCH  12  14
ATOM      6  N   UNL     1      10.533   4.413   4.241  0.00  0.00    -0.287 NA
ATOM     14  C   UNL     1      11.177   5.508   4.001  0.00  0.00    +0.044 C 
ATOM     17  C   UNL     1      11.322   6.605   4.992  0.00  0.00    -0.001 A 
ATOM     19  C   UNL     1      10.431   6.600   6.073  0.00  0.00    -0.033 A 
ATOM     20  C   UNL     1       9.397   5.517   6.151  0.00  0.00    +0.059 C 
ATOM     21  C   UNL     1       9.977   4.227   5.585  0.00  0.00    +0.146 C 
ATOM     23  C   UNL     1      12.281   7.611   4.869  0.00  0.00    +0.013 A 
ATOM     24  C   UNL     1      10.489   7.628   7.019  0.00  0.00    +0.050 A 
ATOM     25  C   UNL     1      12.341   8.625   5.826  0.00  0.00    +0.046 A 
ATOM     26  C   UNL     1      11.447   8.635   6.898  0.00  0.00    +0.120 A 
BRANCH  26   4
ATOM      4  O   UNL     1      11.508   9.631   7.823  0.00  0.00    -0.495 OA
ATOM     33  C   UNL     1      10.281  10.024   8.436  0.00  0.00    +0.277 C 
ENDBRANCH  26   4
ENDBRANCH  12  14
ENDBRANCH   7  12
BRANCH   8  13
ATOM     13  C   UNL     1      13.338   3.204   1.711  0.00  0.00    +0.124 C 
BRANCH  13  16
ATOM      3  O   UNL     1      15.465   3.542   0.571  0.00  0.00    -0.251 OA
ATOM     16  C   UNL     1      14.697   3.805   1.484  0.00  0.00    +0.305 C 
BRANCH  16   2
ATOM      2  O   UNL     1      14.967   4.709   2.461  0.00  0.00    -0.481 OA
ATOM     34  H   UNL     1      15.895   5.025   2.420  0.00  0.00    +0.295 HD
ENDBRANCH  16   2
ENDBRANCH  13  16
ENDBRANCH   8  13
BRANCH  15  18
ATOM     18  C   UNL     1       9.616   8.169   0.383  0.00  0.00    +0.100 C 
BRANCH  18  22
ATOM     22  C   UNL     1      10.292   8.946   1.502  0.00  0.00    +0.044 C 
BRANCH  22  27
ATOM     27  C   UNL     1       9.460   9.028   2.758  0.00  0.00    -0.047 A 
ATOM     28  C   UNL     1       8.513   8.043   3.033  0.00  0.00    +0.003 A 
ATOM     29  C   UNL     1       9.640  10.090   3.646  0.00  0.00    +0.003 A 
ATOM     30  C   UNL     1       7.743   8.118   4.195  0.00  0.00    +0.000 A 
ATOM     31  C   UNL     1       8.871  10.165   4.807  0.00  0.00    +0.000 A 
ATOM     32  C   UNL     1       7.923   9.179   5.082  0.00  0.00    +0.000 A 
ENDBRANCH  22  27
ENDBRANCH  18  22
ENDBRANCH  15  18
TORSDOF 9
ENDMDL
MODEL 7
REMARK VINA RESULT:      -6.4      2.796      4.528
REMARK  Name = 51136659
REMARK  10 active torsions:
REMARK  status: ('A' for Active; 'I' for Inactive)
REMARK    1  A    between atoms: O_2  and  C_16
REMARK    2  A    between atoms: O_4  and  C_26
REMARK    3  A    between atoms: O_4  and  C_33
REMARK    4  A    between atoms: C_7  and  C_12
REMARK    5  A    between atoms: C_8  and  C_13
REMARK    6  A    between atoms: C_12  and  C_14
REMARK    7  A    between atoms: C_13  and  C_16
REMARK    8  A    between atoms: C_15  and  C_18
REMARK    9  A    between atoms: C_18  and  C_22
REMARK   10  A    between atoms: C_22  and  C_27
REMARK                            x       y       z     vdW  Elec       q    Type
REMARK                         _______ _______ _______ _____ _____    ______ ____
ROOT
ATOM      1  O   UNL     1      21.158   8.773  20.899  0.00  0.00    -0.276 OA
ATOM      5  N   UNL     1      19.482  10.274  21.481  0.00  0.00    -0.301 N 
ATOM      7  C   UNL     1      17.162  11.140  21.285  0.00  0.00    +0.016 C 
ATOM      8  C   UNL     1      17.709  12.303  20.418  0.00  0.00    +0.006 C 
ATOM      9  C   UNL     1      19.009  11.907  19.697  0.00  0.00    +0.023 C 
ATOM     10  C   UNL     1      18.267  10.625  22.225  0.00  0.00    +0.112 C 
ATOM     11  C   UNL     1      20.042  11.361  20.676  0.00  0.00    +0.108 C 
ATOM     15  C   UNL     1      20.121   9.035  21.515  0.00  0.00    +0.216 C 
ENDROOT
BRANCH   7  12
ATOM     12  C   UNL     1      16.572   9.980  20.471  0.00  0.00    +0.061 C 
BRANCH  12  14
ATOM      6  N   UNL     1      14.724  10.009  22.007  0.00  0.00    -0.287 NA
ATOM     14  C   UNL     1      15.103   9.832  20.784  0.00  0.00    +0.044 C 
ATOM     17  C   UNL     1      14.169   9.485  19.681  0.00  0.00    -0.001 A 
ATOM     19  C   UNL     1      12.916   8.982  20.052  0.00  0.00    -0.033 A 
ATOM     20  C   UNL     1      12.607   8.813  21.510  0.00  0.00    +0.059 C 
ATOM     21  C   UNL     1      13.290   9.924  22.299  0.00  0.00    +0.146 C 
ATOM     23  C   UNL     1      14.504   9.631  18.334  0.00  0.00    +0.013 A 
ATOM     24  C   UNL     1      12.005   8.599  19.061  0.00  0.00    +0.050 A 
ATOM     25  C   UNL     1      13.584   9.260  17.353  0.00  0.00    +0.046 A 
ATOM     26  C   UNL     1      12.339   8.743  17.714  0.00  0.00    +0.120 A 
BRANCH  26   4
ATOM      4  O   UNL     1      11.450   8.378  16.751  0.00  0.00    -0.495 OA
ATOM     33  C   UNL     1      11.374   9.204  15.590  0.00  0.00    +0.277 C 
ENDBRANCH  26   4
ENDBRANCH  12  14
ENDBRANCH   7  12
BRANCH   8  13
ATOM     13  C   UNL     1      16.683  12.844  19.422  0.00  0.00    +0.124 C 
BRANCH  13  16
ATOM      3  O   UNL     1      14.494  13.183  20.438  0.00  0.00    -0.251 OA
ATOM     16  C   UNL     1      15.590  13.612  20.113  0.00  0.00    +0.305 C 
BRANCH  16   2
ATOM      2  O   UNL     1      15.998  14.888  20.334  0.00  0.00    -0.481 OA
ATOM     34  H   UNL     1      15.247  15.479  20.555  0.00  0.00    +0.295 HD
ENDBRANCH  16   2
ENDBRANCH  13  16
ENDBRANCH   8  13
BRANCH  15  18
ATOM     18  C   UNL     1      19.479   7.966  22.363  0.00  0.00    +0.100 C 
BRANCH  18  22
ATOM     22  C   UNL     1      19.346   6.669  21.579  0.00  0.00    +0.044 C 
BRANCH  22  27
ATOM     27  C   UNL     1      17.997   6.506  20.923  0.00  0.00    -0.047 A 
ATOM     28  C   UNL     1      16.833   6.606  21.684  0.00  0.00    +0.003 A 
ATOM     29  C   UNL     1      17.914   6.255  19.553  0.00  0.00    +0.003 A 
ATOM     30  C   UNL     1      15.586   6.455  21.078  0.00  0.00    +0.000 A 
ATOM     31  C   UNL     1      16.667   6.104  18.946  0.00  0.00    +0.000 A 
ATOM     32  C   UNL     1      15.503   6.204  19.708  0.00  0.00    +0.000 A 
ENDBRANCH  22  27
ENDBRANCH  18  22
ENDBRANCH  15  18
TORSDOF 9
ENDMDL
MODEL 8
REMARK VINA RESULT:      -6.3     26.881     30.331
REMARK  Name = 51136659
REMARK  10 active torsions:
REMARK  status: ('A' for Active; 'I' for Inactive)
REMARK    1  A    between atoms: O_2  and  C_16
REMARK    2  A    between atoms: O_4  and  C_26
REMARK    3  A    between atoms: O_4  and  C_33
REMARK    4  A    between atoms: C_7  and  C_12
REMARK    5  A    between atoms: C_8  and  C_13
REMARK    6  A    between atoms: C_12  and  C_14
REMARK    7  A    between atoms: C_13  and  C_16
REMARK    8  A    between atoms: C_15  and  C_18
REMARK    9  A    between atoms: C_18  and  C_22
REMARK   10  A    between atoms: C_22  and  C_27
REMARK                            x       y       z     vdW  Elec       q    Type
REMARK                         _______ _______ _______ _____ _____    ______ ____
ROOT
ATOM      1  O   UNL     1     -10.644 -10.283  20.393  0.00  0.00    -0.276 OA
ATOM      5  N   UNL     1     -10.981 -10.457  18.101  0.00  0.00    -0.301 N 
ATOM      7  C   UNL     1     -10.271 -10.062  15.754  0.00  0.00    +0.016 C 
ATOM      8  C   UNL     1     -11.302  -8.907  15.675  0.00  0.00    +0.006 C 
ATOM      9  C   UNL     1     -11.583  -8.305  17.062  0.00  0.00    +0.023 C 
ATOM     10  C   UNL     1     -10.720 -11.093  16.804  0.00  0.00    +0.112 C 
ATOM     11  C   UNL     1     -11.975  -9.384  18.067  0.00  0.00    +0.108 C 
ATOM     15  C   UNL     1     -10.388 -10.817  19.311  0.00  0.00    +0.216 C 
ENDROOT
BRANCH   7  12
ATOM     12  C   UNL     1      -8.837  -9.597  16.042  0.00  0.00    +0.061 C 
BRANCH  12  14
ATOM      6  N   UNL     1      -8.427 -10.349  13.797  0.00  0.00    -0.287 NA
ATOM     14  C   UNL     1      -7.913 -10.086  14.953  0.00  0.00    +0.044 C 
ATOM     17  C   UNL     1      -6.468 -10.247  15.261  0.00  0.00    -0.001 A 
ATOM     19  C   UNL     1      -5.723 -11.048  14.387  0.00  0.00    -0.033 A 
ATOM     20  C   UNL     1      -6.420 -11.693  13.227  0.00  0.00    +0.059 C 
ATOM     21  C   UNL     1      -7.520 -10.765  12.723  0.00  0.00    +0.146 C 
ATOM     23  C   UNL     1      -5.861  -9.651  16.368  0.00  0.00    +0.013 A 
ATOM     24  C   UNL     1      -4.366 -11.273  14.644  0.00  0.00    +0.050 A 
ATOM     25  C   UNL     1      -4.504  -9.869  16.608  0.00  0.00    +0.046 A 
ATOM     26  C   UNL     1      -3.758 -10.679  15.750  0.00  0.00    +0.120 A 
BRANCH  26   4
ATOM      4  O   UNL     1      -2.436 -10.891  15.995  0.00  0.00    -0.495 OA
ATOM     33  C   UNL     1      -1.504 -10.275  15.107  0.00  0.00    +0.277 C 
ENDBRANCH  26   4
ENDBRANCH  12  14
ENDBRANCH   7  12
BRANCH   8  13
ATOM     13  C   UNL     1     -10.907  -7.814  14.682  0.00  0.00    +0.124 C 
BRANCH  13  16
ATOM      3  O   UNL     1     -13.077  -6.731  14.442  0.00  0.00    -0.251 OA
ATOM     16  C   UNL     1     -11.884  -6.671  14.697  0.00  0.00    +0.305 C 
BRANCH  16   2
ATOM      2  O   UNL     1     -11.242  -5.525  15.042  0.00  0.00    -0.481 OA
ATOM     34  H   UNL     1     -11.347  -4.828  14.360  0.00  0.00    +0.295 HD
ENDBRANCH  16   2
ENDBRANCH  13  16
ENDBRANCH   8  13
BRANCH  15  18
ATOM     18  C   UNL     1      -9.371 -11.929  19.262  0.00  0.00    +0.100 C 
BRANCH  18  22
ATOM     22  C   UNL     1      -7.961 -11.370  19.378  0.00  0.00    +0.044 C 
BRANCH  22  27
ATOM     27  C   UNL     1      -6.928 -12.207  18.665  0.00  0.00    -0.047 A 
ATOM     28  C   UNL     1      -7.295 -12.983  17.565  0.00  0.00    +0.003 A 
ATOM     29  C   UNL     1      -5.603 -12.203  19.104  0.00  0.00    +0.003 A 
ATOM     30  C   UNL     1      -6.340 -13.756  16.906  0.00  0.00    +0.000 A 
ATOM     31  C   UNL     1      -4.648 -12.977  18.444  0.00  0.00    +0.000 A 
ATOM     32  C   UNL     1      -5.016 -13.753  17.345  0.00  0.00    +0.000 A 
ENDBRANCH  22  27
ENDBRANCH  18  22
ENDBRANCH  15  18
TORSDOF 9
ENDMDL
MODEL 9
REMARK VINA RESULT:      -6.2     27.753     29.623
REMARK  Name = 51136659
REMARK  10 active torsions:
REMARK  status: ('A' for Active; 'I' for Inactive)
REMARK    1  A    between atoms: O_2  and  C_16
REMARK    2  A    between atoms: O_4  and  C_26
REMARK    3  A    between atoms: O_4  and  C_33
REMARK    4  A    between atoms: C_7  and  C_12
REMARK    5  A    between atoms: C_8  and  C_13
REMARK    6  A    between atoms: C_12  and  C_14
REMARK    7  A    between atoms: C_13  and  C_16
REMARK    8  A    between atoms: C_15  and  C_18
REMARK    9  A    between atoms: C_18  and  C_22
REMARK   10  A    between atoms: C_22  and  C_27
REMARK                            x       y       z     vdW  Elec       q    Type
REMARK                         _______ _______ _______ _____ _____    ______ ____
ROOT
ATOM      1  O   UNL     1      -2.189 -10.695  14.748  0.00  0.00    -0.276 OA
ATOM      5  N   UNL     1      -4.165 -11.539  15.631  0.00  0.00    -0.301 N 
ATOM      7  C   UNL     1      -6.565 -11.306  16.231  0.00  0.00    +0.016 C 
ATOM      8  C   UNL     1      -6.140 -11.136  17.712  0.00  0.00    +0.006 C 
ATOM      9  C   UNL     1      -4.714 -10.570  17.830  0.00  0.00    +0.023 C 
ATOM     10  C   UNL     1      -5.503 -12.123  15.473  0.00  0.00    +0.112 C 
ATOM     11  C   UNL     1      -3.721 -11.395  17.018  0.00  0.00    +0.108 C 
ATOM     15  C   UNL     1      -3.321 -11.159  14.589  0.00  0.00    +0.216 C 
ENDROOT
BRANCH   7  12
ATOM     12  C   UNL     1      -6.836  -9.982  15.506  0.00  0.00    +0.061 C 
BRANCH  12  14
ATOM      6  N   UNL     1      -9.196 -10.388  15.315  0.00  0.00    -0.287 NA
ATOM     14  C   UNL     1      -8.103 -10.094  14.693  0.00  0.00    +0.044 C 
ATOM     17  C   UNL     1      -8.033  -9.870  13.225  0.00  0.00    -0.001 A 
ATOM     19  C   UNL     1      -9.104 -10.351  12.462  0.00  0.00    -0.033 A 
ATOM     20  C   UNL     1     -10.226 -11.060  13.160  0.00  0.00    +0.059 C 
ATOM     21  C   UNL     1     -10.436 -10.438  14.535  0.00  0.00    +0.146 C 
ATOM     23  C   UNL     1      -6.957  -9.228  12.610  0.00  0.00    +0.013 A 
ATOM     24  C   UNL     1      -9.080 -10.208  11.072  0.00  0.00    +0.050 A 
ATOM     25  C   UNL     1      -6.948  -9.077  11.223  0.00  0.00    +0.046 A 
ATOM     26  C   UNL     1      -8.006  -9.567  10.455  0.00  0.00    +0.120 A 
BRANCH  26   4
ATOM      4  O   UNL     1      -7.986  -9.421   9.102  0.00  0.00    -0.495 OA
ATOM     33  C   UNL     1      -7.919  -8.090   8.593  0.00  0.00    +0.277 C 
ENDBRANCH  26   4
ENDBRANCH  12  14
ENDBRANCH   7  12
BRANCH   8  13
ATOM     13  C   UNL     1      -7.123 -10.296  18.528  0.00  0.00    +0.124 C 
BRANCH  13  16
ATOM      3  O   UNL     1      -7.330 -12.130  20.119  0.00  0.00    -0.251 OA
ATOM     16  C   UNL     1      -7.762 -11.099  19.626  0.00  0.00    +0.305 C 
BRANCH  16   2
ATOM      2  O   UNL     1      -8.922 -10.506  20.012  0.00  0.00    -0.481 OA
ATOM     34  H   UNL     1      -9.100  -9.688  19.501  0.00  0.00    +0.295 HD
ENDBRANCH  16   2
ENDBRANCH  13  16
ENDBRANCH   8  13
BRANCH  15  18
ATOM     18  C   UNL     1      -3.854 -11.335  13.189  0.00  0.00    +0.100 C 
BRANCH  18  22
ATOM     22  C   UNL     1      -2.856 -10.810  12.168  0.00  0.00    +0.044 C 
BRANCH  22  27
ATOM     27  C   UNL     1      -3.485 -10.478  10.836  0.00  0.00    -0.047 A 
ATOM     28  C   UNL     1      -3.378  -9.189  10.316  0.00  0.00    +0.003 A 
ATOM     29  C   UNL     1      -4.172 -11.462  10.125  0.00  0.00    +0.003 A 
ATOM     30  C   UNL     1      -3.959  -8.881   9.086  0.00  0.00    +0.000 A 
ATOM     31  C   UNL     1      -4.753 -11.155   8.894  0.00  0.00    +0.000 A 
ATOM     32  C   UNL     1      -4.646  -9.865   8.374  0.00  0.00    +0.000 A 
ENDBRANCH  22  27
ENDBRANCH  18  22
ENDBRANCH  15  18
TORSDOF 9
ENDMDL
MODEL 10
REMARK VINA RESULT:      -6.2     25.618     28.863
REMARK  Name = 51136659
REMARK  10 active torsions:
REMARK  status: ('A' for Active; 'I' for Inactive)
REMARK    1  A    between atoms: O_2  and  C_16
REMARK    2  A    between atoms: O_4  and  C_26
REMARK    3  A    between atoms: O_4  and  C_33
REMARK    4  A    between atoms: C_7  and  C_12
REMARK    5  A    between atoms: C_8  and  C_13
REMARK    6  A    between atoms: C_12  and  C_14
REMARK    7  A    between atoms: C_13  and  C_16
REMARK    8  A    between atoms: C_15  and  C_18
REMARK    9  A    between atoms: C_18  and  C_22
REMARK   10  A    between atoms: C_22  and  C_27
REMARK                            x       y       z     vdW  Elec       q    Type
REMARK                         _______ _______ _______ _____ _____    ______ ____
ROOT
ATOM      1  O   UNL     1     -17.884   5.373  18.334  0.00  0.00    -0.276 OA
ATOM      5  N   UNL     1     -17.490   6.068  20.516  0.00  0.00    -0.301 N 
ATOM      7  C   UNL     1     -15.952   6.627  22.385  0.00  0.00    +0.016 C 
ATOM      8  C   UNL     1     -16.303   5.263  23.033  0.00  0.00    +0.006 C 
ATOM      9  C   UNL     1     -16.738   4.231  21.978  0.00  0.00    +0.023 C 
ATOM     10  C   UNL     1     -17.115   7.097  21.494  0.00  0.00    +0.112 C 
ATOM     11  C   UNL     1     -17.858   4.776  21.097  0.00  0.00    +0.108 C 
ATOM     15  C   UNL     1     -17.541   6.247  19.134  0.00  0.00    +0.216 C 
ENDROOT
BRANCH   7  12
ATOM     12  C   UNL     1     -14.640   6.620  21.590  0.00  0.00    +0.061 C 
BRANCH  12  14
ATOM      6  N   UNL     1     -14.211   8.596  22.886  0.00  0.00    -0.287 NA
ATOM     14  C   UNL     1     -13.873   7.892  21.857  0.00  0.00    +0.044 C 
ATOM     17  C   UNL     1     -12.779   8.275  20.927  0.00  0.00    -0.001 A 
ATOM     19  C   UNL     1     -12.358   9.610  20.965  0.00  0.00    -0.033 A 
ATOM     20  C   UNL     1     -13.036  10.553  21.914  0.00  0.00    +0.059 C 
ATOM     21  C   UNL     1     -13.426   9.799  23.179  0.00  0.00    +0.146 C 
ATOM     23  C   UNL     1     -12.192   7.372  20.039  0.00  0.00    +0.013 A 
ATOM     24  C   UNL     1     -11.360  10.045  20.088  0.00  0.00    +0.050 A 
ATOM     25  C   UNL     1     -11.187   7.812  19.177  0.00  0.00    +0.046 A 
ATOM     26  C   UNL     1     -10.773   9.144  19.199  0.00  0.00    +0.120 A 
BRANCH  26   4
ATOM      4  O   UNL     1      -9.796   9.566  18.350  0.00  0.00    -0.495 OA
ATOM     33  C   UNL     1     -10.082   9.513  16.953  0.00  0.00    +0.277 C 
ENDBRANCH  26   4
ENDBRANCH  12  14
ENDBRANCH   7  12
BRANCH   8  13
ATOM     13  C   UNL     1     -15.177   4.703  23.903  0.00  0.00    +0.124 C 
BRANCH  13  16
ATOM      3  O   UNL     1     -15.748   2.470  24.696  0.00  0.00    -0.251 OA
ATOM     16  C   UNL     1     -15.686   3.676  24.877  0.00  0.00    +0.305 C 
BRANCH  16   2
ATOM      2  O   UNL     1     -16.082   4.290  26.022  0.00  0.00    -0.481 OA
ATOM     34  H   UNL     1     -16.141   3.660  26.772  0.00  0.00    +0.295 HD
ENDBRANCH  16   2
ENDBRANCH  13  16
ENDBRANCH   8  13
BRANCH  15  18
ATOM     18  C   UNL     1     -17.142   7.605  18.613  0.00  0.00    +0.100 C 
BRANCH  18  22
ATOM     22  C   UNL     1     -15.660   7.633  18.273  0.00  0.00    +0.044 C 
BRANCH  22  27
ATOM     27  C   UNL     1     -15.092   9.030  18.199  0.00  0.00    -0.047 A 
ATOM     28  C   UNL     1     -14.091   9.328  17.275  0.00  0.00    +0.003 A 
ATOM     29  C   UNL     1     -15.569  10.023  19.055  0.00  0.00    +0.003 A 
ATOM     30  C   UNL     1     -13.565  10.618  17.206  0.00  0.00    +0.000 A 
ATOM     31  C   UNL     1     -15.044  11.314  18.986  0.00  0.00    +0.000 A 
ATOM     32  C   UNL     1     -14.043  11.612  18.062  0.00  0.00    +0.000 A 
ENDBRANCH  22  27
ENDBRANCH  18  22
ENDBRANCH  15  18
TORSDOF 9
ENDMDL
