MODEL 1
REMARK VINA RESULT:      -7.3      0.000      0.000
REMARK  Name = 75536646
REMARK  7 active torsions:
REMARK  status: ('A' for Active; 'I' for Inactive)
REMARK    1  A    between atoms: O_3  and  C_10
REMARK    2  A    between atoms: N_5  and  C_9
REMARK    3  A    between atoms: N_5  and  C_14
REMARK    4  A    between atoms: N_6  and  C_13
REMARK    5  A    between atoms: C_11  and  C_13
REMARK    6  A    between atoms: C_14  and  C_15
REMARK    7  A    between atoms: C_16  and  C_17
REMARK                            x       y       z     vdW  Elec       q    Type
REMARK                         _______ _______ _______ _____ _____    ______ ____
ROOT
ATOM      2  O   UNL     1      12.894   6.665  20.668  0.00  0.00    -0.371 OA
ATOM      9  C   UNL     1      10.834   7.770  21.091  0.00  0.00    +0.111 C 
ATOM     10  C   UNL     1      11.438   8.320  19.811  0.00  0.00    +0.164 C 
ATOM     11  C   UNL     1      12.392   7.197  19.430  0.00  0.00    +0.165 C 
ATOM     12  C   UNL     1      12.045   7.118  21.738  0.00  0.00    +0.181 C 
ENDROOT
BRANCH  10   3
ATOM      3  O   UNL     1      10.470   8.553  18.807  0.00  0.00    -0.388 OA
ATOM     26  H   UNL     1      10.365   7.738  18.288  0.00  0.00    +0.210 HD
ENDBRANCH  10   3
BRANCH   9   5
ATOM      5  N   UNL     1      10.223   8.787  21.931  0.00  0.00    -0.302 NA
ATOM     25  H   UNL     1       9.429   8.378  22.426  0.00  0.00    +0.123 HD
BRANCH   5  14
ATOM     14  C   UNL     1      11.175   9.300  22.910  0.00  0.00    +0.156 C 
BRANCH  14  15
ATOM      7  N   UNL     1      10.984  11.708  22.243  0.00  0.00    -0.347 N 
ATOM      8  N   UNL     1      10.653  11.271  24.395  0.00  0.00    -0.240 NA
ATOM     15  C   UNL     1      10.932  10.753  23.220  0.00  0.00    +0.121 A 
ATOM     18  C   UNL     1      10.723  12.912  22.833  0.00  0.00    +0.104 A 
ATOM     19  C   UNL     1      10.522  12.618  24.161  0.00  0.00    +0.130 A 
ATOM     28  H   UNL     1      11.179  11.553  21.263  0.00  0.00    +0.167 HD
ENDBRANCH  14  15
ENDBRANCH   5  14
ENDBRANCH   9   5
BRANCH  11  13
ATOM     13  C   UNL     1      13.550   7.660  18.564  0.00  0.00    +0.138 C 
BRANCH  13   6
ATOM      4  O   UNL     1      15.405   9.304  20.014  0.00  0.00    -0.270 OA
ATOM      6  N   UNL     1      14.810   7.250  19.114  0.00  0.00    -0.309 N 
ATOM     16  C   UNL     1      15.649   8.119  19.805  0.00  0.00    +0.244 C 
ATOM     27  H   UNL     1      15.104   6.301  18.916  0.00  0.00    +0.149 HD
BRANCH  16  17
ATOM      1  F   UNL     1      20.494   5.954  21.640  0.00  0.00    -0.205 F 
ATOM     17  C   UNL     1      16.931   7.546  20.290  0.00  0.00    +0.037 A 
ATOM     20  C   UNL     1      17.634   8.180  21.314  0.00  0.00    +0.016 A 
ATOM     21  C   UNL     1      17.431   6.374  19.723  0.00  0.00    +0.016 A 
ATOM     22  C   UNL     1      18.839   7.643  21.770  0.00  0.00    +0.039 A 
ATOM     23  C   UNL     1      18.634   5.837  20.178  0.00  0.00    +0.039 A 
ATOM     24  C   UNL     1      19.338   6.471  21.202  0.00  0.00    +0.123 A 
ENDBRANCH  16  17
ENDBRANCH  13   6
ENDBRANCH  11  13
TORSDOF 7
ENDMDL
MODEL 2
REMARK VINA RESULT:      -6.7      3.557      5.408
REMARK  Name = 75536646
REMARK  7 active torsions:
REMARK  status: ('A' for Active; 'I' for Inactive)
REMARK    1  A    between atoms: O_3  and  C_10
REMARK    2  A    between atoms: N_5  and  C_9
REMARK    3  A    between atoms: N_5  and  C_14
REMARK    4  A    between atoms: N_6  and  C_13
REMARK    5  A    between atoms: C_11  and  C_13
REMARK    6  A    between atoms: C_14  and  C_15
REMARK    7  A    between atoms: C_16  and  C_17
REMARK                            x       y       z     vdW  Elec       q    Type
REMARK                         _______ _______ _______ _____ _____    ______ ____
ROOT
ATOM      2  O   UNL     1      12.561   9.474  19.272  0.00  0.00    -0.371 OA
ATOM      9  C   UNL     1      12.318   9.249  16.919  0.00  0.00    +0.111 C 
ATOM     10  C   UNL     1      12.175   7.883  17.565  0.00  0.00    +0.164 C 
ATOM     11  C   UNL     1      11.827   8.269  18.996  0.00  0.00    +0.165 C 
ATOM     12  C   UNL     1      13.009  10.032  18.024  0.00  0.00    +0.181 C 
ENDROOT
BRANCH  10   3
ATOM      3  O   UNL     1      11.159   7.100  16.968  0.00  0.00    -0.388 OA
ATOM     26  H   UNL     1      11.581   6.418  16.420  0.00  0.00    +0.210 HD
ENDBRANCH  10   3
BRANCH   9   5
ATOM      5  N   UNL     1      13.075   9.231  15.679  0.00  0.00    -0.302 NA
ATOM     25  H   UNL     1      12.494   9.604  14.927  0.00  0.00    +0.123 HD
BRANCH   5  14
ATOM     14  C   UNL     1      14.281  10.044  15.789  0.00  0.00    +0.156 C 
BRANCH  14  15
ATOM      7  N   UNL     1      13.623  12.382  15.175  0.00  0.00    -0.347 N 
ATOM      8  N   UNL     1      14.801  11.277  13.650  0.00  0.00    -0.240 NA
ATOM     15  C   UNL     1      14.255  11.217  14.844  0.00  0.00    +0.121 A 
ATOM     18  C   UNL     1      13.774  13.242  14.124  0.00  0.00    +0.104 A 
ATOM     19  C   UNL     1      14.504  12.538  13.195  0.00  0.00    +0.130 A 
ATOM     28  H   UNL     1      13.133  12.576  16.038  0.00  0.00    +0.167 HD
ENDBRANCH  14  15
ENDBRANCH   5  14
ENDBRANCH   9   5
BRANCH  11  13
ATOM     13  C   UNL     1      12.193   7.202  20.012  0.00  0.00    +0.138 C 
BRANCH  13   6
ATOM      4  O   UNL     1      14.285   7.842  21.872  0.00  0.00    -0.270 OA
ATOM      6  N   UNL     1      13.576   6.833  19.906  0.00  0.00    -0.309 N 
ATOM     16  C   UNL     1      14.525   7.189  20.860  0.00  0.00    +0.244 C 
ATOM     27  H   UNL     1      13.855   6.354  19.058  0.00  0.00    +0.149 HD
BRANCH  16  17
ATOM      1  F   UNL     1      19.796   5.540  19.849  0.00  0.00    -0.205 F 
ATOM     17  C   UNL     1      15.919   6.753  20.592  0.00  0.00    +0.037 A 
ATOM     20  C   UNL     1      16.896   6.897  21.577  0.00  0.00    +0.016 A 
ATOM     21  C   UNL     1      16.253   6.200  19.356  0.00  0.00    +0.016 A 
ATOM     22  C   UNL     1      18.206   6.488  21.326  0.00  0.00    +0.039 A 
ATOM     23  C   UNL     1      17.562   5.791  19.104  0.00  0.00    +0.039 A 
ATOM     24  C   UNL     1      18.539   5.935  20.090  0.00  0.00    +0.123 A 
ENDBRANCH  16  17
ENDBRANCH  13   6
ENDBRANCH  11  13
TORSDOF 7
ENDMDL
MODEL 3
REMARK VINA RESULT:      -6.6     26.433     27.704
REMARK  Name = 75536646
REMARK  7 active torsions:
REMARK  status: ('A' for Active; 'I' for Inactive)
REMARK    1  A    between atoms: O_3  and  C_10
REMARK    2  A    between atoms: N_5  and  C_9
REMARK    3  A    between atoms: N_5  and  C_14
REMARK    4  A    between atoms: N_6  and  C_13
REMARK    5  A    between atoms: C_11  and  C_13
REMARK    6  A    between atoms: C_14  and  C_15
REMARK    7  A    between atoms: C_16  and  C_17
REMARK                            x       y       z     vdW  Elec       q    Type
REMARK                         _______ _______ _______ _____ _____    ______ ____
ROOT
ATOM      2  O   UNL     1      -4.039 -11.788  18.601  0.00  0.00    -0.371 OA
ATOM      9  C   UNL     1      -6.272 -11.021  18.337  0.00  0.00    +0.111 C 
ATOM     10  C   UNL     1      -5.418 -10.451  17.220  0.00  0.00    +0.164 C 
ATOM     11  C   UNL     1      -4.242 -11.419  17.226  0.00  0.00    +0.165 C 
ATOM     12  C   UNL     1      -5.212 -11.424  19.350  0.00  0.00    +0.181 C 
ENDROOT
BRANCH  10   3
ATOM      3  O   UNL     1      -6.085 -10.441  15.973  0.00  0.00    -0.388 OA
ATOM     26  H   UNL     1      -5.530 -10.906  15.324  0.00  0.00    +0.210 HD
ENDBRANCH  10   3
BRANCH   9   5
ATOM      5  N   UNL     1      -7.236 -10.075  18.874  0.00  0.00    -0.302 NA
ATOM     25  H   UNL     1      -7.003  -9.137  18.545  0.00  0.00    +0.123 HD
BRANCH   5  14
ATOM     14  C   UNL     1      -8.590 -10.403  18.442  0.00  0.00    +0.156 C 
BRANCH  14  15
ATOM      7  N   UNL     1      -9.650  -8.239  17.756  0.00  0.00    -0.347 N 
ATOM      8  N   UNL     1      -9.078  -9.604  16.099  0.00  0.00    -0.240 NA
ATOM     15  C   UNL     1      -9.096  -9.438  17.403  0.00  0.00    +0.121 A 
ATOM     18  C   UNL     1     -10.007  -7.598  16.603  0.00  0.00    +0.104 A 
ATOM     19  C   UNL     1      -9.645  -8.460  15.594  0.00  0.00    +0.130 A 
ATOM     28  H   UNL     1      -9.772  -7.887  18.696  0.00  0.00    +0.167 HD
ENDBRANCH  14  15
ENDBRANCH   5  14
ENDBRANCH   9   5
BRANCH  11  13
ATOM     13  C   UNL     1      -2.967 -10.818  16.662  0.00  0.00    +0.138 C 
BRANCH  13   6
ATOM      4  O   UNL     1      -2.007 -12.120  14.289  0.00  0.00    -0.270 OA
ATOM      6  N   UNL     1      -3.152 -10.378  15.308  0.00  0.00    -0.309 N 
ATOM     16  C   UNL     1      -2.648 -11.076  14.215  0.00  0.00    +0.244 C 
ATOM     27  H   UNL     1      -3.611  -9.484  15.180  0.00  0.00    +0.149 HD
BRANCH  16  17
ATOM      1  F   UNL     1      -3.609  -8.807   9.169  0.00  0.00    -0.205 F 
ATOM     17  C   UNL     1      -2.903 -10.475  12.880  0.00  0.00    +0.037 A 
ATOM     20  C   UNL     1      -1.832 -10.102  12.068  0.00  0.00    +0.016 A 
ATOM     21  C   UNL     1      -4.212 -10.284  12.439  0.00  0.00    +0.016 A 
ATOM     22  C   UNL     1      -2.070  -9.538  10.814  0.00  0.00    +0.039 A 
ATOM     23  C   UNL     1      -4.451  -9.721  11.186  0.00  0.00    +0.039 A 
ATOM     24  C   UNL     1      -3.380  -9.347  10.374  0.00  0.00    +0.123 A 
ENDBRANCH  16  17
ENDBRANCH  13   6
ENDBRANCH  11  13
TORSDOF 7
ENDMDL
MODEL 4
REMARK VINA RESULT:      -6.4      4.229      8.901
REMARK  Name = 75536646
REMARK  7 active torsions:
REMARK  status: ('A' for Active; 'I' for Inactive)
REMARK    1  A    between atoms: O_3  and  C_10
REMARK    2  A    between atoms: N_5  and  C_9
REMARK    3  A    between atoms: N_5  and  C_14
REMARK    4  A    between atoms: N_6  and  C_13
REMARK    5  A    between atoms: C_11  and  C_13
REMARK    6  A    between atoms: C_14  and  C_15
REMARK    7  A    between atoms: C_16  and  C_17
REMARK                            x       y       z     vdW  Elec       q    Type
REMARK                         _______ _______ _______ _____ _____    ______ ____
ROOT
ATOM      2  O   UNL     1      17.368   7.940  20.480  0.00  0.00    -0.371 OA
ATOM      9  C   UNL     1      19.263   6.950  21.518  0.00  0.00    +0.111 C 
ATOM     10  C   UNL     1      18.550   5.901  20.684  0.00  0.00    +0.164 C 
ATOM     11  C   UNL     1      17.754   6.777  19.727  0.00  0.00    +0.165 C 
ATOM     12  C   UNL     1      18.175   8.002  21.670  0.00  0.00    +0.181 C 
ENDROOT
BRANCH  10   3
ATOM      3  O   UNL     1      19.446   5.049  19.997  0.00  0.00    -0.388 OA
ATOM     26  H   UNL     1      18.928   4.454  19.429  0.00  0.00    +0.210 HD
ENDBRANCH  10   3
BRANCH   9   5
ATOM      5  N   UNL     1      19.747   6.450  22.793  0.00  0.00    -0.302 NA
ATOM     25  H   UNL     1      19.409   5.496  22.929  0.00  0.00    +0.123 HD
BRANCH   5  14
ATOM     14  C   UNL     1      21.205   6.444  22.835  0.00  0.00    +0.156 C 
BRANCH  14  15
ATOM      7  N   UNL     1      21.849   4.422  21.503  0.00  0.00    -0.347 N 
ATOM      8  N   UNL     1      22.217   4.297  23.690  0.00  0.00    -0.240 NA
ATOM     15  C   UNL     1      21.764   5.051  22.713  0.00  0.00    +0.121 A 
ATOM     18  C   UNL     1      22.391   3.187  21.721  0.00  0.00    +0.104 A 
ATOM     19  C   UNL     1      22.610   3.132  23.078  0.00  0.00    +0.130 A 
ATOM     28  H   UNL     1      21.564   4.799  20.609  0.00  0.00    +0.167 HD
ENDBRANCH  14  15
ENDBRANCH   5  14
ENDBRANCH   9   5
BRANCH  11  13
ATOM     13  C   UNL     1      16.518   6.091  19.173  0.00  0.00    +0.138 C 
BRANCH  13   6
ATOM      4  O   UNL     1      14.367   7.516  17.912  0.00  0.00    -0.270 OA
ATOM      6  N   UNL     1      15.324   6.577  19.805  0.00  0.00    -0.309 N 
ATOM     16  C   UNL     1      14.330   7.261  19.112  0.00  0.00    +0.244 C 
ATOM     27  H   UNL     1      15.264   6.462  20.810  0.00  0.00    +0.149 HD
BRANCH  16  17
ATOM      1  F   UNL     1       9.938   8.998  22.149  0.00  0.00    -0.205 F 
ATOM     17  C   UNL     1      13.169   7.721  19.916  0.00  0.00    +0.037 A 
ATOM     20  C   UNL     1      12.010   8.163  19.277  0.00  0.00    +0.016 A 
ATOM     21  C   UNL     1      13.235   7.711  21.309  0.00  0.00    +0.016 A 
ATOM     22  C   UNL     1      10.919   8.595  20.031  0.00  0.00    +0.039 A 
ATOM     23  C   UNL     1      12.145   8.142  22.063  0.00  0.00    +0.039 A 
ATOM     24  C   UNL     1      10.987   8.584  21.424  0.00  0.00    +0.123 A 
ENDBRANCH  16  17
ENDBRANCH  13   6
ENDBRANCH  11  13
TORSDOF 7
ENDMDL
MODEL 5
REMARK VINA RESULT:      -6.4      4.514      6.853
REMARK  Name = 75536646
REMARK  7 active torsions:
REMARK  status: ('A' for Active; 'I' for Inactive)
REMARK    1  A    between atoms: O_3  and  C_10
REMARK    2  A    between atoms: N_5  and  C_9
REMARK    3  A    between atoms: N_5  and  C_14
REMARK    4  A    between atoms: N_6  and  C_13
REMARK    5  A    between atoms: C_11  and  C_13
REMARK    6  A    between atoms: C_14  and  C_15
REMARK    7  A    between atoms: C_16  and  C_17
REMARK                            x       y       z     vdW  Elec       q    Type
REMARK                         _______ _______ _______ _____ _____    ______ ____
ROOT
ATOM      2  O   UNL     1      13.662  10.122  18.080  0.00  0.00    -0.371 OA
ATOM      9  C   UNL     1      13.649  10.471  15.730  0.00  0.00    +0.111 C 
ATOM     10  C   UNL     1      13.095   9.090  16.029  0.00  0.00    +0.164 C 
ATOM     11  C   UNL     1      12.689   9.245  17.488  0.00  0.00    +0.165 C 
ATOM     12  C   UNL     1      14.379  10.788  17.026  0.00  0.00    +0.181 C 
ENDROOT
BRANCH  10   3
ATOM      3  O   UNL     1      11.994   8.754  15.207  0.00  0.00    -0.388 OA
ATOM     26  H   UNL     1      11.333   9.463  15.278  0.00  0.00    +0.210 HD
ENDBRANCH  10   3
BRANCH   9   5
ATOM      5  N   UNL     1      14.519  10.511  14.567  0.00  0.00    -0.302 NA
ATOM     25  H   UNL     1      14.025  10.965  13.796  0.00  0.00    +0.123 HD
BRANCH   5  14
ATOM     14  C   UNL     1      15.739  11.259  14.849  0.00  0.00    +0.156 C 
BRANCH  14  15
ATOM      7  N   UNL     1      15.933  11.420  12.357  0.00  0.00    -0.347 N 
ATOM      8  N   UNL     1      17.343  12.682  13.520  0.00  0.00    -0.240 NA
ATOM     15  C   UNL     1      16.363  11.809  13.594  0.00  0.00    +0.121 A 
ATOM     18  C   UNL     1      16.688  12.087  11.433  0.00  0.00    +0.104 A 
ATOM     19  C   UNL     1      17.551  12.860  12.175  0.00  0.00    +0.130 A 
ATOM     28  H   UNL     1      15.193  10.761  12.158  0.00  0.00    +0.167 HD
ENDBRANCH  14  15
ENDBRANCH   5  14
ENDBRANCH   9   5
BRANCH  11  13
ATOM     13  C   UNL     1      12.655   7.929  18.245  0.00  0.00    +0.138 C 
BRANCH  13   6
ATOM      4  O   UNL     1      13.823   7.539  20.839  0.00  0.00    -0.270 OA
ATOM      6  N   UNL     1      13.980   7.455  18.526  0.00  0.00    -0.309 N 
ATOM     16  C   UNL     1      14.464   7.296  19.820  0.00  0.00    +0.244 C 
ATOM     27  H   UNL     1      14.586   7.303  17.728  0.00  0.00    +0.149 HD
BRANCH  16  17
ATOM      1  F   UNL     1      19.763   5.497  20.281  0.00  0.00    -0.205 F 
ATOM     17  C   UNL     1      15.866   6.820  19.942  0.00  0.00    +0.037 A 
ATOM     20  C   UNL     1      16.443   6.079  18.911  0.00  0.00    +0.016 A 
ATOM     21  C   UNL     1      16.606   7.113  21.088  0.00  0.00    +0.016 A 
ATOM     22  C   UNL     1      17.760   5.632  19.025  0.00  0.00    +0.039 A 
ATOM     23  C   UNL     1      17.921   6.666  21.203  0.00  0.00    +0.039 A 
ATOM     24  C   UNL     1      18.499   5.925  20.171  0.00  0.00    +0.123 A 
ENDBRANCH  16  17
ENDBRANCH  13   6
ENDBRANCH  11  13
TORSDOF 7
ENDMDL
MODEL 6
REMARK VINA RESULT:      -6.3      2.959      7.307
REMARK  Name = 75536646
REMARK  7 active torsions:
REMARK  status: ('A' for Active; 'I' for Inactive)
REMARK    1  A    between atoms: O_3  and  C_10
REMARK    2  A    between atoms: N_5  and  C_9
REMARK    3  A    between atoms: N_5  and  C_14
REMARK    4  A    between atoms: N_6  and  C_13
REMARK    5  A    between atoms: C_11  and  C_13
REMARK    6  A    between atoms: C_14  and  C_15
REMARK    7  A    between atoms: C_16  and  C_17
REMARK                            x       y       z     vdW  Elec       q    Type
REMARK                         _______ _______ _______ _____ _____    ______ ____
ROOT
ATOM      2  O   UNL     1      12.856   7.934  17.791  0.00  0.00    -0.371 OA
ATOM      9  C   UNL     1      14.565   6.990  19.144  0.00  0.00    +0.111 C 
ATOM     10  C   UNL     1      13.411   7.417  20.032  0.00  0.00    +0.164 C 
ATOM     11  C   UNL     1      12.271   7.478  19.023  0.00  0.00    +0.165 C 
ATOM     12  C   UNL     1      14.284   7.788  17.881  0.00  0.00    +0.181 C 
ENDROOT
BRANCH  10   3
ATOM      3  O   UNL     1      13.148   6.492  21.069  0.00  0.00    -0.388 OA
ATOM     26  H   UNL     1      13.031   5.613  20.672  0.00  0.00    +0.210 HD
ENDBRANCH  10   3
BRANCH   9   5
ATOM      5  N   UNL     1      15.873   7.273  19.712  0.00  0.00    -0.302 NA
ATOM     25  H   UNL     1      15.793   7.315  20.730  0.00  0.00    +0.123 HD
BRANCH   5  14
ATOM     14  C   UNL     1      16.835   6.236  19.358  0.00  0.00    +0.156 C 
BRANCH  14  15
ATOM      7  N   UNL     1      19.230   5.687  19.849  0.00  0.00    -0.347 N 
ATOM      8  N   UNL     1      18.173   6.877  21.398  0.00  0.00    -0.240 NA
ATOM     15  C   UNL     1      18.062   6.287  20.229  0.00  0.00    +0.121 A 
ATOM     18  C   UNL     1      20.144   5.908  20.840  0.00  0.00    +0.104 A 
ATOM     19  C   UNL     1      19.470   6.645  21.785  0.00  0.00    +0.130 A 
ATOM     28  H   UNL     1      19.390   5.173  18.993  0.00  0.00    +0.167 HD
ENDBRANCH  14  15
ENDBRANCH   5  14
ENDBRANCH   9   5
BRANCH  11  13
ATOM     13  C   UNL     1      11.151   8.415  19.438  0.00  0.00    +0.138 C 
BRANCH  13   6
ATOM      4  O   UNL     1      10.495   8.212  22.226  0.00  0.00    -0.270 OA
ATOM      6  N   UNL     1      11.574   9.301  20.485  0.00  0.00    -0.309 N 
ATOM     16  C   UNL     1      11.205   9.125  21.815  0.00  0.00    +0.244 C 
ATOM     27  H   UNL     1      12.104  10.117  20.203  0.00  0.00    +0.149 HD
BRANCH  16  17
ATOM      1  F   UNL     1      13.088  12.974  25.444  0.00  0.00    -0.205 F 
ATOM     17  C   UNL     1      11.703  10.143  22.775  0.00  0.00    +0.037 A 
ATOM     20  C   UNL     1      10.850  10.659  23.750  0.00  0.00    +0.016 A 
ATOM     21  C   UNL     1      13.024  10.585  22.701  0.00  0.00    +0.016 A 
ATOM     22  C   UNL     1      11.317  11.616  24.652  0.00  0.00    +0.039 A 
ATOM     23  C   UNL     1      13.492  11.541  23.602  0.00  0.00    +0.039 A 
ATOM     24  C   UNL     1      12.639  12.056  24.577  0.00  0.00    +0.123 A 
ENDBRANCH  16  17
ENDBRANCH  13   6
ENDBRANCH  11  13
TORSDOF 7
ENDMDL
MODEL 7
REMARK VINA RESULT:      -6.3     13.832     15.228
REMARK  Name = 75536646
REMARK  7 active torsions:
REMARK  status: ('A' for Active; 'I' for Inactive)
REMARK    1  A    between atoms: O_3  and  C_10
REMARK    2  A    between atoms: N_5  and  C_9
REMARK    3  A    between atoms: N_5  and  C_14
REMARK    4  A    between atoms: N_6  and  C_13
REMARK    5  A    between atoms: C_11  and  C_13
REMARK    6  A    between atoms: C_14  and  C_15
REMARK    7  A    between atoms: C_16  and  C_17
REMARK                            x       y       z     vdW  Elec       q    Type
REMARK                         _______ _______ _______ _____ _____    ______ ____
ROOT
ATOM      2  O   UNL     1      12.737   9.689   6.336  0.00  0.00    -0.371 OA
ATOM      9  C   UNL     1      12.644   7.366   6.824  0.00  0.00    +0.111 C 
ATOM     10  C   UNL     1      14.042   7.716   6.347  0.00  0.00    +0.164 C 
ATOM     11  C   UNL     1      14.070   9.217   6.597  0.00  0.00    +0.165 C 
ATOM     12  C   UNL     1      11.847   8.558   6.321  0.00  0.00    +0.181 C 
ENDROOT
BRANCH  10   3
ATOM      3  O   UNL     1      15.051   7.041   7.072  0.00  0.00    -0.388 OA
ATOM     26  H   UNL     1      14.752   6.941   7.992  0.00  0.00    +0.210 HD
ENDBRANCH  10   3
BRANCH   9   5
ATOM      5  N   UNL     1      12.152   6.099   6.309  0.00  0.00    -0.302 NA
ATOM     25  H   UNL     1      12.487   5.342   6.908  0.00  0.00    +0.123 HD
BRANCH   5  14
ATOM     14  C   UNL     1      10.694   6.072   6.287  0.00  0.00    +0.156 C 
BRANCH  14  15
ATOM      7  N   UNL     1      10.223   4.173   7.852  0.00  0.00    -0.347 N 
ATOM      8  N   UNL     1       9.492   6.167   8.503  0.00  0.00    -0.240 NA
ATOM     15  C   UNL     1      10.123   5.505   7.559  0.00  0.00    +0.121 A 
ATOM     18  C   UNL     1       9.616   3.973   9.059  0.00  0.00    +0.104 A 
ATOM     19  C   UNL     1       9.172   5.218   9.442  0.00  0.00    +0.130 A 
ATOM     28  H   UNL     1      10.664   3.465   7.281  0.00  0.00    +0.167 HD
ENDBRANCH  14  15
ENDBRANCH   5  14
ENDBRANCH   9   5
BRANCH  11  13
ATOM     13  C   UNL     1      15.058   9.955   5.711  0.00  0.00    +0.138 C 
BRANCH  13   6
ATOM      4  O   UNL     1      17.698  10.873   6.368  0.00  0.00    -0.270 OA
ATOM      6  N   UNL     1      16.282   9.219   5.569  0.00  0.00    -0.309 N 
ATOM     16  C   UNL     1      17.522   9.746   5.914  0.00  0.00    +0.244 C 
ATOM     27  H   UNL     1      16.215   8.306   5.133  0.00  0.00    +0.149 HD
BRANCH  16  17
ATOM      1  F   UNL     1      21.962   6.421   5.040  0.00  0.00    -0.205 F 
ATOM     17  C   UNL     1      18.697   8.866   5.683  0.00  0.00    +0.037 A 
ATOM     20  C   UNL     1      18.893   8.280   4.433  0.00  0.00    +0.016 A 
ATOM     21  C   UNL     1      19.603   8.627   6.715  0.00  0.00    +0.016 A 
ATOM     22  C   UNL     1      19.996   7.453   4.215  0.00  0.00    +0.039 A 
ATOM     23  C   UNL     1      20.706   7.801   6.499  0.00  0.00    +0.039 A 
ATOM     24  C   UNL     1      20.902   7.214   5.249  0.00  0.00    +0.123 A 
ENDBRANCH  16  17
ENDBRANCH  13   6
ENDBRANCH  11  13
TORSDOF 7
ENDMDL
MODEL 8
REMARK VINA RESULT:      -6.1     26.949     28.282
REMARK  Name = 75536646
REMARK  7 active torsions:
REMARK  status: ('A' for Active; 'I' for Inactive)
REMARK    1  A    between atoms: O_3  and  C_10
REMARK    2  A    between atoms: N_5  and  C_9
REMARK    3  A    between atoms: N_5  and  C_14
REMARK    4  A    between atoms: N_6  and  C_13
REMARK    5  A    between atoms: C_11  and  C_13
REMARK    6  A    between atoms: C_14  and  C_15
REMARK    7  A    between atoms: C_16  and  C_17
REMARK                            x       y       z     vdW  Elec       q    Type
REMARK                         _______ _______ _______ _____ _____    ______ ____
ROOT
ATOM      2  O   UNL     1      -5.286 -10.227  16.785  0.00  0.00    -0.371 OA
ATOM      9  C   UNL     1      -5.442 -10.748  19.097  0.00  0.00    +0.111 C 
ATOM     10  C   UNL     1      -4.579 -11.791  18.412  0.00  0.00    +0.164 C 
ATOM     11  C   UNL     1      -4.163 -11.046  17.151  0.00  0.00    +0.165 C 
ATOM     12  C   UNL     1      -6.175 -10.139  17.913  0.00  0.00    +0.181 C 
ENDROOT
BRANCH  10   3
ATOM      3  O   UNL     1      -3.463 -12.174  19.191  0.00  0.00    -0.388 OA
ATOM     26  H   UNL     1      -3.784 -12.677  19.959  0.00  0.00    +0.210 HD
ENDBRANCH  10   3
BRANCH   9   5
ATOM      5  N   UNL     1      -6.342 -11.300  20.095  0.00  0.00    -0.302 NA
ATOM     25  H   UNL     1      -6.905 -10.546  20.492  0.00  0.00    +0.123 HD
BRANCH   5  14
ATOM     14  C   UNL     1      -7.234 -12.293  19.507  0.00  0.00    +0.156 C 
BRANCH  14  15
ATOM      7  N   UNL     1      -9.119 -10.663  19.764  0.00  0.00    -0.347 N 
ATOM      8  N   UNL     1      -9.663 -12.808  19.953  0.00  0.00    -0.240 NA
ATOM     15  C   UNL     1      -8.682 -11.958  19.744  0.00  0.00    +0.121 A 
ATOM     18  C   UNL     1     -10.464 -10.688  20.000  0.00  0.00    +0.104 A 
ATOM     19  C   UNL     1     -10.777 -12.023  20.113  0.00  0.00    +0.130 A 
ATOM     28  H   UNL     1      -8.552  -9.836  19.627  0.00  0.00    +0.167 HD
ENDBRANCH  14  15
ENDBRANCH   5  14
ENDBRANCH   9   5
BRANCH  11  13
ATOM     13  C   UNL     1      -3.803 -11.969  16.000  0.00  0.00    +0.138 C 
BRANCH  13   6
ATOM      4  O   UNL     1      -1.852 -11.866  13.895  0.00  0.00    -0.270 OA
ATOM      6  N   UNL     1      -3.940 -11.303  14.735  0.00  0.00    -0.309 N 
ATOM     16  C   UNL     1      -2.938 -11.305  13.771  0.00  0.00    +0.244 C 
ATOM     27  H   UNL     1      -4.785 -10.760  14.597  0.00  0.00    +0.149 HD
BRANCH  16  17
ATOM      1  F   UNL     1      -4.020  -8.442   9.064  0.00  0.00    -0.205 F 
ATOM     17  C   UNL     1      -3.224 -10.548  12.525  0.00  0.00    +0.037 A 
ATOM     20  C   UNL     1      -4.541 -10.240  12.184  0.00  0.00    +0.016 A 
ATOM     21  C   UNL     1      -2.177 -10.145  11.697  0.00  0.00    +0.016 A 
ATOM     22  C   UNL     1      -4.810  -9.528  11.014  0.00  0.00    +0.039 A 
ATOM     23  C   UNL     1      -2.445  -9.434  10.528  0.00  0.00    +0.039 A 
ATOM     24  C   UNL     1      -3.762  -9.126  10.186  0.00  0.00    +0.123 A 
ENDBRANCH  16  17
ENDBRANCH  13   6
ENDBRANCH  11  13
TORSDOF 7
ENDMDL
MODEL 9
REMARK VINA RESULT:      -6.1      3.526      7.914
REMARK  Name = 75536646
REMARK  7 active torsions:
REMARK  status: ('A' for Active; 'I' for Inactive)
REMARK    1  A    between atoms: O_3  and  C_10
REMARK    2  A    between atoms: N_5  and  C_9
REMARK    3  A    between atoms: N_5  and  C_14
REMARK    4  A    between atoms: N_6  and  C_13
REMARK    5  A    between atoms: C_11  and  C_13
REMARK    6  A    between atoms: C_14  and  C_15
REMARK    7  A    between atoms: C_16  and  C_17
REMARK                            x       y       z     vdW  Elec       q    Type
REMARK                         _______ _______ _______ _____ _____    ______ ____
ROOT
ATOM      2  O   UNL     1      11.959   8.701  18.963  0.00  0.00    -0.371 OA
ATOM      9  C   UNL     1      12.707   7.130  20.581  0.00  0.00    +0.111 C 
ATOM     10  C   UNL     1      12.707   8.516  21.200  0.00  0.00    +0.164 C 
ATOM     11  C   UNL     1      11.746   9.251  20.275  0.00  0.00    +0.165 C 
ATOM     12  C   UNL     1      12.681   7.463  19.098  0.00  0.00    +0.181 C 
ENDROOT
BRANCH  10   3
ATOM      3  O   UNL     1      12.253   8.516  22.539  0.00  0.00    -0.388 OA
ATOM     26  H   UNL     1      11.791   7.677  22.705  0.00  0.00    +0.210 HD
ENDBRANCH  10   3
BRANCH   9   5
ATOM      5  N   UNL     1      13.855   6.323  20.959  0.00  0.00    -0.302 NA
ATOM     25  H   UNL     1      14.079   5.682  20.195  0.00  0.00    +0.123 HD
BRANCH   5  14
ATOM     14  C   UNL     1      15.020   7.160  21.227  0.00  0.00    +0.156 C 
BRANCH  14  15
ATOM      7  N   UNL     1      16.176   6.050  19.302  0.00  0.00    -0.347 N 
ATOM      8  N   UNL     1      17.488   6.705  20.970  0.00  0.00    -0.240 NA
ATOM     15  C   UNL     1      16.251   6.649  20.528  0.00  0.00    +0.121 A 
ATOM     18  C   UNL     1      17.446   5.700  18.939  0.00  0.00    +0.104 A 
ATOM     19  C   UNL     1      18.238   6.114  19.984  0.00  0.00    +0.130 A 
ATOM     28  H   UNL     1      15.336   5.893  18.761  0.00  0.00    +0.167 HD
ENDBRANCH  14  15
ENDBRANCH   5  14
ENDBRANCH   9   5
BRANCH  11  13
ATOM     13  C   UNL     1      11.972  10.752  20.245  0.00  0.00    +0.138 C 
BRANCH  13   6
ATOM      4  O   UNL     1      11.982  13.556  20.864  0.00  0.00    -0.270 OA
ATOM      6  N   UNL     1      11.664  11.351  21.512  0.00  0.00    -0.309 N 
ATOM     16  C   UNL     1      11.696  12.726  21.722  0.00  0.00    +0.244 C 
ATOM     27  H   UNL     1      11.488  10.717  22.283  0.00  0.00    +0.149 HD
BRANCH  16  17
ATOM      1  F   UNL     1      10.492  14.468  26.923  0.00  0.00    -0.205 F 
ATOM     17  C   UNL     1      11.377  13.187  23.098  0.00  0.00    +0.037 A 
ATOM     20  C   UNL     1      12.122  12.719  24.180  0.00  0.00    +0.016 A 
ATOM     21  C   UNL     1      10.333  14.087  23.308  0.00  0.00    +0.016 A 
ATOM     22  C   UNL     1      11.823  13.151  25.473  0.00  0.00    +0.039 A 
ATOM     23  C   UNL     1      10.034  14.520  24.600  0.00  0.00    +0.039 A 
ATOM     24  C   UNL     1      10.779  14.052  25.682  0.00  0.00    +0.123 A 
ENDBRANCH  16  17
ENDBRANCH  13   6
ENDBRANCH  11  13
TORSDOF 7
ENDMDL
MODEL 10
REMARK VINA RESULT:      -6.1     27.669     29.460
REMARK  Name = 75536646
REMARK  7 active torsions:
REMARK  status: ('A' for Active; 'I' for Inactive)
REMARK    1  A    between atoms: O_3  and  C_10
REMARK    2  A    between atoms: N_5  and  C_9
REMARK    3  A    between atoms: N_5  and  C_14
REMARK    4  A    between atoms: N_6  and  C_13
REMARK    5  A    between atoms: C_11  and  C_13
REMARK    6  A    between atoms: C_14  and  C_15
REMARK    7  A    between atoms: C_16  and  C_17
REMARK                            x       y       z     vdW  Elec       q    Type
REMARK                         _______ _______ _______ _____ _____    ______ ____
ROOT
ATOM      2  O   UNL     1     -12.324  -9.017  17.073  0.00  0.00    -0.371 OA
ATOM      9  C   UNL     1     -11.708  -7.293  15.558  0.00  0.00    +0.111 C 
ATOM     10  C   UNL     1     -10.518  -7.627  16.439  0.00  0.00    +0.164 C 
ATOM     11  C   UNL     1     -10.893  -9.020  16.926  0.00  0.00    +0.165 C 
ATOM     12  C   UNL     1     -12.854  -7.881  16.367  0.00  0.00    +0.181 C 
ENDROOT
BRANCH  10   3
ATOM      3  O   UNL     1      -9.296  -7.629  15.727  0.00  0.00    -0.388 OA
ATOM     26  H   UNL     1      -8.640  -7.131  16.244  0.00  0.00    +0.210 HD
ENDBRANCH  10   3
BRANCH   9   5
ATOM      5  N   UNL     1     -11.866  -5.871  15.306  0.00  0.00    -0.302 NA
ATOM     25  H   UNL     1     -11.042  -5.526  14.811  0.00  0.00    +0.123 HD
BRANCH   5  14
ATOM     14  C   UNL     1     -13.048  -5.610  14.492  0.00  0.00    +0.156 C 
BRANCH  14  15
ATOM      7  N   UNL     1     -12.359  -5.606  12.083  0.00  0.00    -0.347 N 
ATOM      8  N   UNL     1     -12.675  -3.608  13.002  0.00  0.00    -0.240 NA
ATOM     15  C   UNL     1     -12.699  -4.906  13.207  0.00  0.00    +0.121 A 
ATOM     18  C   UNL     1     -12.101  -4.695  11.097  0.00  0.00    +0.104 A 
ATOM     19  C   UNL     1     -12.303  -3.470  11.687  0.00  0.00    +0.130 A 
ATOM     28  H   UNL     1     -12.308  -6.611  11.994  0.00  0.00    +0.167 HD
ENDBRANCH  14  15
ENDBRANCH   5  14
ENDBRANCH   9   5
BRANCH  11  13
ATOM     13  C   UNL     1     -10.242  -9.391  18.246  0.00  0.00    +0.138 C 
BRANCH  13   6
ATOM      4  O   UNL     1      -8.669 -11.126  19.908  0.00  0.00    -0.270 OA
ATOM      6  N   UNL     1      -8.857  -9.724  18.069  0.00  0.00    -0.309 N 
ATOM     16  C   UNL     1      -8.172 -10.577  18.928  0.00  0.00    +0.244 C 
ATOM     27  H   UNL     1      -8.368  -9.249  17.319  0.00  0.00    +0.149 HD
BRANCH  16  17
ATOM      1  F   UNL     1      -2.742 -11.421  17.775  0.00  0.00    -0.205 F 
ATOM     17  C   UNL     1      -6.736 -10.801  18.623  0.00  0.00    +0.037 A 
ATOM     20  C   UNL     1      -6.191 -10.312  17.436  0.00  0.00    +0.016 A 
ATOM     21  C   UNL     1      -5.931 -11.499  19.523  0.00  0.00    +0.016 A 
ATOM     22  C   UNL     1      -4.842 -10.522  17.149  0.00  0.00    +0.039 A 
ATOM     23  C   UNL     1      -4.583 -11.709  19.237  0.00  0.00    +0.039 A 
ATOM     24  C   UNL     1      -4.038 -11.221  18.050  0.00  0.00    +0.123 A 
ENDBRANCH  16  17
ENDBRANCH  13   6
ENDBRANCH  11  13
TORSDOF 7
ENDMDL
