MODEL 1
REMARK VINA RESULT:      -6.9      0.000      0.000
REMARK  Name = 38028914
REMARK  11 active torsions:
REMARK  status: ('A' for Active; 'I' for Inactive)
REMARK    1  A    between atoms: N_4  and  C_16
REMARK    2  A    between atoms: N_6  and  C_27
REMARK    3  A    between atoms: C_8  and  C_12
REMARK    4  A    between atoms: C_9  and  C_16
REMARK    5  A    between atoms: C_11  and  C_15
REMARK    6  A    between atoms: C_12  and  C_17
REMARK    7  A    between atoms: C_12  and  C_18
REMARK    8  A    between atoms: C_13  and  C_19
REMARK    9  A    between atoms: C_15  and  C_20
REMARK   10  A    between atoms: C_27  and  C_29
REMARK   11  A    between atoms: C_27  and  C_30
REMARK                            x       y       z     vdW  Elec       q    Type
REMARK                         _______ _______ _______ _____ _____    ______ ____
ROOT
ATOM      8  C   UNL     1      -6.885 -11.181  16.745  0.00  0.00    +0.000 C 
ATOM      9  C   UNL     1      -7.063 -11.371  18.273  0.00  0.00    +0.032 C 
ATOM     10  C   UNL     1      -5.791 -12.120  16.212  0.00  0.00    +0.012 C 
ATOM     11  C   UNL     1      -4.432 -11.878  16.896  0.00  0.00    +0.023 C 
ATOM     13  C   UNL     1      -4.568 -11.783  18.402  0.00  0.00    -0.073 C 
ATOM     14  C   UNL     1      -5.754 -11.570  19.000  0.00  0.00    -0.022 C 
ATOM     19  C   UNL     1      -3.316 -11.986  19.209  0.00  0.00    +0.039 C 
ENDROOT
BRANCH   8  12
ATOM     12  C   UNL     1      -8.192 -11.425  15.986  0.00  0.00    -0.013 C 
ATOM     17  C   UNL     1      -7.949 -11.387  14.480  0.00  0.00    +0.007 C 
ATOM     18  C   UNL     1      -8.808 -12.758  16.400  0.00  0.00    +0.007 C 
ENDBRANCH   8  12
BRANCH  11  15
ATOM     15  C   UNL     1      -3.743 -10.631  16.328  0.00  0.00    +0.103 C 
BRANCH  15  20
ATOM      1  O   UNL     1      -1.576 -11.395  15.725  0.00  0.00    -0.276 OA
ATOM      3  N   UNL     1      -3.057 -10.977  13.984  0.00  0.00    -0.298 N 
ATOM      5  N   UNL     1      -3.781 -11.095  11.185  0.00  0.00    -0.312 N 
ATOM      7  N   UNL     1      -4.564 -10.065   9.208  0.00  0.00    -0.240 NA
ATOM     20  C   UNL     1      -2.688 -11.039  15.329  0.00  0.00    +0.216 C 
ATOM     21  C   UNL     1      -2.090 -11.351  12.955  0.00  0.00    +0.126 C 
ATOM     22  C   UNL     1      -4.381 -10.564  13.514  0.00  0.00    +0.126 C 
ATOM     23  C   UNL     1      -2.765 -11.990  11.743  0.00  0.00    +0.125 C 
ATOM     24  C   UNL     1      -4.371 -10.083  12.064  0.00  0.00    +0.125 C 
ATOM     26  C   UNL     1      -4.147 -11.183   9.843  0.00  0.00    +0.121 A 
ATOM     28  C   UNL     1      -4.058 -12.429   9.243  0.00  0.00    +0.043 A 
ATOM     31  C   UNL     1      -4.420 -12.534   7.905  0.00  0.00    +0.005 A 
ATOM     32  C   UNL     1      -4.907 -10.206   7.908  0.00  0.00    +0.113 A 
ATOM     33  C   UNL     1      -4.854 -11.405   7.217  0.00  0.00    +0.020 A 
ENDBRANCH  15  20
ENDBRANCH  11  15
BRANCH   9  16
ATOM     16  C   UNL     1      -7.816 -10.188  18.892  0.00  0.00    +0.113 C 
BRANCH  16   4
ATOM      2  O   UNL     1     -10.656 -10.110  18.384  0.00  0.00    -0.253 OA
ATOM      4  N   UNL     1      -8.858 -10.648  19.756  0.00  0.00    -0.299 N 
ATOM      6  N   UNL     1     -11.017 -11.094  20.454  0.00  0.00    -0.297 N 
ATOM     25  C   UNL     1     -10.221 -10.575  19.437  0.00  0.00    +0.300 C 
ATOM     34  H   UNL     1      -8.600 -11.114  20.620  0.00  0.00    +0.150 HD
ATOM     35  H   UNL     1     -10.569 -11.382  21.319  0.00  0.00    +0.150 HD
BRANCH   6  27
ATOM     27  C   UNL     1     -12.458 -11.136  20.376  0.00  0.00    +0.068 C 
ATOM     29  C   UNL     1     -13.052  -9.798  20.795  0.00  0.00    +0.027 C 
ATOM     30  C   UNL     1     -13.007 -12.275  21.226  0.00  0.00    +0.027 C 
ENDBRANCH   6  27
ENDBRANCH  16   4
ENDBRANCH   9  16
TORSDOF 6
ENDMDL
MODEL 2
REMARK VINA RESULT:      -6.8     19.477     22.088
REMARK  Name = 38028914
REMARK  11 active torsions:
REMARK  status: ('A' for Active; 'I' for Inactive)
REMARK    1  A    between atoms: N_4  and  C_16
REMARK    2  A    between atoms: N_6  and  C_27
REMARK    3  A    between atoms: C_8  and  C_12
REMARK    4  A    between atoms: C_9  and  C_16
REMARK    5  A    between atoms: C_11  and  C_15
REMARK    6  A    between atoms: C_12  and  C_17
REMARK    7  A    between atoms: C_12  and  C_18
REMARK    8  A    between atoms: C_13  and  C_19
REMARK    9  A    between atoms: C_15  and  C_20
REMARK   10  A    between atoms: C_27  and  C_29
REMARK   11  A    between atoms: C_27  and  C_30
REMARK                            x       y       z     vdW  Elec       q    Type
REMARK                         _______ _______ _______ _____ _____    ______ ____
ROOT
ATOM      8  C   UNL     1     -15.358   6.301  21.544  0.00  0.00    +0.000 C 
ATOM      9  C   UNL     1     -14.215   5.360  21.999  0.00  0.00    +0.032 C 
ATOM     10  C   UNL     1     -15.060   6.873  20.149  0.00  0.00    +0.012 C 
ATOM     11  C   UNL     1     -13.736   7.661  20.114  0.00  0.00    +0.023 C 
ATOM     13  C   UNL     1     -12.612   6.904  20.790  0.00  0.00    -0.073 C 
ATOM     14  C   UNL     1     -12.844   5.870  21.619  0.00  0.00    -0.022 C 
ATOM     19  C   UNL     1     -11.210   7.332  20.457  0.00  0.00    +0.039 C 
ENDROOT
BRANCH   8  12
ATOM     12  C   UNL     1     -16.712   5.585  21.531  0.00  0.00    -0.013 C 
ATOM     17  C   UNL     1     -17.731   6.356  22.366  0.00  0.00    +0.007 C 
ATOM     18  C   UNL     1     -17.209   5.411  20.099  0.00  0.00    +0.007 C 
ENDBRANCH   8  12
BRANCH  11  15
ATOM     15  C   UNL     1     -13.908   9.054  20.730  0.00  0.00    +0.103 C 
BRANCH  15  20
ATOM      1  O   UNL     1     -15.401  10.201  19.283  0.00  0.00    -0.276 OA
ATOM      3  N   UNL     1     -13.153  10.766  19.122  0.00  0.00    -0.298 N 
ATOM      5  N   UNL     1     -11.024  12.446  18.112  0.00  0.00    -0.312 N 
ATOM      7  N   UNL     1      -8.929  12.713  17.055  0.00  0.00    -0.240 NA
ATOM     20  C   UNL     1     -14.233  10.056  19.650  0.00  0.00    +0.216 C 
ATOM     21  C   UNL     1     -13.385  11.751  18.069  0.00  0.00    +0.126 C 
ATOM     22  C   UNL     1     -11.767  10.600  19.566  0.00  0.00    +0.126 C 
ATOM     23  C   UNL     1     -12.409  12.922  18.157  0.00  0.00    +0.125 C 
ATOM     24  C   UNL     1     -10.752  11.066  18.522  0.00  0.00    +0.125 C 
ATOM     26  C   UNL     1     -10.001  13.275  17.656  0.00  0.00    +0.121 A 
ATOM     28  C   UNL     1     -10.154  14.637  17.854  0.00  0.00    +0.043 A 
ATOM     31  C   UNL     1      -9.143  15.478  17.406  0.00  0.00    +0.005 A 
ATOM     32  C   UNL     1      -7.965  13.562  16.632  0.00  0.00    +0.113 A 
ATOM     33  C   UNL     1      -8.023  14.938  16.781  0.00  0.00    +0.020 A 
ENDBRANCH  15  20
ENDBRANCH  11  15
BRANCH   9  16
ATOM     16  C   UNL     1     -14.268   5.118  23.512  0.00  0.00    +0.113 C 
BRANCH  16   4
ATOM      2  O   UNL     1     -16.529   4.348  25.131  0.00  0.00    -0.253 OA
ATOM      4  N   UNL     1     -14.709   3.789  23.797  0.00  0.00    -0.299 N 
ATOM      6  N   UNL     1     -16.029   2.123  24.707  0.00  0.00    -0.297 N 
ATOM     25  C   UNL     1     -15.822   3.494  24.595  0.00  0.00    +0.300 C 
ATOM     34  H   UNL     1     -14.236   3.013  23.344  0.00  0.00    +0.150 HD
ATOM     35  H   UNL     1     -15.346   1.496  24.294  0.00  0.00    +0.150 HD
BRANCH   6  27
ATOM     27  C   UNL     1     -17.110   1.554  25.478  0.00  0.00    +0.068 C 
ATOM     29  C   UNL     1     -16.616   1.136  26.856  0.00  0.00    +0.027 C 
ATOM     30  C   UNL     1     -17.736   0.380  24.735  0.00  0.00    +0.027 C 
ENDBRANCH   6  27
ENDBRANCH  16   4
ENDBRANCH   9  16
TORSDOF 6
ENDMDL
MODEL 3
REMARK VINA RESULT:      -6.8     26.498     30.383
REMARK  Name = 38028914
REMARK  11 active torsions:
REMARK  status: ('A' for Active; 'I' for Inactive)
REMARK    1  A    between atoms: N_4  and  C_16
REMARK    2  A    between atoms: N_6  and  C_27
REMARK    3  A    between atoms: C_8  and  C_12
REMARK    4  A    between atoms: C_9  and  C_16
REMARK    5  A    between atoms: C_11  and  C_15
REMARK    6  A    between atoms: C_12  and  C_17
REMARK    7  A    between atoms: C_12  and  C_18
REMARK    8  A    between atoms: C_13  and  C_19
REMARK    9  A    between atoms: C_15  and  C_20
REMARK   10  A    between atoms: C_27  and  C_29
REMARK   11  A    between atoms: C_27  and  C_30
REMARK                            x       y       z     vdW  Elec       q    Type
REMARK                         _______ _______ _______ _____ _____    ______ ____
ROOT
ATOM      8  C   UNL     1      10.432   6.989   6.199  0.00  0.00    +0.000 C 
ATOM      9  C   UNL     1      10.007   7.182   4.722  0.00  0.00    +0.032 C 
ATOM     10  C   UNL     1      10.830   8.336   6.823  0.00  0.00    +0.012 C 
ATOM     11  C   UNL     1      11.989   9.010   6.064  0.00  0.00    +0.023 C 
ATOM     13  C   UNL     1      11.765   8.998   4.566  0.00  0.00    -0.073 C 
ATOM     14  C   UNL     1      10.864   8.183   3.985  0.00  0.00    -0.022 C 
ATOM     19  C   UNL     1      12.565   9.976   3.753  0.00  0.00    +0.039 C 
ENDROOT
BRANCH   8  12
ATOM     12  C   UNL     1       9.323   6.340   7.031  0.00  0.00    -0.013 C 
ATOM     17  C   UNL     1       9.820   5.045   7.665  0.00  0.00    +0.007 C 
ATOM     18  C   UNL     1       8.824   7.308   8.101  0.00  0.00    +0.007 C 
ENDBRANCH   8  12
BRANCH  11  15
ATOM     15  C   UNL     1      13.333   8.364   6.423  0.00  0.00    +0.103 C 
BRANCH  15  20
ATOM      1  O   UNL     1      14.162  10.502   7.039  0.00  0.00    -0.276 OA
ATOM      3  N   UNL     1      15.637   9.090   5.930  0.00  0.00    -0.298 N 
ATOM      5  N   UNL     1      18.290   8.434   4.977  0.00  0.00    -0.312 N 
ATOM      7  N   UNL     1      19.757   7.757   3.254  0.00  0.00    -0.240 NA
ATOM     20  C   UNL     1      14.406   9.421   6.499  0.00  0.00    +0.216 C 
ATOM     21  C   UNL     1      16.728  10.063   5.959  0.00  0.00    +0.126 C 
ATOM     22  C   UNL     1      15.930   7.803   5.298  0.00  0.00    +0.126 C 
ATOM     23  C   UNL     1      18.092   9.387   6.072  0.00  0.00    +0.125 C 
ATOM     24  C   UNL     1      17.104   7.875   4.322  0.00  0.00    +0.125 C 
ATOM     26  C   UNL     1      19.573   8.099   4.549  0.00  0.00    +0.121 A 
ATOM     28  C   UNL     1      20.586   8.138   5.493  0.00  0.00    +0.043 A 
ATOM     31  C   UNL     1      21.872   7.806   5.082  0.00  0.00    +0.005 A 
ATOM     32  C   UNL     1      21.020   7.441   2.891  0.00  0.00    +0.113 A 
ATOM     33  C   UNL     1      22.102   7.449   3.757  0.00  0.00    +0.020 A 
ENDBRANCH  15  20
ENDBRANCH  11  15
BRANCH   9  16
ATOM     16  C   UNL     1      10.015   5.848   3.966  0.00  0.00    +0.113 C 
BRANCH  16   4
ATOM      2  O   UNL     1      11.031   3.405   2.817  0.00  0.00    -0.253 OA
ATOM      4  N   UNL     1      11.241   5.678   3.252  0.00  0.00    -0.299 N 
ATOM      6  N   UNL     1      12.895   4.571   2.074  0.00  0.00    -0.297 N 
ATOM     25  C   UNL     1      11.668   4.454   2.721  0.00  0.00    +0.300 C 
ATOM     34  H   UNL     1      11.806   6.499   3.057  0.00  0.00    +0.150 HD
ATOM     35  H   UNL     1      13.380   5.462   2.117  0.00  0.00    +0.150 HD
BRANCH   6  27
ATOM     27  C   UNL     1      13.556   3.454   1.442  0.00  0.00    +0.068 C 
ATOM     29  C   UNL     1      15.054   3.504   1.710  0.00  0.00    +0.027 C 
ATOM     30  C   UNL     1      13.262   3.435  -0.053  0.00  0.00    +0.027 C 
ENDBRANCH   6  27
ENDBRANCH  16   4
ENDBRANCH   9  16
TORSDOF 6
ENDMDL
MODEL 4
REMARK VINA RESULT:      -6.7      1.698      2.165
REMARK  Name = 38028914
REMARK  11 active torsions:
REMARK  status: ('A' for Active; 'I' for Inactive)
REMARK    1  A    between atoms: N_4  and  C_16
REMARK    2  A    between atoms: N_6  and  C_27
REMARK    3  A    between atoms: C_8  and  C_12
REMARK    4  A    between atoms: C_9  and  C_16
REMARK    5  A    between atoms: C_11  and  C_15
REMARK    6  A    between atoms: C_12  and  C_17
REMARK    7  A    between atoms: C_12  and  C_18
REMARK    8  A    between atoms: C_13  and  C_19
REMARK    9  A    between atoms: C_15  and  C_20
REMARK   10  A    between atoms: C_27  and  C_29
REMARK   11  A    between atoms: C_27  and  C_30
REMARK                            x       y       z     vdW  Elec       q    Type
REMARK                         _______ _______ _______ _____ _____    ______ ____
ROOT
ATOM      8  C   UNL     1      -7.435 -11.824  17.043  0.00  0.00    +0.000 C 
ATOM      9  C   UNL     1      -7.483 -12.066  18.572  0.00  0.00    +0.032 C 
ATOM     10  C   UNL     1      -6.212 -12.521  16.427  0.00  0.00    +0.012 C 
ATOM     11  C   UNL     1      -4.889 -12.026  17.042  0.00  0.00    +0.023 C 
ATOM     13  C   UNL     1      -4.952 -11.981  18.554  0.00  0.00    -0.073 C 
ATOM     14  C   UNL     1      -6.120 -12.013  19.222  0.00  0.00    -0.022 C 
ATOM     19  C   UNL     1      -3.640 -11.945  19.287  0.00  0.00    +0.039 C 
ENDROOT
BRANCH   8  12
ATOM     12  C   UNL     1      -8.712 -12.309  16.350  0.00  0.00    -0.013 C 
ATOM     17  C   UNL     1      -8.971 -11.501  15.082  0.00  0.00    +0.007 C 
ATOM     18  C   UNL     1      -8.611 -13.798  16.030  0.00  0.00    +0.007 C 
ENDBRANCH   8  12
BRANCH  11  15
ATOM     15  C   UNL     1      -4.491 -10.661  16.468  0.00  0.00    +0.103 C 
BRANCH  15  20
ATOM      1  O   UNL     1      -2.203 -11.033  15.951  0.00  0.00    -0.276 OA
ATOM      3  N   UNL     1      -3.642 -10.716  14.153  0.00  0.00    -0.298 N 
ATOM      5  N   UNL     1      -4.194 -10.730  11.313  0.00  0.00    -0.312 N 
ATOM      7  N   UNL     1      -5.029  -9.685   9.366  0.00  0.00    -0.240 NA
ATOM     20  C   UNL     1      -3.336 -10.823  15.511  0.00  0.00    +0.216 C 
ATOM     21  C   UNL     1      -2.577 -10.857  13.163  0.00  0.00    +0.126 C 
ATOM     22  C   UNL     1      -4.988 -10.478  13.631  0.00  0.00    +0.126 C 
ATOM     23  C   UNL     1      -3.078 -11.498  11.872  0.00  0.00    +0.125 C 
ATOM     24  C   UNL     1      -4.981  -9.891  12.220  0.00  0.00    +0.125 C 
ATOM     26  C   UNL     1      -4.473 -10.771   9.948  0.00  0.00    +0.121 A 
ATOM     28  C   UNL     1      -4.157 -11.938   9.272  0.00  0.00    +0.043 A 
ATOM     31  C   UNL     1      -4.430 -11.995   7.910  0.00  0.00    +0.005 A 
ATOM     32  C   UNL     1      -5.279  -9.777   8.040  0.00  0.00    +0.113 A 
ATOM     33  C   UNL     1      -5.001 -10.897   7.274  0.00  0.00    +0.020 A 
ENDBRANCH  15  20
ENDBRANCH  11  15
BRANCH   9  16
ATOM     16  C   UNL     1      -8.416 -11.063  19.262  0.00  0.00    +0.113 C 
BRANCH  16   4
ATOM      2  O   UNL     1     -11.035 -10.054  18.594  0.00  0.00    -0.253 OA
ATOM      4  N   UNL     1      -8.721  -9.973  18.390  0.00  0.00    -0.299 N 
ATOM      6  N   UNL     1     -10.036  -8.460  17.236  0.00  0.00    -0.297 N 
ATOM     25  C   UNL     1     -10.025  -9.540  18.115  0.00  0.00    +0.300 C 
ATOM     34  H   UNL     1      -7.954  -9.436  17.999  0.00  0.00    +0.150 HD
ATOM     35  H   UNL     1      -9.154  -8.157  16.833  0.00  0.00    +0.150 HD
BRANCH   6  27
ATOM     27  C   UNL     1     -11.254  -7.826  16.790  0.00  0.00    +0.068 C 
ATOM     29  C   UNL     1     -11.837  -8.576  15.600  0.00  0.00    +0.027 C 
ATOM     30  C   UNL     1     -11.001  -6.362  16.450  0.00  0.00    +0.027 C 
ENDBRANCH   6  27
ENDBRANCH  16   4
ENDBRANCH   9  16
TORSDOF 6
ENDMDL
MODEL 5
REMARK VINA RESULT:      -6.7      2.564      3.946
REMARK  Name = 38028914
REMARK  11 active torsions:
REMARK  status: ('A' for Active; 'I' for Inactive)
REMARK    1  A    between atoms: N_4  and  C_16
REMARK    2  A    between atoms: N_6  and  C_27
REMARK    3  A    between atoms: C_8  and  C_12
REMARK    4  A    between atoms: C_9  and  C_16
REMARK    5  A    between atoms: C_11  and  C_15
REMARK    6  A    between atoms: C_12  and  C_17
REMARK    7  A    between atoms: C_12  and  C_18
REMARK    8  A    between atoms: C_13  and  C_19
REMARK    9  A    between atoms: C_15  and  C_20
REMARK   10  A    between atoms: C_27  and  C_29
REMARK   11  A    between atoms: C_27  and  C_30
REMARK                            x       y       z     vdW  Elec       q    Type
REMARK                         _______ _______ _______ _____ _____    ______ ____
ROOT
ATOM      8  C   UNL     1      -4.882 -12.345  16.228  0.00  0.00    +0.000 C 
ATOM      9  C   UNL     1      -3.998 -11.822  17.388  0.00  0.00    +0.032 C 
ATOM     10  C   UNL     1      -4.011 -12.726  15.020  0.00  0.00    +0.012 C 
ATOM     11  C   UNL     1      -3.180 -11.538  14.503  0.00  0.00    +0.023 C 
ATOM     13  C   UNL     1      -2.487 -10.801  15.631  0.00  0.00    -0.073 C 
ATOM     14  C   UNL     1      -2.858 -10.952  16.916  0.00  0.00    -0.022 C 
ATOM     19  C   UNL     1      -1.327  -9.923  15.255  0.00  0.00    +0.039 C 
ENDROOT
BRANCH   8  12
ATOM     12  C   UNL     1      -5.730 -13.547  16.656  0.00  0.00    -0.013 C 
ATOM     17  C   UNL     1      -7.122 -13.464  16.038  0.00  0.00    +0.007 C 
ATOM     18  C   UNL     1      -5.041 -14.851  16.262  0.00  0.00    +0.007 C 
ENDBRANCH   8  12
BRANCH  11  15
ATOM     15  C   UNL     1      -4.043 -10.581  13.672  0.00  0.00    +0.103 C 
BRANCH  15  20
ATOM      1  O   UNL     1      -2.301 -10.797  12.072  0.00  0.00    -0.276 OA
ATOM      3  N   UNL     1      -4.298  -9.875  11.323  0.00  0.00    -0.298 N 
ATOM      5  N   UNL     1      -6.016  -8.930   9.194  0.00  0.00    -0.312 N 
ATOM      7  N   UNL     1      -7.420  -7.282   8.250  0.00  0.00    -0.240 NA
ATOM     20  C   UNL     1      -3.460 -10.434  12.289  0.00  0.00    +0.216 C 
ATOM     21  C   UNL     1      -3.805  -9.695   9.959  0.00  0.00    +0.126 C 
ATOM     22  C   UNL     1      -5.677  -9.453  11.577  0.00  0.00    +0.126 C 
ATOM     23  C   UNL     1      -4.915  -9.859   8.924  0.00  0.00    +0.125 C 
ATOM     24  C   UNL     1      -6.181  -8.430  10.561  0.00  0.00    +0.125 C 
ATOM     26  C   UNL     1      -6.858  -8.509   8.167  0.00  0.00    +0.121 A 
ATOM     28  C   UNL     1      -7.068  -9.389   7.118  0.00  0.00    +0.043 A 
ATOM     31  C   UNL     1      -7.906  -8.983   6.086  0.00  0.00    +0.005 A 
ATOM     32  C   UNL     1      -8.229  -6.922   7.228  0.00  0.00    +0.113 A 
ATOM     33  C   UNL     1      -8.502  -7.727   6.134  0.00  0.00    +0.020 A 
ENDBRANCH  15  20
ENDBRANCH  11  15
BRANCH   9  16
ATOM     16  C   UNL     1      -4.835 -11.054  18.417  0.00  0.00    +0.113 C 
BRANCH  16   4
ATOM      2  O   UNL     1      -7.663 -11.008  18.988  0.00  0.00    -0.253 OA
ATOM      4  N   UNL     1      -5.830 -10.259  17.770  0.00  0.00    -0.299 N 
ATOM      6  N   UNL     1      -7.937  -9.419  17.319  0.00  0.00    -0.297 N 
ATOM     25  C   UNL     1      -7.190 -10.292  18.105  0.00  0.00    +0.300 C 
ATOM     34  H   UNL     1      -5.533  -9.582  17.074  0.00  0.00    +0.150 HD
ATOM     35  H   UNL     1      -7.469  -8.929  16.563  0.00  0.00    +0.150 HD
BRANCH   6  27
ATOM     27  C   UNL     1      -9.366  -9.264  17.463  0.00  0.00    +0.068 C 
ATOM     29  C   UNL     1     -10.099 -10.301  16.622  0.00  0.00    +0.027 C 
ATOM     30  C   UNL     1      -9.790  -7.849  17.089  0.00  0.00    +0.027 C 
ENDBRANCH   6  27
ENDBRANCH  16   4
ENDBRANCH   9  16
TORSDOF 6
ENDMDL
MODEL 6
REMARK VINA RESULT:      -6.7      3.350      9.261
REMARK  Name = 38028914
REMARK  11 active torsions:
REMARK  status: ('A' for Active; 'I' for Inactive)
REMARK    1  A    between atoms: N_4  and  C_16
REMARK    2  A    between atoms: N_6  and  C_27
REMARK    3  A    between atoms: C_8  and  C_12
REMARK    4  A    between atoms: C_9  and  C_16
REMARK    5  A    between atoms: C_11  and  C_15
REMARK    6  A    between atoms: C_12  and  C_17
REMARK    7  A    between atoms: C_12  and  C_18
REMARK    8  A    between atoms: C_13  and  C_19
REMARK    9  A    between atoms: C_15  and  C_20
REMARK   10  A    between atoms: C_27  and  C_29
REMARK   11  A    between atoms: C_27  and  C_30
REMARK                            x       y       z     vdW  Elec       q    Type
REMARK                         _______ _______ _______ _____ _____    ______ ____
ROOT
ATOM      8  C   UNL     1      -3.646 -10.746  11.262  0.00  0.00    +0.000 C 
ATOM      9  C   UNL     1      -3.862  -9.843  10.022  0.00  0.00    +0.032 C 
ATOM     10  C   UNL     1      -3.202 -12.153  10.831  0.00  0.00    +0.012 C 
ATOM     11  C   UNL     1      -4.231 -12.830   9.906  0.00  0.00    +0.023 C 
ATOM     13  C   UNL     1      -4.697 -11.900   8.805  0.00  0.00    -0.073 C 
ATOM     14  C   UNL     1      -4.512 -10.569   8.868  0.00  0.00    -0.022 C 
ATOM     19  C   UNL     1      -5.342 -12.539   7.606  0.00  0.00    +0.039 C 
ENDROOT
BRANCH   8  12
ATOM     12  C   UNL     1      -2.617 -10.151  12.228  0.00  0.00    -0.013 C 
ATOM     17  C   UNL     1      -2.236 -11.171  13.296  0.00  0.00    +0.007 C 
ATOM     18  C   UNL     1      -1.382  -9.681  11.465  0.00  0.00    +0.007 C 
ENDBRANCH   8  12
BRANCH  11  15
ATOM     15  C   UNL     1      -5.421 -13.372  10.708  0.00  0.00    +0.103 C 
BRANCH  15  20
ATOM      1  O   UNL     1      -4.313 -15.275  11.596  0.00  0.00    -0.276 OA
ATOM      3  N   UNL     1      -5.207 -13.777  13.131  0.00  0.00    -0.298 N 
ATOM      5  N   UNL     1      -5.547 -12.820  15.841  0.00  0.00    -0.312 N 
ATOM      7  N   UNL     1      -6.925 -12.111  17.624  0.00  0.00    -0.240 NA
ATOM     20  C   UNL     1      -4.925 -14.233  11.842  0.00  0.00    +0.216 C 
ATOM     21  C   UNL     1      -4.765 -14.558  14.284  0.00  0.00    +0.126 C 
ATOM     22  C   UNL     1      -5.925 -12.535  13.423  0.00  0.00    +0.126 C 
ATOM     23  C   UNL     1      -4.411 -13.670  15.474  0.00  0.00    +0.125 C 
ATOM     24  C   UNL     1      -6.552 -12.527  14.816  0.00  0.00    +0.125 C 
ATOM     26  C   UNL     1      -5.682 -12.336  17.141  0.00  0.00    +0.121 A 
ATOM     28  C   UNL     1      -4.518 -12.115  17.858  0.00  0.00    +0.043 A 
ATOM     31  C   UNL     1      -4.636 -11.631  19.156  0.00  0.00    +0.005 A 
ATOM     32  C   UNL     1      -7.000 -11.642  18.889  0.00  0.00    +0.113 A 
ATOM     33  C   UNL     1      -5.898 -11.388  19.690  0.00  0.00    +0.020 A 
ENDBRANCH  15  20
ENDBRANCH  11  15
BRANCH   9  16
ATOM     16  C   UNL     1      -4.692  -8.604  10.379  0.00  0.00    +0.113 C 
BRANCH  16   4
ATOM      2  O   UNL     1      -7.539  -8.444   9.939  0.00  0.00    -0.253 OA
ATOM      4  N   UNL     1      -5.356  -8.090   9.223  0.00  0.00    -0.299 N 
ATOM      6  N   UNL     1      -7.129  -7.496   7.861  0.00  0.00    -0.297 N 
ATOM     25  C   UNL     1      -6.750  -8.045   9.083  0.00  0.00    +0.300 C 
ATOM     34  H   UNL     1      -4.795  -7.670   8.488  0.00  0.00    +0.150 HD
ATOM     35  H   UNL     1      -6.403  -7.268   7.188  0.00  0.00    +0.150 HD
BRANCH   6  27
ATOM     27  C   UNL     1      -8.509  -7.338   7.468  0.00  0.00    +0.068 C 
ATOM     29  C   UNL     1      -8.636  -7.377   5.951  0.00  0.00    +0.027 C 
ATOM     30  C   UNL     1      -9.083  -6.047   8.038  0.00  0.00    +0.027 C 
ENDBRANCH   6  27
ENDBRANCH  16   4
ENDBRANCH   9  16
TORSDOF 6
ENDMDL
MODEL 7
REMARK VINA RESULT:      -6.6     28.345     30.849
REMARK  Name = 38028914
REMARK  11 active torsions:
REMARK  status: ('A' for Active; 'I' for Inactive)
REMARK    1  A    between atoms: N_4  and  C_16
REMARK    2  A    between atoms: N_6  and  C_27
REMARK    3  A    between atoms: C_8  and  C_12
REMARK    4  A    between atoms: C_9  and  C_16
REMARK    5  A    between atoms: C_11  and  C_15
REMARK    6  A    between atoms: C_12  and  C_17
REMARK    7  A    between atoms: C_12  and  C_18
REMARK    8  A    between atoms: C_13  and  C_19
REMARK    9  A    between atoms: C_15  and  C_20
REMARK   10  A    between atoms: C_27  and  C_29
REMARK   11  A    between atoms: C_27  and  C_30
REMARK                            x       y       z     vdW  Elec       q    Type
REMARK                         _______ _______ _______ _____ _____    ______ ____
ROOT
ATOM      8  C   UNL     1      12.931  12.699  23.594  0.00  0.00    +0.000 C 
ATOM      9  C   UNL     1      11.593  12.727  24.373  0.00  0.00    +0.032 C 
ATOM     10  C   UNL     1      13.122  14.007  22.809  0.00  0.00    +0.012 C 
ATOM     11  C   UNL     1      11.979  14.257  21.808  0.00  0.00    +0.023 C 
ATOM     13  C   UNL     1      10.619  14.038  22.438  0.00  0.00    -0.073 C 
ATOM     14  C   UNL     1      10.467  13.363  23.592  0.00  0.00    -0.022 C 
ATOM     19  C   UNL     1       9.440  14.653  21.736  0.00  0.00    +0.039 C 
ENDROOT
BRANCH   8  12
ATOM     12  C   UNL     1      14.127  12.474  24.525  0.00  0.00    -0.013 C 
ATOM     17  C   UNL     1      15.436  12.610  23.754  0.00  0.00    +0.007 C 
ATOM     18  C   UNL     1      14.083  13.455  25.693  0.00  0.00    +0.007 C 
ENDBRANCH   8  12
BRANCH  11  15
ATOM     15  C   UNL     1      12.147  13.393  20.552  0.00  0.00    +0.103 C 
BRANCH  15  20
ATOM      1  O   UNL     1      14.095  14.488  19.747  0.00  0.00    -0.276 OA
ATOM      3  N   UNL     1      14.258  12.197  20.105  0.00  0.00    -0.298 N 
ATOM      5  N   UNL     1      15.808   9.761  20.284  0.00  0.00    -0.312 N 
ATOM      7  N   UNL     1      16.178   7.500  19.708  0.00  0.00    -0.240 NA
ATOM     20  C   UNL     1      13.586  13.421  20.099  0.00  0.00    +0.216 C 
ATOM     21  C   UNL     1      15.653  12.140  19.676  0.00  0.00    +0.126 C 
ATOM     22  C   UNL     1      13.656  10.933  20.532  0.00  0.00    +0.126 C 
ATOM     23  C   UNL     1      16.441  11.074  20.433  0.00  0.00    +0.125 C 
ATOM     24  C   UNL     1      14.379   9.712  19.966  0.00  0.00    +0.125 C 
ATOM     26  C   UNL     1      16.559   8.593  20.407  0.00  0.00    +0.121 A 
ATOM     28  C   UNL     1      17.658   8.631  21.249  0.00  0.00    +0.043 A 
ATOM     31  C   UNL     1      18.416   7.473  21.383  0.00  0.00    +0.005 A 
ATOM     32  C   UNL     1      16.939   6.393  19.862  0.00  0.00    +0.113 A 
ATOM     33  C   UNL     1      18.057   6.328  20.679  0.00  0.00    +0.020 A 
ENDBRANCH  15  20
ENDBRANCH  11  15
BRANCH   9  16
ATOM     16  C   UNL     1      11.177  11.316  24.808  0.00  0.00    +0.113 C 
BRANCH  16   4
ATOM      2  O   UNL     1       9.789   9.602  22.948  0.00  0.00    -0.253 OA
ATOM      4  N   UNL     1      11.756  10.330  23.951  0.00  0.00    -0.299 N 
ATOM      6  N   UNL     1      11.824   8.659  22.354  0.00  0.00    -0.297 N 
ATOM     25  C   UNL     1      11.012   9.533  23.070  0.00  0.00    +0.300 C 
ATOM     34  H   UNL     1      12.767  10.244  23.924  0.00  0.00    +0.150 HD
ATOM     35  H   UNL     1      12.813   8.621  22.583  0.00  0.00    +0.150 HD
BRANCH   6  27
ATOM     27  C   UNL     1      11.304   7.727  21.381  0.00  0.00    +0.068 C 
ATOM     29  C   UNL     1      12.319   6.625  21.107  0.00  0.00    +0.027 C 
ATOM     30  C   UNL     1      10.918   8.454  20.099  0.00  0.00    +0.027 C 
ENDBRANCH   6  27
ENDBRANCH  16   4
ENDBRANCH   9  16
TORSDOF 6
ENDMDL
MODEL 8
REMARK VINA RESULT:      -6.6      2.443      9.359
REMARK  Name = 38028914
REMARK  11 active torsions:
REMARK  status: ('A' for Active; 'I' for Inactive)
REMARK    1  A    between atoms: N_4  and  C_16
REMARK    2  A    between atoms: N_6  and  C_27
REMARK    3  A    between atoms: C_8  and  C_12
REMARK    4  A    between atoms: C_9  and  C_16
REMARK    5  A    between atoms: C_11  and  C_15
REMARK    6  A    between atoms: C_12  and  C_17
REMARK    7  A    between atoms: C_12  and  C_18
REMARK    8  A    between atoms: C_13  and  C_19
REMARK    9  A    between atoms: C_15  and  C_20
REMARK   10  A    between atoms: C_27  and  C_29
REMARK   11  A    between atoms: C_27  and  C_30
REMARK                            x       y       z     vdW  Elec       q    Type
REMARK                         _______ _______ _______ _____ _____    ______ ____
ROOT
ATOM      8  C   UNL     1      -4.921 -10.940  13.323  0.00  0.00    +0.000 C 
ATOM      9  C   UNL     1      -3.529 -10.658  12.706  0.00  0.00    +0.032 C 
ATOM     10  C   UNL     1      -5.060 -10.232  14.680  0.00  0.00    +0.012 C 
ATOM     11  C   UNL     1      -3.981 -10.679  15.684  0.00  0.00    +0.023 C 
ATOM     13  C   UNL     1      -2.600 -10.685  15.062  0.00  0.00    -0.073 C 
ATOM     14  C   UNL     1      -2.417 -10.661  13.728  0.00  0.00    -0.022 C 
ATOM     19  C   UNL     1      -1.431 -10.670  16.006  0.00  0.00    +0.039 C 
ENDROOT
BRANCH   8  12
ATOM     12  C   UNL     1      -6.056 -10.504  12.392  0.00  0.00    -0.013 C 
ATOM     17  C   UNL     1      -7.378 -10.451  13.151  0.00  0.00    +0.007 C 
ATOM     18  C   UNL     1      -5.738  -9.149  11.765  0.00  0.00    +0.007 C 
ENDBRANCH   8  12
BRANCH  11  15
ATOM     15  C   UNL     1      -4.318 -12.051  16.282  0.00  0.00    +0.103 C 
BRANCH  15  20
ATOM      1  O   UNL     1      -3.713 -11.795  18.564  0.00  0.00    -0.276 OA
ATOM      3  N   UNL     1      -5.986 -11.914  18.094  0.00  0.00    -0.298 N 
ATOM      5  N   UNL     1      -8.758 -11.699  18.896  0.00  0.00    -0.312 N 
ATOM      7  N   UNL     1     -10.950 -12.573  19.008  0.00  0.00    -0.240 NA
ATOM     20  C   UNL     1      -4.633 -11.906  17.750  0.00  0.00    +0.216 C 
ATOM     21  C   UNL     1      -6.373 -11.783  19.497  0.00  0.00    +0.126 C 
ATOM     22  C   UNL     1      -7.078 -12.036  17.126  0.00  0.00    +0.126 C 
ATOM     23  C   UNL     1      -7.695 -11.038  19.657  0.00  0.00    +0.125 C 
ATOM     24  C   UNL     1      -8.375 -12.538  17.757  0.00  0.00    +0.125 C 
ATOM     26  C   UNL     1     -10.093 -11.561  19.271  0.00  0.00    +0.121 A 
ATOM     28  C   UNL     1     -10.457 -10.379  19.894  0.00  0.00    +0.043 A 
ATOM     31  C   UNL     1     -11.785 -10.225  20.274  0.00  0.00    +0.005 A 
ATOM     32  C   UNL     1     -12.233 -12.388  19.392  0.00  0.00    +0.113 A 
ATOM     33  C   UNL     1     -12.697 -11.245  20.022  0.00  0.00    +0.020 A 
ENDBRANCH  15  20
ENDBRANCH  11  15
BRANCH   9  16
ATOM     16  C   UNL     1      -3.203 -11.662  11.594  0.00  0.00    +0.113 C 
BRANCH  16   4
ATOM      2  O   UNL     1      -3.688 -14.481  11.973  0.00  0.00    -0.253 OA
ATOM      4  N   UNL     1      -2.269 -12.641  12.054  0.00  0.00    -0.299 N 
ATOM      6  N   UNL     1      -1.489 -14.729  12.672  0.00  0.00    -0.297 N 
ATOM     25  C   UNL     1      -2.581 -13.998  12.213  0.00  0.00    +0.300 C 
ATOM     34  H   UNL     1      -1.308 -12.357  12.211  0.00  0.00    +0.150 HD
ATOM     35  H   UNL     1      -0.641 -14.227  12.916  0.00  0.00    +0.150 HD
BRANCH   6  27
ATOM     27  C   UNL     1      -1.547 -16.150  12.919  0.00  0.00    +0.068 C 
ATOM     29  C   UNL     1      -1.092 -16.460  14.340  0.00  0.00    +0.027 C 
ATOM     30  C   UNL     1      -0.709 -16.906  11.894  0.00  0.00    +0.027 C 
ENDBRANCH   6  27
ENDBRANCH  16   4
ENDBRANCH   9  16
TORSDOF 6
ENDMDL
MODEL 9
REMARK VINA RESULT:      -6.6     28.173     30.755
REMARK  Name = 38028914
REMARK  11 active torsions:
REMARK  status: ('A' for Active; 'I' for Inactive)
REMARK    1  A    between atoms: N_4  and  C_16
REMARK    2  A    between atoms: N_6  and  C_27
REMARK    3  A    between atoms: C_8  and  C_12
REMARK    4  A    between atoms: C_9  and  C_16
REMARK    5  A    between atoms: C_11  and  C_15
REMARK    6  A    between atoms: C_12  and  C_17
REMARK    7  A    between atoms: C_12  and  C_18
REMARK    8  A    between atoms: C_13  and  C_19
REMARK    9  A    between atoms: C_15  and  C_20
REMARK   10  A    between atoms: C_27  and  C_29
REMARK   11  A    between atoms: C_27  and  C_30
REMARK                            x       y       z     vdW  Elec       q    Type
REMARK                         _______ _______ _______ _____ _____    ______ ____
ROOT
ATOM      8  C   UNL     1      12.994   9.468  20.222  0.00  0.00    +0.000 C 
ATOM      9  C   UNL     1      12.097   8.351  19.633  0.00  0.00    +0.032 C 
ATOM     10  C   UNL     1      12.840  10.764  19.411  0.00  0.00    +0.012 C 
ATOM     11  C   UNL     1      13.209  10.571  17.928  0.00  0.00    +0.023 C 
ATOM     13  C   UNL     1      12.571   9.327  17.345  0.00  0.00    -0.073 C 
ATOM     14  C   UNL     1      12.066   8.352  18.123  0.00  0.00    -0.022 C 
ATOM     19  C   UNL     1      12.482   9.249  15.847  0.00  0.00    +0.039 C 
ENDROOT
BRANCH   8  12
ATOM     12  C   UNL     1      12.675   9.737  21.696  0.00  0.00    -0.013 C 
ATOM     17  C   UNL     1      13.898  10.300  22.412  0.00  0.00    +0.007 C 
ATOM     18  C   UNL     1      11.491  10.693  21.817  0.00  0.00    +0.007 C 
ENDBRANCH   8  12
BRANCH  11  15
ATOM     15  C   UNL     1      14.731  10.546  17.738  0.00  0.00    +0.103 C 
BRANCH  15  20
ATOM      1  O   UNL     1      15.244  12.824  18.172  0.00  0.00    -0.276 OA
ATOM      3  N   UNL     1      15.618  12.064  16.008  0.00  0.00    -0.298 N 
ATOM      5  N   UNL     1      16.670  12.428  13.337  0.00  0.00    -0.312 N 
ATOM      7  N   UNL     1      16.413  12.365  10.989  0.00  0.00    -0.240 NA
ATOM     20  C   UNL     1      15.220  11.916  17.338  0.00  0.00    +0.216 C 
ATOM     21  C   UNL     1      16.099  13.362  15.541  0.00  0.00    +0.126 C 
ATOM     22  C   UNL     1      15.598  10.983  15.020  0.00  0.00    +0.126 C 
ATOM     23  C   UNL     1      17.171  13.219  14.463  0.00  0.00    +0.125 C 
ATOM     24  C   UNL     1      15.566  11.496  13.581  0.00  0.00    +0.125 C 
ATOM     26  C   UNL     1      17.207  12.586  12.061  0.00  0.00    +0.121 A 
ATOM     28  C   UNL     1      18.538  12.963  11.976  0.00  0.00    +0.043 A 
ATOM     31  C   UNL     1      19.089  13.125  10.711  0.00  0.00    +0.005 A 
ATOM     32  C   UNL     1      16.984  12.532   9.775  0.00  0.00    +0.113 A 
ATOM     33  C   UNL     1      18.304  12.907   9.583  0.00  0.00    +0.020 A 
ENDBRANCH  15  20
ENDBRANCH  11  15
BRANCH   9  16
ATOM     16  C   UNL     1      12.534   6.970  20.135  0.00  0.00    +0.113 C 
BRANCH  16   4
ATOM      2  O   UNL     1      14.884   7.046  21.807  0.00  0.00    -0.253 OA
ATOM      4  N   UNL     1      13.879   6.689  19.742  0.00  0.00    -0.299 N 
ATOM      6  N   UNL     1      16.164   6.428  19.974  0.00  0.00    -0.297 N 
ATOM     25  C   UNL     1      14.972   6.748  20.616  0.00  0.00    +0.300 C 
ATOM     34  H   UNL     1      14.049   6.365  18.795  0.00  0.00    +0.150 HD
ATOM     35  H   UNL     1      16.146   6.273  18.971  0.00  0.00    +0.150 HD
BRANCH   6  27
ATOM     27  C   UNL     1      17.440   6.415  20.652  0.00  0.00    +0.068 C 
ATOM     29  C   UNL     1      17.877   7.835  20.986  0.00  0.00    +0.027 C 
ATOM     30  C   UNL     1      18.487   5.699  19.807  0.00  0.00    +0.027 C 
ENDBRANCH   6  27
ENDBRANCH  16   4
ENDBRANCH   9  16
TORSDOF 6
ENDMDL
MODEL 10
REMARK VINA RESULT:      -6.5      4.092      6.732
REMARK  Name = 38028914
REMARK  11 active torsions:
REMARK  status: ('A' for Active; 'I' for Inactive)
REMARK    1  A    between atoms: N_4  and  C_16
REMARK    2  A    between atoms: N_6  and  C_27
REMARK    3  A    between atoms: C_8  and  C_12
REMARK    4  A    between atoms: C_9  and  C_16
REMARK    5  A    between atoms: C_11  and  C_15
REMARK    6  A    between atoms: C_12  and  C_17
REMARK    7  A    between atoms: C_12  and  C_18
REMARK    8  A    between atoms: C_13  and  C_19
REMARK    9  A    between atoms: C_15  and  C_20
REMARK   10  A    between atoms: C_27  and  C_29
REMARK   11  A    between atoms: C_27  and  C_30
REMARK                            x       y       z     vdW  Elec       q    Type
REMARK                         _______ _______ _______ _____ _____    ______ ____
ROOT
ATOM      8  C   UNL     1     -10.036  -9.433  16.115  0.00  0.00    +0.000 C 
ATOM      9  C   UNL     1     -11.106  -8.439  16.631  0.00  0.00    +0.032 C 
ATOM     10  C   UNL     1     -10.523 -10.880  16.281  0.00  0.00    +0.012 C 
ATOM     11  C   UNL     1     -10.841 -11.223  17.749  0.00  0.00    +0.023 C 
ATOM     13  C   UNL     1     -11.677 -10.147  18.411  0.00  0.00    -0.073 C 
ATOM     14  C   UNL     1     -11.794  -8.912  17.889  0.00  0.00    -0.022 C 
ATOM     19  C   UNL     1     -12.413 -10.535  19.662  0.00  0.00    +0.039 C 
ENDROOT
BRANCH   8  12
ATOM     12  C   UNL     1      -9.677  -9.171  14.649  0.00  0.00    -0.013 C 
ATOM     17  C   UNL     1      -8.575 -10.123  14.192  0.00  0.00    +0.007 C 
ATOM     18  C   UNL     1     -10.913  -9.313  13.765  0.00  0.00    +0.007 C 
ENDBRANCH   8  12
BRANCH  11  15
ATOM     15  C   UNL     1      -9.556 -11.487  18.544  0.00  0.00    +0.103 C 
BRANCH  15  20
ATOM      1  O   UNL     1      -9.197 -13.692  17.739  0.00  0.00    -0.276 OA
ATOM      3  N   UNL     1      -7.480 -12.163  17.397  0.00  0.00    -0.298 N 
ATOM      5  N   UNL     1      -4.950 -11.412  16.211  0.00  0.00    -0.312 N 
ATOM      7  N   UNL     1      -2.764 -10.535  16.390  0.00  0.00    -0.240 NA
ATOM     20  C   UNL     1      -8.739 -12.553  17.858  0.00  0.00    +0.216 C 
ATOM     21  C   UNL     1      -6.625 -13.139  16.726  0.00  0.00    +0.126 C 
ATOM     22  C   UNL     1      -6.941 -10.808  17.529  0.00  0.00    +0.126 C 
ATOM     23  C   UNL     1      -5.760 -12.494  15.646  0.00  0.00    +0.125 C 
ATOM     24  C   UNL     1      -5.417 -10.766  17.440  0.00  0.00    +0.125 C 
ATOM     26  C   UNL     1      -3.749 -11.035  15.612  0.00  0.00    +0.121 A 
ATOM     28  C   UNL     1      -3.647 -11.200  14.240  0.00  0.00    +0.043 A 
ATOM     31  C   UNL     1      -2.456 -10.829  13.627  0.00  0.00    +0.005 A 
ATOM     32  C   UNL     1      -1.620 -10.185  15.759  0.00  0.00    +0.113 A 
ATOM     33  C   UNL     1      -1.418 -10.310  14.395  0.00  0.00    +0.020 A 
ENDBRANCH  15  20
ENDBRANCH  11  15
BRANCH   9  16
ATOM     16  C   UNL     1     -10.501  -7.051  16.871  0.00  0.00    +0.113 C 
BRANCH  16   4
ATOM      2  O   UNL     1     -12.924  -6.121  15.612  0.00  0.00    -0.253 OA
ATOM      4  N   UNL     1     -10.605  -6.242  15.698  0.00  0.00    -0.299 N 
ATOM      6  N   UNL     1     -11.636  -5.051  14.005  0.00  0.00    -0.297 N 
ATOM     25  C   UNL     1     -11.824  -5.829  15.144  0.00  0.00    +0.300 C 
ATOM     34  H   UNL     1      -9.752  -5.888  15.276  0.00  0.00    +0.150 HD
ATOM     35  H   UNL     1     -10.692  -4.931  13.653  0.00  0.00    +0.150 HD
BRANCH   6  27
ATOM     27  C   UNL     1     -12.733  -4.500  13.244  0.00  0.00    +0.068 C 
ATOM     29  C   UNL     1     -13.428  -5.596  12.447  0.00  0.00    +0.027 C 
ATOM     30  C   UNL     1     -12.243  -3.381  12.334  0.00  0.00    +0.027 C 
ENDBRANCH   6  27
ENDBRANCH  16   4
ENDBRANCH   9  16
TORSDOF 6
ENDMDL
