MODEL 1
REMARK VINA RESULT:      -7.0      0.000      0.000
REMARK  Name = 26744194
REMARK  7 active torsions:
REMARK  status: ('A' for Active; 'I' for Inactive)
REMARK    1  A    between atoms: O_1  and  C_12
REMARK    2  A    between atoms: N_4  and  C_8
REMARK    3  A    between atoms: C_9  and  C_17
REMARK    4  A    between atoms: C_18  and  C_20
REMARK    5  A    between atoms: C_19  and  C_21
REMARK    6  A    between atoms: C_21  and  C_22
REMARK    7  A    between atoms: C_21  and  C_23
REMARK                            x       y       z     vdW  Elec       q    Type
REMARK                         _______ _______ _______ _____ _____    ______ ____
ROOT
ATOM      4  N   UNL     1      14.854   7.938  20.037  0.00  0.00    -0.286 NA
ATOM      9  C   UNL     1      14.281   7.250  18.862  0.00  0.00    +0.149 C 
ATOM     10  C   UNL     1      14.290   7.280  21.216  0.00  0.00    +0.116 C 
ATOM     11  C   UNL     1      12.921   6.711  19.344  0.00  0.00    +0.061 C 
ATOM     12  C   UNL     1      12.839   7.106  20.813  0.00  0.00    +0.130 C 
ENDROOT
BRANCH   4   8
ATOM      3  O   UNL     1      20.049   6.045  22.726  0.00  0.00    -0.276 OA
ATOM      5  N   UNL     1      18.813   7.553  21.462  0.00  0.00    -0.302 N 
ATOM      8  C   UNL     1      16.313   7.936  20.052  0.00  0.00    +0.060 C 
ATOM     13  C   UNL     1      16.836   6.536  20.399  0.00  0.00    +0.038 C 
ATOM     14  C   UNL     1      16.831   8.966  21.065  0.00  0.00    +0.038 C 
ATOM     15  C   UNL     1      18.359   6.534  20.514  0.00  0.00    +0.109 C 
ATOM     16  C   UNL     1      18.355   8.917  21.167  0.00  0.00    +0.109 C 
ATOM     18  C   UNL     1      19.649   7.193  22.519  0.00  0.00    +0.212 C 
ATOM     20  C   UNL     1      20.069   8.300  23.454  0.00  0.00    +0.109 C 
ENDBRANCH   4   8
BRANCH   9  17
ATOM      2  O   UNL     1      13.672   7.595  16.521  0.00  0.00    -0.336 OA
ATOM      6  N   UNL     1      14.456   9.428  17.541  0.00  0.00    -0.194 NA
ATOM      7  N   UNL     1      13.652   8.613  15.560  0.00  0.00    -0.061 NA
ATOM     17  C   UNL     1      14.157   8.158  17.657  0.00  0.00    +0.245 A 
ATOM     19  C   UNL     1      14.128   9.662  16.238  0.00  0.00    +0.174 A 
BRANCH  19  21
ATOM     21  C   UNL     1      14.290  10.981  15.617  0.00  0.00    +0.054 C 
ATOM     22  C   UNL     1      15.430  11.030  14.568  0.00  0.00    +0.015 C 
ATOM     23  C   UNL     1      14.507  12.121  16.644  0.00  0.00    +0.015 C 
ENDBRANCH  19  21
ENDBRANCH   9  17
BRANCH  12   1
ATOM      1  O   UNL     1      12.202   6.096  21.570  0.00  0.00    -0.390 OA
ATOM     24  H   UNL     1      11.732   6.531  22.301  0.00  0.00    +0.210 HD
ENDBRANCH  12   1
TORSDOF 4
ENDMDL
MODEL 2
REMARK VINA RESULT:      -6.8      2.245      5.948
REMARK  Name = 26744194
REMARK  7 active torsions:
REMARK  status: ('A' for Active; 'I' for Inactive)
REMARK    1  A    between atoms: O_1  and  C_12
REMARK    2  A    between atoms: N_4  and  C_8
REMARK    3  A    between atoms: C_9  and  C_17
REMARK    4  A    between atoms: C_18  and  C_20
REMARK    5  A    between atoms: C_19  and  C_21
REMARK    6  A    between atoms: C_21  and  C_22
REMARK    7  A    between atoms: C_21  and  C_23
REMARK                            x       y       z     vdW  Elec       q    Type
REMARK                         _______ _______ _______ _____ _____    ______ ____
ROOT
ATOM      4  N   UNL     1      12.216   8.351  19.444  0.00  0.00    -0.286 NA
ATOM      9  C   UNL     1      13.205   8.548  20.522  0.00  0.00    +0.149 C 
ATOM     10  C   UNL     1      10.898   8.427  20.073  0.00  0.00    +0.116 C 
ATOM     11  C   UNL     1      12.504   8.044  21.798  0.00  0.00    +0.061 C 
ATOM     12  C   UNL     1      11.111   7.627  21.344  0.00  0.00    +0.130 C 
ENDROOT
BRANCH   4   8
ATOM      3  O   UNL     1      15.290  10.123  14.423  0.00  0.00    -0.276 OA
ATOM      5  N   UNL     1      13.970  10.545  16.287  0.00  0.00    -0.302 N 
ATOM      8  C   UNL     1      12.358   9.306  18.349  0.00  0.00    +0.060 C 
ATOM     13  C   UNL     1      12.707   8.570  17.049  0.00  0.00    +0.038 C 
ATOM     14  C   UNL     1      13.443  10.337  18.688  0.00  0.00    +0.038 C 
ATOM     15  C   UNL     1      12.954   9.559  15.912  0.00  0.00    +0.109 C 
ATOM     16  C   UNL     1      13.677  11.292  17.518  0.00  0.00    +0.109 C 
ATOM     18  C   UNL     1      15.084  10.739  15.472  0.00  0.00    +0.212 C 
ATOM     20  C   UNL     1      16.085  11.770  15.930  0.00  0.00    +0.109 C 
ENDBRANCH   4   8
BRANCH   9  17
ATOM      2  O   UNL     1      14.436   6.681  19.537  0.00  0.00    -0.336 OA
ATOM      6  N   UNL     1      15.728   8.162  20.611  0.00  0.00    -0.194 NA
ATOM      7  N   UNL     1      15.750   6.210  19.419  0.00  0.00    -0.061 NA
ATOM     17  C   UNL     1      14.513   7.833  20.252  0.00  0.00    +0.245 A 
ATOM     19  C   UNL     1      16.452   7.137  20.078  0.00  0.00    +0.174 A 
BRANCH  19  21
ATOM     21  C   UNL     1      17.910   7.054  20.218  0.00  0.00    +0.054 C 
ATOM     22  C   UNL     1      18.481   5.656  19.871  0.00  0.00    +0.015 C 
ATOM     23  C   UNL     1      18.416   7.467  21.624  0.00  0.00    +0.015 C 
ENDBRANCH  19  21
ENDBRANCH   9  17
BRANCH  12   1
ATOM      1  O   UNL     1      10.147   7.941  22.330  0.00  0.00    -0.390 OA
ATOM     24  H   UNL     1      10.574   8.523  22.980  0.00  0.00    +0.210 HD
ENDBRANCH  12   1
TORSDOF 4
ENDMDL
MODEL 3
REMARK VINA RESULT:      -6.8      3.741      5.019
REMARK  Name = 26744194
REMARK  7 active torsions:
REMARK  status: ('A' for Active; 'I' for Inactive)
REMARK    1  A    between atoms: O_1  and  C_12
REMARK    2  A    between atoms: N_4  and  C_8
REMARK    3  A    between atoms: C_9  and  C_17
REMARK    4  A    between atoms: C_18  and  C_20
REMARK    5  A    between atoms: C_19  and  C_21
REMARK    6  A    between atoms: C_21  and  C_22
REMARK    7  A    between atoms: C_21  and  C_23
REMARK                            x       y       z     vdW  Elec       q    Type
REMARK                         _______ _______ _______ _____ _____    ______ ____
ROOT
ATOM      4  N   UNL     1      12.940   7.981  21.477  0.00  0.00    -0.286 NA
ATOM      9  C   UNL     1      11.836   8.781  20.908  0.00  0.00    +0.149 C 
ATOM     10  C   UNL     1      12.508   6.585  21.423  0.00  0.00    +0.116 C 
ATOM     11  C   UNL     1      10.567   7.953  21.182  0.00  0.00    +0.061 C 
ATOM     12  C   UNL     1      11.062   6.686  21.869  0.00  0.00    +0.130 C 
ENDROOT
BRANCH   4   8
ATOM      3  O   UNL     1      18.181   5.571  19.349  0.00  0.00    -0.276 OA
ATOM      5  N   UNL     1      16.911   7.326  20.188  0.00  0.00    -0.302 N 
ATOM      8  C   UNL     1      14.214   8.189  20.795  0.00  0.00    +0.060 C 
ATOM     13  C   UNL     1      14.490   7.030  19.828  0.00  0.00    +0.038 C 
ATOM     14  C   UNL     1      15.347   8.309  21.823  0.00  0.00    +0.038 C 
ATOM     15  C   UNL     1      15.863   7.180  19.176  0.00  0.00    +0.109 C 
ATOM     16  C   UNL     1      16.704   8.433  21.132  0.00  0.00    +0.109 C 
ATOM     18  C   UNL     1      18.013   6.472  20.175  0.00  0.00    +0.212 C 
ATOM     20  C   UNL     1      19.046   6.686  21.253  0.00  0.00    +0.109 C 
ENDBRANCH   4   8
BRANCH   9  17
ATOM      2  O   UNL     1      12.128  11.195  20.673  0.00  0.00    -0.336 OA
ATOM      6  N   UNL     1      11.400  10.554  22.692  0.00  0.00    -0.194 NA
ATOM      7  N   UNL     1      11.984  12.368  21.426  0.00  0.00    -0.061 NA
ATOM     17  C   UNL     1      11.764  10.175  21.493  0.00  0.00    +0.245 A 
ATOM     19  C   UNL     1      11.551  11.907  22.603  0.00  0.00    +0.174 A 
BRANCH  19  21
ATOM     21  C   UNL     1      11.259  12.801  23.729  0.00  0.00    +0.054 C 
ATOM     22  C   UNL     1      10.951  12.047  25.047  0.00  0.00    +0.015 C 
ATOM     23  C   UNL     1      10.107  13.796  23.440  0.00  0.00    +0.015 C 
ENDBRANCH  19  21
ENDBRANCH   9  17
BRANCH  12   1
ATOM      1  O   UNL     1      10.306   5.564  21.458  0.00  0.00    -0.390 OA
ATOM     24  H   UNL     1       9.662   5.372  22.161  0.00  0.00    +0.210 HD
ENDBRANCH  12   1
TORSDOF 4
ENDMDL
MODEL 4
REMARK VINA RESULT:      -6.7      3.416      6.299
REMARK  Name = 26744194
REMARK  7 active torsions:
REMARK  status: ('A' for Active; 'I' for Inactive)
REMARK    1  A    between atoms: O_1  and  C_12
REMARK    2  A    between atoms: N_4  and  C_8
REMARK    3  A    between atoms: C_9  and  C_17
REMARK    4  A    between atoms: C_18  and  C_20
REMARK    5  A    between atoms: C_19  and  C_21
REMARK    6  A    between atoms: C_21  and  C_22
REMARK    7  A    between atoms: C_21  and  C_23
REMARK                            x       y       z     vdW  Elec       q    Type
REMARK                         _______ _______ _______ _____ _____    ______ ____
ROOT
ATOM      4  N   UNL     1      13.011   8.737  19.985  0.00  0.00    -0.286 NA
ATOM      9  C   UNL     1      13.319   7.303  19.811  0.00  0.00    +0.149 C 
ATOM     10  C   UNL     1      11.823   9.005  19.176  0.00  0.00    +0.116 C 
ATOM     11  C   UNL     1      12.767   6.947  18.418  0.00  0.00    +0.061 C 
ATOM     12  C   UNL     1      12.128   8.232  17.907  0.00  0.00    +0.130 C 
ENDROOT
BRANCH   4   8
ATOM      3  O   UNL     1      10.099  12.276  24.083  0.00  0.00    -0.276 OA
ATOM      5  N   UNL     1      11.922  11.028  23.364  0.00  0.00    -0.302 N 
ATOM      8  C   UNL     1      12.823   9.120  21.381  0.00  0.00    +0.060 C 
ATOM     13  C   UNL     1      11.332   9.335  21.673  0.00  0.00    +0.038 C 
ATOM     14  C   UNL     1      13.617  10.398  21.687  0.00  0.00    +0.038 C 
ATOM     15  C   UNL     1      11.122   9.830  23.102  0.00  0.00    +0.109 C 
ATOM     16  C   UNL     1      13.362  10.873  23.117  0.00  0.00    +0.109 C 
ATOM     18  C   UNL     1      11.307  12.181  23.850  0.00  0.00    +0.212 C 
ATOM     20  C   UNL     1      12.199  13.373  24.090  0.00  0.00    +0.109 C 
ENDBRANCH   4   8
BRANCH   9  17
ATOM      2  O   UNL     1      15.385   6.361  18.906  0.00  0.00    -0.336 OA
ATOM      6  N   UNL     1      15.609   7.271  20.941  0.00  0.00    -0.194 NA
ATOM      7  N   UNL     1      16.729   6.194  19.261  0.00  0.00    -0.061 NA
ATOM     17  C   UNL     1      14.797   7.003  19.949  0.00  0.00    +0.245 A 
ATOM     19  C   UNL     1      16.782   6.756  20.472  0.00  0.00    +0.174 A 
BRANCH  19  21
ATOM     21  C   UNL     1      18.026   6.813  21.249  0.00  0.00    +0.054 C 
ATOM     22  C   UNL     1      18.422   8.252  21.667  0.00  0.00    +0.015 C 
ATOM     23  C   UNL     1      19.229   6.151  20.532  0.00  0.00    +0.015 C 
ENDBRANCH  19  21
ENDBRANCH   9  17
BRANCH  12   1
ATOM      1  O   UNL     1      10.954   7.950  17.170  0.00  0.00    -0.390 OA
ATOM     24  H   UNL     1      11.036   7.044  16.826  0.00  0.00    +0.210 HD
ENDBRANCH  12   1
TORSDOF 4
ENDMDL
MODEL 5
REMARK VINA RESULT:      -6.6      3.809      4.979
REMARK  Name = 26744194
REMARK  7 active torsions:
REMARK  status: ('A' for Active; 'I' for Inactive)
REMARK    1  A    between atoms: O_1  and  C_12
REMARK    2  A    between atoms: N_4  and  C_8
REMARK    3  A    between atoms: C_9  and  C_17
REMARK    4  A    between atoms: C_18  and  C_20
REMARK    5  A    between atoms: C_19  and  C_21
REMARK    6  A    between atoms: C_21  and  C_22
REMARK    7  A    between atoms: C_21  and  C_23
REMARK                            x       y       z     vdW  Elec       q    Type
REMARK                         _______ _______ _______ _____ _____    ______ ____
ROOT
ATOM      4  N   UNL     1      11.957   8.691  20.596  0.00  0.00    -0.286 NA
ATOM      9  C   UNL     1      13.109   8.100  19.885  0.00  0.00    +0.149 C 
ATOM     10  C   UNL     1      11.514   7.692  21.567  0.00  0.00    +0.116 C 
ATOM     11  C   UNL     1      12.876   6.579  19.952  0.00  0.00    +0.061 C 
ATOM     12  C   UNL     1      11.594   6.412  20.758  0.00  0.00    +0.130 C 
ENDROOT
BRANCH   4   8
ATOM      3  O   UNL     1      13.137  11.829  25.750  0.00  0.00    -0.276 OA
ATOM      5  N   UNL     1      12.341  11.665  23.574  0.00  0.00    -0.302 N 
ATOM      8  C   UNL     1      12.264   9.972  21.225  0.00  0.00    +0.060 C 
ATOM     13  C   UNL     1      13.321   9.781  22.322  0.00  0.00    +0.038 C 
ATOM     14  C   UNL     1      10.988  10.588  21.815  0.00  0.00    +0.038 C 
ATOM     15  C   UNL     1      13.586  11.093  23.058  0.00  0.00    +0.109 C 
ATOM     16  C   UNL     1      11.299  11.884  22.562  0.00  0.00    +0.109 C 
ATOM     18  C   UNL     1      12.234  11.991  24.925  0.00  0.00    +0.212 C 
ATOM     20  C   UNL     1      10.918  12.571  25.378  0.00  0.00    +0.109 C 
ENDBRANCH   4   8
BRANCH   9  17
ATOM      2  O   UNL     1      12.823   7.774  17.480  0.00  0.00    -0.336 OA
ATOM      6  N   UNL     1      13.714   9.753  18.036  0.00  0.00    -0.194 NA
ATOM      7  N   UNL     1      13.046   8.453  16.276  0.00  0.00    -0.061 NA
ATOM     17  C   UNL     1      13.243   8.609  18.466  0.00  0.00    +0.245 A 
ATOM     19  C   UNL     1      13.572   9.611  16.686  0.00  0.00    +0.174 A 
BRANCH  19  21
ATOM     21  C   UNL     1      13.973  10.661  15.744  0.00  0.00    +0.054 C 
ATOM     22  C   UNL     1      15.172  10.257  14.850  0.00  0.00    +0.015 C 
ATOM     23  C   UNL     1      14.292  12.013  16.430  0.00  0.00    +0.015 C 
ENDBRANCH  19  21
ENDBRANCH   9  17
BRANCH  12   1
ATOM      1  O   UNL     1      11.668   5.270  21.589  0.00  0.00    -0.390 OA
ATOM     24  H   UNL     1      11.185   5.472  22.408  0.00  0.00    +0.210 HD
ENDBRANCH  12   1
TORSDOF 4
ENDMDL
MODEL 6
REMARK VINA RESULT:      -6.2      2.296      6.876
REMARK  Name = 26744194
REMARK  7 active torsions:
REMARK  status: ('A' for Active; 'I' for Inactive)
REMARK    1  A    between atoms: O_1  and  C_12
REMARK    2  A    between atoms: N_4  and  C_8
REMARK    3  A    between atoms: C_9  and  C_17
REMARK    4  A    between atoms: C_18  and  C_20
REMARK    5  A    between atoms: C_19  and  C_21
REMARK    6  A    between atoms: C_21  and  C_22
REMARK    7  A    between atoms: C_21  and  C_23
REMARK                            x       y       z     vdW  Elec       q    Type
REMARK                         _______ _______ _______ _____ _____    ______ ____
ROOT
ATOM      4  N   UNL     1      13.690   8.766  18.019  0.00  0.00    -0.286 NA
ATOM      9  C   UNL     1      14.127   8.641  19.424  0.00  0.00    +0.149 C 
ATOM     10  C   UNL     1      12.252   9.032  18.055  0.00  0.00    +0.116 C 
ATOM     11  C   UNL     1      12.881   8.147  20.182  0.00  0.00    +0.061 C 
ATOM     12  C   UNL     1      11.783   8.068  19.128  0.00  0.00    +0.130 C 
ENDROOT
BRANCH   4   8
ATOM      3  O   UNL     1      13.528  14.031  14.846  0.00  0.00    -0.276 OA
ATOM      5  N   UNL     1      14.454  11.964  15.363  0.00  0.00    -0.302 N 
ATOM      8  C   UNL     1      14.419   9.790  17.277  0.00  0.00    +0.060 C 
ATOM     13  C   UNL     1      13.879  11.182  17.629  0.00  0.00    +0.038 C 
ATOM     14  C   UNL     1      14.297   9.536  15.768  0.00  0.00    +0.038 C 
ATOM     15  C   UNL     1      14.563  12.261  16.793  0.00  0.00    +0.109 C 
ATOM     16  C   UNL     1      14.973  10.648  14.968  0.00  0.00    +0.109 C 
ATOM     18  C   UNL     1      13.926  12.917  14.494  0.00  0.00    +0.212 C 
ATOM     20  C   UNL     1      13.844  12.532  13.038  0.00  0.00    +0.109 C 
ENDBRANCH   4   8
BRANCH   9  17
ATOM      2  O   UNL     1      15.391   6.671  18.721  0.00  0.00    -0.336 OA
ATOM      6  N   UNL     1      16.297   7.770  20.449  0.00  0.00    -0.194 NA
ATOM      7  N   UNL     1      16.553   5.969  19.063  0.00  0.00    -0.061 NA
ATOM     17  C   UNL     1      15.315   7.716  19.585  0.00  0.00    +0.245 A 
ATOM     19  C   UNL     1      17.031   6.678  20.089  0.00  0.00    +0.174 A 
BRANCH  19  21
ATOM     21  C   UNL     1      18.267   6.304  20.785  0.00  0.00    +0.054 C 
ATOM     22  C   UNL     1      19.108   7.523  21.241  0.00  0.00    +0.015 C 
ATOM     23  C   UNL     1      19.171   5.352  19.962  0.00  0.00    +0.015 C 
ENDBRANCH  19  21
ENDBRANCH   9  17
BRANCH  12   1
ATOM      1  O   UNL     1      10.536   8.455  19.672  0.00  0.00    -0.390 OA
ATOM     24  H   UNL     1      10.202   9.196  19.138  0.00  0.00    +0.210 HD
ENDBRANCH  12   1
TORSDOF 4
ENDMDL
MODEL 7
REMARK VINA RESULT:      -6.1     27.025     28.348
REMARK  Name = 26744194
REMARK  7 active torsions:
REMARK  status: ('A' for Active; 'I' for Inactive)
REMARK    1  A    between atoms: O_1  and  C_12
REMARK    2  A    between atoms: N_4  and  C_8
REMARK    3  A    between atoms: C_9  and  C_17
REMARK    4  A    between atoms: C_18  and  C_20
REMARK    5  A    between atoms: C_19  and  C_21
REMARK    6  A    between atoms: C_21  and  C_22
REMARK    7  A    between atoms: C_21  and  C_23
REMARK                            x       y       z     vdW  Elec       q    Type
REMARK                         _______ _______ _______ _____ _____    ______ ____
ROOT
ATOM      4  N   UNL     1      -3.622 -11.896  14.226  0.00  0.00    -0.286 NA
ATOM      9  C   UNL     1      -2.331 -11.504  13.625  0.00  0.00    +0.149 C 
ATOM     10  C   UNL     1      -3.401 -13.187  14.876  0.00  0.00    +0.116 C 
ATOM     11  C   UNL     1      -1.611 -12.834  13.336  0.00  0.00    +0.061 C 
ATOM     12  C   UNL     1      -2.555 -13.914  13.849  0.00  0.00    +0.130 C 
ENDROOT
BRANCH   4   8
ATOM      3  O   UNL     1      -6.902 -10.686  19.283  0.00  0.00    -0.276 OA
ATOM      5  N   UNL     1      -6.056 -10.127  17.193  0.00  0.00    -0.302 N 
ATOM      8  C   UNL     1      -4.155 -10.899  15.149  0.00  0.00    +0.060 C 
ATOM     13  C   UNL     1      -4.032 -11.399  16.595  0.00  0.00    +0.038 C 
ATOM     14  C   UNL     1      -5.622 -10.598  14.811  0.00  0.00    +0.038 C 
ATOM     15  C   UNL     1      -4.670 -10.414  17.570  0.00  0.00    +0.109 C 
ATOM     16  C   UNL     1      -6.230  -9.627  15.823  0.00  0.00    +0.109 C 
ATOM     18  C   UNL     1      -7.078 -10.297  18.125  0.00  0.00    +0.212 C 
ATOM     20  C   UNL     1      -8.477  -9.984  17.658  0.00  0.00    +0.109 C 
ENDBRANCH   4   8
BRANCH   9  17
ATOM      2  O   UNL     1      -1.398  -9.972  11.966  0.00  0.00    -0.336 OA
ATOM      6  N   UNL     1      -3.563 -10.454  11.651  0.00  0.00    -0.194 NA
ATOM      7  N   UNL     1      -1.794  -9.260  10.827  0.00  0.00    -0.061 NA
ATOM     17  C   UNL     1      -2.498 -10.648  12.388  0.00  0.00    +0.245 A 
ATOM     19  C   UNL     1      -3.082  -9.596  10.706  0.00  0.00    +0.174 A 
BRANCH  19  21
ATOM     21  C   UNL     1      -3.924  -9.073   9.625  0.00  0.00    +0.054 C 
ATOM     22  C   UNL     1      -5.111  -8.215  10.132  0.00  0.00    +0.015 C 
ATOM     23  C   UNL     1      -4.471 -10.176   8.684  0.00  0.00    +0.015 C 
ENDBRANCH  19  21
ENDBRANCH   9  17
BRANCH  12   1
ATOM      1  O   UNL     1      -1.831 -14.982  14.427  0.00  0.00    -0.390 OA
ATOM     24  H   UNL     1      -1.378 -14.635  15.214  0.00  0.00    +0.210 HD
ENDBRANCH  12   1
TORSDOF 4
ENDMDL
MODEL 8
REMARK VINA RESULT:      -6.1      2.829      5.951
REMARK  Name = 26744194
REMARK  7 active torsions:
REMARK  status: ('A' for Active; 'I' for Inactive)
REMARK    1  A    between atoms: O_1  and  C_12
REMARK    2  A    between atoms: N_4  and  C_8
REMARK    3  A    between atoms: C_9  and  C_17
REMARK    4  A    between atoms: C_18  and  C_20
REMARK    5  A    between atoms: C_19  and  C_21
REMARK    6  A    between atoms: C_21  and  C_22
REMARK    7  A    between atoms: C_21  and  C_23
REMARK                            x       y       z     vdW  Elec       q    Type
REMARK                         _______ _______ _______ _____ _____    ______ ____
ROOT
ATOM      4  N   UNL     1      16.508   8.150  20.944  0.00  0.00    -0.286 NA
ATOM      9  C   UNL     1      15.823   7.556  19.777  0.00  0.00    +0.149 C 
ATOM     10  C   UNL     1      17.922   7.799  20.816  0.00  0.00    +0.116 C 
ATOM     11  C   UNL     1      16.680   6.334  19.397  0.00  0.00    +0.061 C 
ATOM     12  C   UNL     1      17.847   6.350  20.377  0.00  0.00    +0.130 C 
ENDROOT
BRANCH   4   8
ATOM      3  O   UNL     1      12.672  12.814  22.099  0.00  0.00    -0.276 OA
ATOM      5  N   UNL     1      14.546  11.890  21.083  0.00  0.00    -0.302 N 
ATOM      8  C   UNL     1      16.307   9.591  21.058  0.00  0.00    +0.060 C 
ATOM     13  C   UNL     1      15.409   9.905  22.262  0.00  0.00    +0.038 C 
ATOM     14  C   UNL     1      15.682  10.140  19.768  0.00  0.00    +0.038 C 
ATOM     15  C   UNL     1      15.108  11.399  22.343  0.00  0.00    +0.109 C 
ATOM     16  C   UNL     1      15.375  11.631  19.898  0.00  0.00    +0.109 C 
ATOM     18  C   UNL     1      13.334  12.578  21.085  0.00  0.00    +0.212 C 
ATOM     20  C   UNL     1      12.822  13.047  19.746  0.00  0.00    +0.109 C 
ENDBRANCH   4   8
BRANCH   9  17
ATOM      2  O   UNL     1      13.561   7.063  18.995  0.00  0.00    -0.336 OA
ATOM      6  N   UNL     1      13.796   6.984  21.221  0.00  0.00    -0.194 NA
ATOM      7  N   UNL     1      12.301   6.732  19.508  0.00  0.00    -0.061 NA
ATOM     17  C   UNL     1      14.383   7.193  20.069  0.00  0.00    +0.245 A 
ATOM     19  C   UNL     1      12.521   6.704  20.826  0.00  0.00    +0.174 A 
BRANCH  19  21
ATOM     21  C   UNL     1      11.456   6.395  21.786  0.00  0.00    +0.054 C 
ATOM     22  C   UNL     1      10.795   5.014  21.544  0.00  0.00    +0.015 C 
ATOM     23  C   UNL     1      10.348   7.477  21.844  0.00  0.00    +0.015 C 
ENDBRANCH  19  21
ENDBRANCH   9  17
BRANCH  12   1
ATOM      1  O   UNL     1      19.040   5.930  19.744  0.00  0.00    -0.390 OA
ATOM     24  H   UNL     1      18.794   5.532  18.892  0.00  0.00    +0.210 HD
ENDBRANCH  12   1
TORSDOF 4
ENDMDL
MODEL 9
REMARK VINA RESULT:      -6.1      3.719      5.185
REMARK  Name = 26744194
REMARK  7 active torsions:
REMARK  status: ('A' for Active; 'I' for Inactive)
REMARK    1  A    between atoms: O_1  and  C_12
REMARK    2  A    between atoms: N_4  and  C_8
REMARK    3  A    between atoms: C_9  and  C_17
REMARK    4  A    between atoms: C_18  and  C_20
REMARK    5  A    between atoms: C_19  and  C_21
REMARK    6  A    between atoms: C_21  and  C_22
REMARK    7  A    between atoms: C_21  and  C_23
REMARK                            x       y       z     vdW  Elec       q    Type
REMARK                         _______ _______ _______ _____ _____    ______ ____
ROOT
ATOM      4  N   UNL     1      14.167   8.671  21.284  0.00  0.00    -0.286 NA
ATOM      9  C   UNL     1      14.804   8.688  19.951  0.00  0.00    +0.149 C 
ATOM     10  C   UNL     1      15.109   8.007  22.183  0.00  0.00    +0.116 C 
ATOM     11  C   UNL     1      15.738   7.464  19.945  0.00  0.00    +0.061 C 
ATOM     12  C   UNL     1      15.592   6.849  21.332  0.00  0.00    +0.130 C 
ENDROOT
BRANCH   4   8
ATOM      3  O   UNL     1      13.091  12.396  26.056  0.00  0.00    -0.276 OA
ATOM      5  N   UNL     1      12.781  11.727  23.853  0.00  0.00    -0.302 N 
ATOM      8  C   UNL     1      13.794   9.999  21.761  0.00  0.00    +0.060 C 
ATOM     13  C   UNL     1      14.651  10.384  22.974  0.00  0.00    +0.038 C 
ATOM     14  C   UNL     1      12.304  10.028  22.129  0.00  0.00    +0.038 C 
ATOM     15  C   UNL     1      14.213  11.729  23.548  0.00  0.00    +0.109 C 
ATOM     16  C   UNL     1      11.911  11.381  22.721  0.00  0.00    +0.109 C 
ATOM     18  C   UNL     1      12.342  12.075  25.130  0.00  0.00    +0.212 C 
ATOM     20  C   UNL     1      10.852  12.044  25.364  0.00  0.00    +0.109 C 
ENDBRANCH   4   8
BRANCH   9  17
ATOM      2  O   UNL     1      12.623   8.022  19.073  0.00  0.00    -0.336 OA
ATOM      6  N   UNL     1      13.884   9.165  17.617  0.00  0.00    -0.194 NA
ATOM      7  N   UNL     1      11.866   8.125  17.899  0.00  0.00    -0.061 NA
ATOM     17  C   UNL     1      13.795   8.660  18.822  0.00  0.00    +0.245 A 
ATOM     19  C   UNL     1      12.677   8.811  17.089  0.00  0.00    +0.174 A 
BRANCH  19  21
ATOM     21  C   UNL     1      12.293   9.160  15.717  0.00  0.00    +0.054 C 
ATOM     22  C   UNL     1      12.960  10.462  15.205  0.00  0.00    +0.015 C 
ATOM     23  C   UNL     1      10.760   9.271  15.518  0.00  0.00    +0.015 C 
ENDBRANCH  19  21
ENDBRANCH   9  17
BRANCH  12   1
ATOM      1  O   UNL     1      16.830   6.342  21.789  0.00  0.00    -0.390 OA
ATOM     24  H   UNL     1      16.663   5.465  22.173  0.00  0.00    +0.210 HD
ENDBRANCH  12   1
TORSDOF 4
ENDMDL
MODEL 10
REMARK VINA RESULT:      -6.1      2.906      5.333
REMARK  Name = 26744194
REMARK  7 active torsions:
REMARK  status: ('A' for Active; 'I' for Inactive)
REMARK    1  A    between atoms: O_1  and  C_12
REMARK    2  A    between atoms: N_4  and  C_8
REMARK    3  A    between atoms: C_9  and  C_17
REMARK    4  A    between atoms: C_18  and  C_20
REMARK    5  A    between atoms: C_19  and  C_21
REMARK    6  A    between atoms: C_21  and  C_22
REMARK    7  A    between atoms: C_21  and  C_23
REMARK                            x       y       z     vdW  Elec       q    Type
REMARK                         _______ _______ _______ _____ _____    ______ ____
ROOT
ATOM      4  N   UNL     1      12.419   8.857  20.372  0.00  0.00    -0.286 NA
ATOM      9  C   UNL     1      13.109   8.160  21.476  0.00  0.00    +0.149 C 
ATOM     10  C   UNL     1      10.993   8.837  20.697  0.00  0.00    +0.116 C 
ATOM     11  C   UNL     1      12.067   7.173  22.033  0.00  0.00    +0.061 C 
ATOM     12  C   UNL     1      10.810   7.420  21.208  0.00  0.00    +0.130 C 
ENDROOT
BRANCH   4   8
ATOM      3  O   UNL     1      17.205  12.566  19.303  0.00  0.00    -0.276 OA
ATOM      5  N   UNL     1      15.082  12.130  20.141  0.00  0.00    -0.302 N 
ATOM      8  C   UNL     1      12.911  10.213  20.148  0.00  0.00    +0.060 C 
ATOM     13  C   UNL     1      13.985  10.210  19.052  0.00  0.00    +0.038 C 
ATOM     14  C   UNL     1      13.481  10.789  21.452  0.00  0.00    +0.038 C 
ATOM     15  C   UNL     1      14.582  11.603  18.869  0.00  0.00    +0.109 C 
ATOM     16  C   UNL     1      14.089  12.172  21.222  0.00  0.00    +0.109 C 
ATOM     18  C   UNL     1      16.398  12.579  20.237  0.00  0.00    +0.212 C 
ATOM     20  C   UNL     1      16.837  13.103  21.581  0.00  0.00    +0.109 C 
ENDBRANCH   4   8
BRANCH   9  17
ATOM      2  O   UNL     1      14.296   6.703  19.914  0.00  0.00    -0.336 OA
ATOM      6  N   UNL     1      15.578   7.513  21.562  0.00  0.00    -0.194 NA
ATOM      7  N   UNL     1      15.578   6.182  19.702  0.00  0.00    -0.061 NA
ATOM     17  C   UNL     1      14.383   7.476  21.028  0.00  0.00    +0.245 A 
ATOM     19  C   UNL     1      16.276   6.705  20.714  0.00  0.00    +0.174 A 
BRANCH  19  21
ATOM     21  C   UNL     1      17.704   6.425  20.900  0.00  0.00    +0.054 C 
ATOM     22  C   UNL     1      18.528   7.676  21.297  0.00  0.00    +0.015 C 
ATOM     23  C   UNL     1      18.366   5.761  19.666  0.00  0.00    +0.015 C 
ENDBRANCH  19  21
ENDBRANCH   9  17
BRANCH  12   1
ATOM      1  O   UNL     1       9.651   7.298  22.010  0.00  0.00    -0.390 OA
ATOM     24  H   UNL     1       9.379   6.365  21.989  0.00  0.00    +0.210 HD
ENDBRANCH  12   1
TORSDOF 4
ENDMDL
