MODEL 1
REMARK VINA RESULT:      -7.0      0.000      0.000
REMARK  Name = 75536781
REMARK  8 active torsions:
REMARK  status: ('A' for Active; 'I' for Inactive)
REMARK    1  A    between atoms: O_2  and  C_9
REMARK    2  A    between atoms: N_4  and  C_8
REMARK    3  A    between atoms: N_4  and  C_13
REMARK    4  A    between atoms: N_5  and  C_12
REMARK    5  A    between atoms: N_6  and  C_21
REMARK    6  A    between atoms: C_10  and  C_12
REMARK    7  A    between atoms: C_13  and  C_14
REMARK    8  A    between atoms: C_18  and  C_24
REMARK                            x       y       z     vdW  Elec       q    Type
REMARK                         _______ _______ _______ _____ _____    ______ ____
ROOT
ATOM      1  O   UNL     1     -17.728   5.263  23.445  0.00  0.00    -0.371 OA
ATOM      8  C   UNL     1     -15.501   4.772  22.808  0.00  0.00    +0.111 C 
ATOM      9  C   UNL     1     -15.918   3.764  23.864  0.00  0.00    +0.164 C 
ATOM     10  C   UNL     1     -17.263   4.271  24.379  0.00  0.00    +0.165 C 
ATOM     11  C   UNL     1     -16.847   5.282  22.316  0.00  0.00    +0.181 C 
ENDROOT
BRANCH   9   2
ATOM      2  O   UNL     1     -16.112   2.506  23.211  0.00  0.00    -0.388 OA
ATOM     29  H   UNL     1     -16.116   1.820  23.900  0.00  0.00    +0.210 HD
ENDBRANCH   9   2
BRANCH   8   4
ATOM      4  N   UNL     1     -14.714   5.860  23.383  0.00  0.00    -0.305 NA
ATOM     28  H   UNL     1     -15.011   6.019  24.346  0.00  0.00    +0.123 HD
BRANCH   4  13
ATOM     13  C   UNL     1     -14.897   7.095  22.630  0.00  0.00    +0.116 C 
BRANCH  13  14
ATOM     14  C   UNL     1     -13.691   7.424  21.789  0.00  0.00    -0.032 A 
ATOM     16  C   UNL     1     -13.425   8.747  21.437  0.00  0.00    +0.023 A 
ATOM     17  C   UNL     1     -12.840   6.404  21.364  0.00  0.00    +0.005 A 
ATOM     18  C   UNL     1     -12.308   9.050  20.659  0.00  0.00    +0.052 A 
ATOM     19  C   UNL     1     -11.723   6.707  20.586  0.00  0.00    +0.002 A 
ATOM     20  C   UNL     1     -11.457   8.030  20.234  0.00  0.00    +0.019 A 
BRANCH  18  24
ATOM      7  N   UNL     1     -11.809  11.505  20.005  0.00  0.00    -0.191 NA
ATOM     24  C   UNL     1     -12.033  10.404  20.298  0.00  0.00    +0.099 C 
ENDBRANCH  18  24
ENDBRANCH  13  14
ENDBRANCH   4  13
ENDBRANCH   8   4
BRANCH  10  12
ATOM     12  C   UNL     1     -17.184   4.912  25.757  0.00  0.00    +0.140 C 
BRANCH  12   5
ATOM      3  O   UNL     1     -17.565   3.421  28.172  0.00  0.00    -0.253 OA
ATOM      5  N   UNL     1     -16.163   4.302  26.558  0.00  0.00    -0.297 N 
ATOM      6  N   UNL     1     -15.243   3.106  28.299  0.00  0.00    -0.269 N 
ATOM     15  C   UNL     1     -16.429   3.583  27.734  0.00  0.00    +0.304 C 
ATOM     30  H   UNL     1     -15.196   4.403  26.262  0.00  0.00    +0.150 HD
ATOM     31  H   UNL     1     -14.381   3.331  27.807  0.00  0.00    +0.156 HD
BRANCH   6  21
ATOM     21  C   UNL     1     -15.088   2.342  29.479  0.00  0.00    +0.035 A 
ATOM     22  C   UNL     1     -14.636   2.951  30.650  0.00  0.00    +0.023 A 
ATOM     23  C   UNL     1     -15.388   0.980  29.472  0.00  0.00    +0.023 A 
ATOM     25  C   UNL     1     -14.483   2.197  31.814  0.00  0.00    +0.002 A 
ATOM     26  C   UNL     1     -15.235   0.226  30.635  0.00  0.00    +0.002 A 
ATOM     27  C   UNL     1     -14.783   0.834  31.806  0.00  0.00    +0.000 A 
ENDBRANCH   6  21
ENDBRANCH  12   5
ENDBRANCH  10  12
TORSDOF 8
ENDMDL
MODEL 2
REMARK VINA RESULT:      -6.9     31.146     35.409
REMARK  Name = 75536781
REMARK  8 active torsions:
REMARK  status: ('A' for Active; 'I' for Inactive)
REMARK    1  A    between atoms: O_2  and  C_9
REMARK    2  A    between atoms: N_4  and  C_8
REMARK    3  A    between atoms: N_4  and  C_13
REMARK    4  A    between atoms: N_5  and  C_12
REMARK    5  A    between atoms: N_6  and  C_21
REMARK    6  A    between atoms: C_10  and  C_12
REMARK    7  A    between atoms: C_13  and  C_14
REMARK    8  A    between atoms: C_18  and  C_24
REMARK                            x       y       z     vdW  Elec       q    Type
REMARK                         _______ _______ _______ _____ _____    ______ ____
ROOT
ATOM      1  O   UNL     1      13.292   2.839   1.630  0.00  0.00    -0.371 OA
ATOM      8  C   UNL     1      11.631   4.491   1.966  0.00  0.00    +0.111 C 
ATOM      9  C   UNL     1      12.214   4.691   0.578  0.00  0.00    +0.164 C 
ATOM     10  C   UNL     1      13.412   3.746   0.518  0.00  0.00    +0.165 C 
ATOM     11  C   UNL     1      12.029   3.055   2.267  0.00  0.00    +0.181 C 
ENDROOT
BRANCH   9   2
ATOM      2  O   UNL     1      11.233   4.264  -0.370  0.00  0.00    -0.388 OA
ATOM     29  H   UNL     1      10.635   5.014  -0.527  0.00  0.00    +0.210 HD
ENDBRANCH   9   2
BRANCH   8   4
ATOM      4  N   UNL     1      12.226   5.407   2.938  0.00  0.00    -0.305 NA
ATOM     28  H   UNL     1      12.263   4.953   3.851  0.00  0.00    +0.123 HD
BRANCH   4  13
ATOM     13  C   UNL     1      11.441   6.629   3.056  0.00  0.00    +0.116 C 
BRANCH  13  14
ATOM     14  C   UNL     1      10.377   6.512   4.116  0.00  0.00    -0.032 A 
ATOM     16  C   UNL     1      10.635   5.803   5.289  0.00  0.00    +0.023 A 
ATOM     17  C   UNL     1       9.134   7.113   3.924  0.00  0.00    +0.005 A 
ATOM     18  C   UNL     1       9.650   5.696   6.270  0.00  0.00    +0.052 A 
ATOM     19  C   UNL     1       8.148   7.006   4.905  0.00  0.00    +0.002 A 
ATOM     20  C   UNL     1       8.406   6.298   6.078  0.00  0.00    +0.019 A 
BRANCH  18  24
ATOM      7  N   UNL     1      10.126   4.383   8.451  0.00  0.00    -0.191 NA
ATOM     24  C   UNL     1       9.913   4.972   7.473  0.00  0.00    +0.099 C 
ENDBRANCH  18  24
ENDBRANCH  13  14
ENDBRANCH   4  13
ENDBRANCH   8   4
BRANCH  10  12
ATOM     12  C   UNL     1      14.753   4.457   0.624  0.00  0.00    +0.140 C 
BRANCH  12   5
ATOM      3  O   UNL     1      14.714   7.099   1.729  0.00  0.00    -0.253 OA
ATOM      5  N   UNL     1      15.043   4.823   1.980  0.00  0.00    -0.297 N 
ATOM      6  N   UNL     1      15.331   6.198   3.807  0.00  0.00    -0.269 N 
ATOM     15  C   UNL     1      15.003   6.146   2.450  0.00  0.00    +0.304 C 
ATOM     30  H   UNL     1      15.300   4.088   2.632  0.00  0.00    +0.150 HD
ATOM     31  H   UNL     1      15.546   5.311   4.258  0.00  0.00    +0.156 HD
BRANCH   6  21
ATOM     21  C   UNL     1      15.402   7.337   4.641  0.00  0.00    +0.035 A 
ATOM     22  C   UNL     1      16.584   8.073   4.719  0.00  0.00    +0.023 A 
ATOM     23  C   UNL     1      14.288   7.725   5.387  0.00  0.00    +0.023 A 
ATOM     25  C   UNL     1      16.654   9.197   5.542  0.00  0.00    +0.002 A 
ATOM     26  C   UNL     1      14.357   8.849   6.211  0.00  0.00    +0.002 A 
ATOM     27  C   UNL     1      15.540   9.584   6.288  0.00  0.00    +0.000 A 
ENDBRANCH   6  21
ENDBRANCH  12   5
ENDBRANCH  10  12
TORSDOF 8
ENDMDL
MODEL 3
REMARK VINA RESULT:      -6.9     18.413     20.891
REMARK  Name = 75536781
REMARK  8 active torsions:
REMARK  status: ('A' for Active; 'I' for Inactive)
REMARK    1  A    between atoms: O_2  and  C_9
REMARK    2  A    between atoms: N_4  and  C_8
REMARK    3  A    between atoms: N_4  and  C_13
REMARK    4  A    between atoms: N_5  and  C_12
REMARK    5  A    between atoms: N_6  and  C_21
REMARK    6  A    between atoms: C_10  and  C_12
REMARK    7  A    between atoms: C_13  and  C_14
REMARK    8  A    between atoms: C_18  and  C_24
REMARK                            x       y       z     vdW  Elec       q    Type
REMARK                         _______ _______ _______ _____ _____    ______ ____
ROOT
ATOM      1  O   UNL     1     -10.901  -9.558  16.337  0.00  0.00    -0.371 OA
ATOM      8  C   UNL     1      -9.205  -8.108  17.127  0.00  0.00    +0.111 C 
ATOM      9  C   UNL     1      -9.696  -7.571  15.794  0.00  0.00    +0.164 C 
ATOM     10  C   UNL     1     -10.616  -8.661  15.248  0.00  0.00    +0.165 C 
ATOM     11  C   UNL     1     -10.357  -9.009  17.542  0.00  0.00    +0.181 C 
ENDROOT
BRANCH   9   2
ATOM      2  O   UNL     1     -10.468  -6.396  16.057  0.00  0.00    -0.388 OA
ATOM     29  H   UNL     1     -10.165  -6.035  16.908  0.00  0.00    +0.210 HD
ENDBRANCH   9   2
BRANCH   8   4
ATOM      4  N   UNL     1      -7.973  -8.879  16.976  0.00  0.00    -0.305 NA
ATOM     28  H   UNL     1      -7.921  -9.250  16.027  0.00  0.00    +0.123 HD
BRANCH   4  13
ATOM     13  C   UNL     1      -7.934  -9.994  17.915  0.00  0.00    +0.116 C 
BRANCH  13  14
ATOM     14  C   UNL     1      -6.542 -10.546  18.072  0.00  0.00    -0.032 A 
ATOM     16  C   UNL     1      -5.611 -10.397  17.044  0.00  0.00    +0.023 A 
ATOM     17  C   UNL     1      -6.183 -11.205  19.248  0.00  0.00    +0.005 A 
ATOM     18  C   UNL     1      -4.321 -10.908  17.192  0.00  0.00    +0.052 A 
ATOM     19  C   UNL     1      -4.893 -11.716  19.396  0.00  0.00    +0.002 A 
ATOM     20  C   UNL     1      -3.963 -11.567  18.367  0.00  0.00    +0.019 A 
BRANCH  18  24
ATOM      7  N   UNL     1      -2.589 -10.631  15.286  0.00  0.00    -0.191 NA
ATOM     24  C   UNL     1      -3.366 -10.755  16.140  0.00  0.00    +0.099 C 
ENDBRANCH  18  24
ENDBRANCH  13  14
ENDBRANCH   4  13
ENDBRANCH   8   4
BRANCH  10  12
ATOM     12  C   UNL     1      -9.999  -9.466  14.114  0.00  0.00    +0.140 C 
BRANCH  12   5
ATOM      3  O   UNL     1      -8.320 -10.261  11.934  0.00  0.00    -0.253 OA
ATOM      5  N   UNL     1      -8.615  -9.136  13.934  0.00  0.00    -0.297 N 
ATOM      6  N   UNL     1      -6.543  -9.092  12.927  0.00  0.00    -0.269 N 
ATOM     15  C   UNL     1      -7.854  -9.564  12.834  0.00  0.00    +0.304 C 
ATOM     30  H   UNL     1      -8.159  -8.571  14.644  0.00  0.00    +0.150 HD
ATOM     31  H   UNL     1      -6.320  -8.525  13.741  0.00  0.00    +0.156 HD
BRANCH   6  21
ATOM     21  C   UNL     1      -5.477  -9.304  12.022  0.00  0.00    +0.035 A 
ATOM     22  C   UNL     1      -5.378  -8.531  10.865  0.00  0.00    +0.023 A 
ATOM     23  C   UNL     1      -4.523 -10.287  12.288  0.00  0.00    +0.023 A 
ATOM     25  C   UNL     1      -4.327  -8.741   9.973  0.00  0.00    +0.002 A 
ATOM     26  C   UNL     1      -3.471 -10.497  11.396  0.00  0.00    +0.002 A 
ATOM     27  C   UNL     1      -3.373  -9.724  10.239  0.00  0.00    +0.000 A 
ENDBRANCH   6  21
ENDBRANCH  12   5
ENDBRANCH  10  12
TORSDOF 8
ENDMDL
MODEL 4
REMARK VINA RESULT:      -6.8     31.247     35.370
REMARK  Name = 75536781
REMARK  8 active torsions:
REMARK  status: ('A' for Active; 'I' for Inactive)
REMARK    1  A    between atoms: O_2  and  C_9
REMARK    2  A    between atoms: N_4  and  C_8
REMARK    3  A    between atoms: N_4  and  C_13
REMARK    4  A    between atoms: N_5  and  C_12
REMARK    5  A    between atoms: N_6  and  C_21
REMARK    6  A    between atoms: C_10  and  C_12
REMARK    7  A    between atoms: C_13  and  C_14
REMARK    8  A    between atoms: C_18  and  C_24
REMARK                            x       y       z     vdW  Elec       q    Type
REMARK                         _______ _______ _______ _____ _____    ______ ____
ROOT
ATOM      1  O   UNL     1      13.562   5.170  -0.226  0.00  0.00    -0.371 OA
ATOM      8  C   UNL     1      15.491   5.584   1.081  0.00  0.00    +0.111 C 
ATOM      9  C   UNL     1      15.476   4.108   0.726  0.00  0.00    +0.164 C 
ATOM     10  C   UNL     1      14.111   3.875   0.082  0.00  0.00    +0.165 C 
ATOM     11  C   UNL     1      14.556   6.167   0.033  0.00  0.00    +0.181 C 
ENDROOT
BRANCH   9   2
ATOM      2  O   UNL     1      16.497   3.885  -0.249  0.00  0.00    -0.388 OA
ATOM     29  H   UNL     1      16.728   2.941  -0.217  0.00  0.00    +0.210 HD
ENDBRANCH   9   2
BRANCH   8   4
ATOM      4  N   UNL     1      14.970   5.821   2.426  0.00  0.00    -0.305 NA
ATOM     28  H   UNL     1      14.154   5.228   2.581  0.00  0.00    +0.123 HD
BRANCH   4  13
ATOM     13  C   UNL     1      14.573   7.213   2.598  0.00  0.00    +0.116 C 
BRANCH  13  14
ATOM     14  C   UNL     1      14.268   7.535   4.037  0.00  0.00    -0.032 A 
ATOM     16  C   UNL     1      13.040   8.100   4.381  0.00  0.00    +0.023 A 
ATOM     17  C   UNL     1      15.214   7.267   5.027  0.00  0.00    +0.005 A 
ATOM     18  C   UNL     1      12.758   8.397   5.714  0.00  0.00    +0.052 A 
ATOM     19  C   UNL     1      14.932   7.564   6.360  0.00  0.00    +0.002 A 
ATOM     20  C   UNL     1      13.704   8.129   6.704  0.00  0.00    +0.019 A 
BRANCH  18  24
ATOM      7  N   UNL     1      10.478   9.444   6.356  0.00  0.00    -0.191 NA
ATOM     24  C   UNL     1      11.500   8.975   6.068  0.00  0.00    +0.099 C 
ENDBRANCH  18  24
ENDBRANCH  13  14
ENDBRANCH   4  13
ENDBRANCH   8   4
BRANCH  10  12
ATOM     12  C   UNL     1      13.129   3.143   0.984  0.00  0.00    +0.140 C 
BRANCH  12   5
ATOM      3  O   UNL     1      10.517   4.050   1.730  0.00  0.00    -0.253 OA
ATOM      5  N   UNL     1      12.791   3.930   2.135  0.00  0.00    -0.297 N 
ATOM      6  N   UNL     1      11.457   5.090   3.612  0.00  0.00    -0.269 N 
ATOM     15  C   UNL     1      11.481   4.338   2.435  0.00  0.00    +0.304 C 
ATOM     30  H   UNL     1      13.540   4.215   2.759  0.00  0.00    +0.150 HD
ATOM     31  H   UNL     1      12.350   5.238   4.077  0.00  0.00    +0.156 HD
BRANCH   6  21
ATOM     21  C   UNL     1      10.337   5.678   4.245  0.00  0.00    +0.035 A 
ATOM     22  C   UNL     1       9.948   5.249   5.514  0.00  0.00    +0.023 A 
ATOM     23  C   UNL     1       9.622   6.687   3.599  0.00  0.00    +0.023 A 
ATOM     25  C   UNL     1       8.842   5.828   6.137  0.00  0.00    +0.002 A 
ATOM     26  C   UNL     1       8.516   7.266   4.222  0.00  0.00    +0.002 A 
ATOM     27  C   UNL     1       8.127   6.837   5.491  0.00  0.00    +0.000 A 
ENDBRANCH   6  21
ENDBRANCH  12   5
ENDBRANCH  10  12
TORSDOF 8
ENDMDL
MODEL 5
REMARK VINA RESULT:      -6.7     18.457     20.505
REMARK  Name = 75536781
REMARK  8 active torsions:
REMARK  status: ('A' for Active; 'I' for Inactive)
REMARK    1  A    between atoms: O_2  and  C_9
REMARK    2  A    between atoms: N_4  and  C_8
REMARK    3  A    between atoms: N_4  and  C_13
REMARK    4  A    between atoms: N_5  and  C_12
REMARK    5  A    between atoms: N_6  and  C_21
REMARK    6  A    between atoms: C_10  and  C_12
REMARK    7  A    between atoms: C_13  and  C_14
REMARK    8  A    between atoms: C_18  and  C_24
REMARK                            x       y       z     vdW  Elec       q    Type
REMARK                         _______ _______ _______ _____ _____    ______ ____
ROOT
ATOM      1  O   UNL     1     -11.242  -9.698  16.487  0.00  0.00    -0.371 OA
ATOM      8  C   UNL     1      -9.742  -8.463  17.839  0.00  0.00    +0.111 C 
ATOM      9  C   UNL     1     -10.002  -7.660  16.576  0.00  0.00    +0.164 C 
ATOM     10  C   UNL     1     -10.789  -8.604  15.669  0.00  0.00    +0.165 C 
ATOM     11  C   UNL     1     -10.930  -9.412  17.854  0.00  0.00    +0.181 C 
ENDROOT
BRANCH   9   2
ATOM      2  O   UNL     1     -10.832  -6.551  16.929  0.00  0.00    -0.388 OA
ATOM     29  H   UNL     1     -10.428  -6.121  17.702  0.00  0.00    +0.210 HD
ENDBRANCH   9   2
BRANCH   8   4
ATOM      4  N   UNL     1      -8.487  -9.207  17.756  0.00  0.00    -0.305 NA
ATOM     28  H   UNL     1      -8.214  -9.300  16.777  0.00  0.00    +0.123 HD
BRANCH   4  13
ATOM     13  C   UNL     1      -8.628 -10.540  18.328  0.00  0.00    +0.116 C 
BRANCH  13  14
ATOM     14  C   UNL     1      -7.294 -11.207  18.531  0.00  0.00    -0.032 A 
ATOM     16  C   UNL     1      -6.921 -12.283  17.726  0.00  0.00    +0.023 A 
ATOM     17  C   UNL     1      -6.430 -10.748  19.525  0.00  0.00    +0.005 A 
ATOM     18  C   UNL     1      -5.684 -12.900  17.914  0.00  0.00    +0.052 A 
ATOM     19  C   UNL     1      -5.193 -11.365  19.714  0.00  0.00    +0.002 A 
ATOM     20  C   UNL     1      -4.820 -12.441  18.908  0.00  0.00    +0.019 A 
BRANCH  18  24
ATOM      7  N   UNL     1      -4.989 -14.896  16.417  0.00  0.00    -0.191 NA
ATOM     24  C   UNL     1      -5.301 -14.001  17.089  0.00  0.00    +0.099 C 
ENDBRANCH  18  24
ENDBRANCH  13  14
ENDBRANCH   4  13
ENDBRANCH   8   4
BRANCH  10  12
ATOM     12  C   UNL     1      -9.966  -9.173  14.523  0.00  0.00    +0.140 C 
BRANCH  12   5
ATOM      3  O   UNL     1      -7.960 -11.213  14.672  0.00  0.00    -0.253 OA
ATOM      5  N   UNL     1      -8.561  -8.980  14.744  0.00  0.00    -0.297 N 
ATOM      6  N   UNL     1      -6.346  -9.547  15.030  0.00  0.00    -0.269 N 
ATOM     15  C   UNL     1      -7.636 -10.035  14.804  0.00  0.00    +0.304 C 
ATOM     30  H   UNL     1      -8.221  -8.032  14.873  0.00  0.00    +0.150 HD
ATOM     31  H   UNL     1      -6.250  -8.538  15.117  0.00  0.00    +0.156 HD
BRANCH   6  21
ATOM     21  C   UNL     1      -5.147 -10.286  15.153  0.00  0.00    +0.035 A 
ATOM     22  C   UNL     1      -4.834 -11.270  14.217  0.00  0.00    +0.023 A 
ATOM     23  C   UNL     1      -4.277 -10.028  16.213  0.00  0.00    +0.023 A 
ATOM     25  C   UNL     1      -3.651 -11.999  14.340  0.00  0.00    +0.002 A 
ATOM     26  C   UNL     1      -3.094 -10.758  16.336  0.00  0.00    +0.002 A 
ATOM     27  C   UNL     1      -2.781 -11.742  15.399  0.00  0.00    +0.000 A 
ENDBRANCH   6  21
ENDBRANCH  12   5
ENDBRANCH  10  12
TORSDOF 8
ENDMDL
MODEL 6
REMARK VINA RESULT:      -6.6     17.427     19.765
REMARK  Name = 75536781
REMARK  8 active torsions:
REMARK  status: ('A' for Active; 'I' for Inactive)
REMARK    1  A    between atoms: O_2  and  C_9
REMARK    2  A    between atoms: N_4  and  C_8
REMARK    3  A    between atoms: N_4  and  C_13
REMARK    4  A    between atoms: N_5  and  C_12
REMARK    5  A    between atoms: N_6  and  C_21
REMARK    6  A    between atoms: C_10  and  C_12
REMARK    7  A    between atoms: C_13  and  C_14
REMARK    8  A    between atoms: C_18  and  C_24
REMARK                            x       y       z     vdW  Elec       q    Type
REMARK                         _______ _______ _______ _____ _____    ______ ____
ROOT
ATOM      1  O   UNL     1      -4.782 -10.696  18.629  0.00  0.00    -0.371 OA
ATOM      8  C   UNL     1      -6.242 -12.550  18.824  0.00  0.00    +0.111 C 
ATOM      9  C   UNL     1      -5.219 -12.872  17.749  0.00  0.00    +0.164 C 
ATOM     10  C   UNL     1      -4.461 -11.565  17.527  0.00  0.00    +0.165 C 
ATOM     11  C   UNL     1      -5.549 -11.433  19.588  0.00  0.00    +0.181 C 
ENDROOT
BRANCH   9   2
ATOM      2  O   UNL     1      -4.321 -13.849  18.283  0.00  0.00    -0.388 OA
ATOM     29  H   UNL     1      -4.709 -14.176  19.112  0.00  0.00    +0.210 HD
ENDBRANCH   9   2
BRANCH   8   4
ATOM      4  N   UNL     1      -7.499 -12.079  18.247  0.00  0.00    -0.305 NA
ATOM     28  H   UNL     1      -7.299 -11.425  17.490  0.00  0.00    +0.123 HD
BRANCH   4  13
ATOM     13  C   UNL     1      -8.313 -11.399  19.247  0.00  0.00    +0.116 C 
BRANCH  13  14
ATOM     14  C   UNL     1      -9.744 -11.252  18.800  0.00  0.00    -0.032 A 
ATOM     16  C   UNL     1     -10.670 -10.609  19.622  0.00  0.00    +0.023 A 
ATOM     17  C   UNL     1     -10.143 -11.758  17.563  0.00  0.00    +0.005 A 
ATOM     18  C   UNL     1     -11.994 -10.472  19.206  0.00  0.00    +0.052 A 
ATOM     19  C   UNL     1     -11.467 -11.621  17.148  0.00  0.00    +0.002 A 
ATOM     20  C   UNL     1     -12.393 -10.978  17.969  0.00  0.00    +0.019 A 
BRANCH  18  24
ATOM      7  N   UNL     1     -13.714  -9.274  20.728  0.00  0.00    -0.191 NA
ATOM     24  C   UNL     1     -12.943  -9.812  20.046  0.00  0.00    +0.099 C 
ENDBRANCH  18  24
ENDBRANCH  13  14
ENDBRANCH   4  13
ENDBRANCH   8   4
BRANCH  10  12
ATOM     12  C   UNL     1      -4.837 -10.856  16.234  0.00  0.00    +0.140 C 
BRANCH  12   5
ATOM      3  O   UNL     1      -7.596 -10.923  15.470  0.00  0.00    -0.253 OA
ATOM      5  N   UNL     1      -5.815  -9.833  16.466  0.00  0.00    -0.297 N 
ATOM      6  N   UNL     1      -7.871  -8.794  16.420  0.00  0.00    -0.269 N 
ATOM     15  C   UNL     1      -7.156  -9.939  16.060  0.00  0.00    +0.304 C 
ATOM     30  H   UNL     1      -5.520  -8.985  16.940  0.00  0.00    +0.150 HD
ATOM     31  H   UNL     1      -7.353  -8.067  16.907  0.00  0.00    +0.156 HD
BRANCH   6  21
ATOM     21  C   UNL     1      -9.239  -8.517  16.191  0.00  0.00    +0.035 A 
ATOM     22  C   UNL     1      -9.994  -7.872  17.171  0.00  0.00    +0.023 A 
ATOM     23  C   UNL     1      -9.833  -8.889  14.984  0.00  0.00    +0.023 A 
ATOM     25  C   UNL     1     -11.343  -7.599  16.945  0.00  0.00    +0.002 A 
ATOM     26  C   UNL     1     -11.182  -8.616  14.758  0.00  0.00    +0.002 A 
ATOM     27  C   UNL     1     -11.937  -7.971  15.738  0.00  0.00    +0.000 A 
ENDBRANCH   6  21
ENDBRANCH  12   5
ENDBRANCH  10  12
TORSDOF 8
ENDMDL
MODEL 7
REMARK VINA RESULT:      -6.6      2.332      9.220
REMARK  Name = 75536781
REMARK  8 active torsions:
REMARK  status: ('A' for Active; 'I' for Inactive)
REMARK    1  A    between atoms: O_2  and  C_9
REMARK    2  A    between atoms: N_4  and  C_8
REMARK    3  A    between atoms: N_4  and  C_13
REMARK    4  A    between atoms: N_5  and  C_12
REMARK    5  A    between atoms: N_6  and  C_21
REMARK    6  A    between atoms: C_10  and  C_12
REMARK    7  A    between atoms: C_13  and  C_14
REMARK    8  A    between atoms: C_18  and  C_24
REMARK                            x       y       z     vdW  Elec       q    Type
REMARK                         _______ _______ _______ _____ _____    ______ ____
ROOT
ATOM      1  O   UNL     1     -16.380   1.234  24.990  0.00  0.00    -0.371 OA
ATOM      8  C   UNL     1     -18.201   1.806  26.391  0.00  0.00    +0.111 C 
ATOM      9  C   UNL     1     -18.083   2.875  25.319  0.00  0.00    +0.164 C 
ATOM     10  C   UNL     1     -16.773   2.563  24.599  0.00  0.00    +0.165 C 
ATOM     11  C   UNL     1     -17.433   0.652  25.766  0.00  0.00    +0.181 C 
ENDROOT
BRANCH   9   2
ATOM      2  O   UNL     1     -19.171   2.698  24.408  0.00  0.00    -0.388 OA
ATOM     29  H   UNL     1     -19.049   3.335  23.684  0.00  0.00    +0.210 HD
ENDBRANCH   9   2
BRANCH   8   4
ATOM      4  N   UNL     1     -17.574   2.227  27.642  0.00  0.00    -0.305 NA
ATOM     28  H   UNL     1     -16.766   2.815  27.434  0.00  0.00    +0.123 HD
BRANCH   4  13
ATOM     13  C   UNL     1     -17.124   1.076  28.416  0.00  0.00    +0.116 C 
BRANCH  13  14
ATOM     14  C   UNL     1     -15.937   1.412  29.282  0.00  0.00    -0.032 A 
ATOM     16  C   UNL     1     -15.874   2.644  29.932  0.00  0.00    +0.023 A 
ATOM     17  C   UNL     1     -14.903   0.488  29.433  0.00  0.00    +0.005 A 
ATOM     18  C   UNL     1     -14.775   2.952  30.734  0.00  0.00    +0.052 A 
ATOM     19  C   UNL     1     -13.804   0.797  30.235  0.00  0.00    +0.002 A 
ATOM     20  C   UNL     1     -13.740   2.029  30.886  0.00  0.00    +0.019 A 
BRANCH  18  24
ATOM      7  N   UNL     1     -14.655   5.239  31.945  0.00  0.00    -0.191 NA
ATOM     24  C   UNL     1     -14.709   4.213  31.403  0.00  0.00    +0.099 C 
ENDBRANCH  18  24
ENDBRANCH  13  14
ENDBRANCH   4  13
ENDBRANCH   8   4
BRANCH  10  12
ATOM     12  C   UNL     1     -15.643   3.519  24.951  0.00  0.00    +0.140 C 
BRANCH  12   5
ATOM      3  O   UNL     1     -15.178   6.036  23.667  0.00  0.00    -0.253 OA
ATOM      5  N   UNL     1     -14.793   3.761  23.821  0.00  0.00    -0.297 N 
ATOM      6  N   UNL     1     -13.734   4.959  22.163  0.00  0.00    -0.269 N 
ATOM     15  C   UNL     1     -14.615   5.029  23.245  0.00  0.00    +0.304 C 
ATOM     30  H   UNL     1     -14.303   2.972  23.412  0.00  0.00    +0.150 HD
ATOM     31  H   UNL     1     -13.354   4.041  21.943  0.00  0.00    +0.156 HD
BRANCH   6  21
ATOM     21  C   UNL     1     -13.300   6.013  21.326  0.00  0.00    +0.035 A 
ATOM     22  C   UNL     1     -11.940   6.301  21.215  0.00  0.00    +0.023 A 
ATOM     23  C   UNL     1     -14.234   6.766  20.612  0.00  0.00    +0.023 A 
ATOM     25  C   UNL     1     -11.512   7.342  20.390  0.00  0.00    +0.002 A 
ATOM     26  C   UNL     1     -13.806   7.806  19.787  0.00  0.00    +0.002 A 
ATOM     27  C   UNL     1     -12.446   8.094  19.676  0.00  0.00    +0.000 A 
ENDBRANCH   6  21
ENDBRANCH  12   5
ENDBRANCH  10  12
TORSDOF 8
ENDMDL
MODEL 8
REMARK VINA RESULT:      -6.5     30.277     33.136
REMARK  Name = 75536781
REMARK  8 active torsions:
REMARK  status: ('A' for Active; 'I' for Inactive)
REMARK    1  A    between atoms: O_2  and  C_9
REMARK    2  A    between atoms: N_4  and  C_8
REMARK    3  A    between atoms: N_4  and  C_13
REMARK    4  A    between atoms: N_5  and  C_12
REMARK    5  A    between atoms: N_6  and  C_21
REMARK    6  A    between atoms: C_10  and  C_12
REMARK    7  A    between atoms: C_13  and  C_14
REMARK    8  A    between atoms: C_18  and  C_24
REMARK                            x       y       z     vdW  Elec       q    Type
REMARK                         _______ _______ _______ _____ _____    ______ ____
ROOT
ATOM      1  O   UNL     1       9.107   5.858   7.130  0.00  0.00    -0.371 OA
ATOM      8  C   UNL     1      11.080   5.861   5.823  0.00  0.00    +0.111 C 
ATOM      9  C   UNL     1      11.366   6.628   7.102  0.00  0.00    +0.164 C 
ATOM     10  C   UNL     1      10.007   6.772   7.783  0.00  0.00    +0.165 C 
ATOM     11  C   UNL     1       9.853   5.052   6.212  0.00  0.00    +0.181 C 
ENDROOT
BRANCH   9   2
ATOM      2  O   UNL     1      12.213   5.812   7.916  0.00  0.00    -0.388 OA
ATOM     29  H   UNL     1      11.780   4.947   8.009  0.00  0.00    +0.210 HD
ENDBRANCH   9   2
BRANCH   8   4
ATOM      4  N   UNL     1      10.774   6.761   4.712  0.00  0.00    -0.305 NA
ATOM     28  H   UNL     1      10.346   7.613   5.077  0.00  0.00    +0.123 HD
BRANCH   4  13
ATOM     13  C   UNL     1       9.848   6.140   3.773  0.00  0.00    +0.116 C 
BRANCH  13  14
ATOM     14  C   UNL     1      10.551   5.650   2.534  0.00  0.00    -0.032 A 
ATOM     16  C   UNL     1      11.743   4.934   2.644  0.00  0.00    +0.023 A 
ATOM     17  C   UNL     1      10.007   5.911   1.277  0.00  0.00    +0.005 A 
ATOM     18  C   UNL     1      12.391   4.480   1.496  0.00  0.00    +0.052 A 
ATOM     19  C   UNL     1      10.656   5.457   0.128  0.00  0.00    +0.002 A 
ATOM     20  C   UNL     1      11.848   4.742   0.238  0.00  0.00    +0.019 A 
BRANCH  18  24
ATOM      7  N   UNL     1      14.603   3.147   1.697  0.00  0.00    -0.191 NA
ATOM     24  C   UNL     1      13.612   3.745   1.607  0.00  0.00    +0.099 C 
ENDBRANCH  18  24
ENDBRANCH  13  14
ENDBRANCH   4  13
ENDBRANCH   8   4
BRANCH  10  12
ATOM     12  C   UNL     1       9.422   8.173   7.682  0.00  0.00    +0.140 C 
BRANCH  12   5
ATOM      3  O   UNL     1       9.480   9.557   5.175  0.00  0.00    -0.253 OA
ATOM      5  N   UNL     1       8.369   8.229   6.709  0.00  0.00    -0.297 N 
ATOM      6  N   UNL     1       7.295   8.808   4.755  0.00  0.00    -0.269 N 
ATOM     15  C   UNL     1       8.472   8.932   5.498  0.00  0.00    +0.304 C 
ATOM     30  H   UNL     1       7.501   7.743   6.913  0.00  0.00    +0.150 HD
ATOM     31  H   UNL     1       6.552   8.251   5.168  0.00  0.00    +0.156 HD
BRANCH   6  21
ATOM     21  C   UNL     1       7.005   9.365   3.487  0.00  0.00    +0.035 A 
ATOM     22  C   UNL     1       7.745   8.978   2.369  0.00  0.00    +0.023 A 
ATOM     23  C   UNL     1       5.979  10.301   3.356  0.00  0.00    +0.023 A 
ATOM     25  C   UNL     1       7.459   9.529   1.120  0.00  0.00    +0.002 A 
ATOM     26  C   UNL     1       5.693  10.852   2.107  0.00  0.00    +0.002 A 
ATOM     27  C   UNL     1       6.432  10.465   0.989  0.00  0.00    +0.000 A 
ENDBRANCH   6  21
ENDBRANCH  12   5
ENDBRANCH  10  12
TORSDOF 8
ENDMDL
MODEL 9
REMARK VINA RESULT:      -6.5      2.056      9.436
REMARK  Name = 75536781
REMARK  8 active torsions:
REMARK  status: ('A' for Active; 'I' for Inactive)
REMARK    1  A    between atoms: O_2  and  C_9
REMARK    2  A    between atoms: N_4  and  C_8
REMARK    3  A    between atoms: N_4  and  C_13
REMARK    4  A    between atoms: N_5  and  C_12
REMARK    5  A    between atoms: N_6  and  C_21
REMARK    6  A    between atoms: C_10  and  C_12
REMARK    7  A    between atoms: C_13  and  C_14
REMARK    8  A    between atoms: C_18  and  C_24
REMARK                            x       y       z     vdW  Elec       q    Type
REMARK                         _______ _______ _______ _____ _____    ______ ____
ROOT
ATOM      1  O   UNL     1     -18.072   3.041  25.081  0.00  0.00    -0.371 OA
ATOM      8  C   UNL     1     -18.190   4.010  27.237  0.00  0.00    +0.111 C 
ATOM      9  C   UNL     1     -17.614   5.047  26.290  0.00  0.00    +0.164 C 
ATOM     10  C   UNL     1     -17.364   4.291  24.987  0.00  0.00    +0.165 C 
ATOM     11  C   UNL     1     -18.866   3.048  26.272  0.00  0.00    +0.181 C 
ENDROOT
BRANCH   9   2
ATOM      2  O   UNL     1     -18.620   6.040  26.069  0.00  0.00    -0.388 OA
ATOM     29  H   UNL     1     -19.337   5.872  26.705  0.00  0.00    +0.210 HD
ENDBRANCH   9   2
BRANCH   8   4
ATOM      4  N   UNL     1     -17.142   3.330  27.995  0.00  0.00    -0.305 NA
ATOM     28  H   UNL     1     -17.569   2.671  28.646  0.00  0.00    +0.123 HD
BRANCH   4  13
ATOM     13  C   UNL     1     -16.342   4.283  28.755  0.00  0.00    +0.116 C 
BRANCH  13  14
ATOM     14  C   UNL     1     -15.407   3.592  29.712  0.00  0.00    -0.032 A 
ATOM     16  C   UNL     1     -14.953   2.302  29.437  0.00  0.00    +0.023 A 
ATOM     17  C   UNL     1     -14.993   4.244  30.874  0.00  0.00    +0.005 A 
ATOM     18  C   UNL     1     -14.086   1.665  30.324  0.00  0.00    +0.052 A 
ATOM     19  C   UNL     1     -14.126   3.607  31.761  0.00  0.00    +0.002 A 
ATOM     20  C   UNL     1     -13.672   2.317  31.486  0.00  0.00    +0.019 A 
BRANCH  18  24
ATOM      7  N   UNL     1     -13.238  -0.729  29.815  0.00  0.00    -0.191 NA
ATOM     24  C   UNL     1     -13.619   0.344  30.043  0.00  0.00    +0.099 C 
ENDBRANCH  18  24
ENDBRANCH  13  14
ENDBRANCH   4  13
ENDBRANCH   8   4
BRANCH  10  12
ATOM     12  C   UNL     1     -15.895   3.990  24.732  0.00  0.00    +0.140 C 
BRANCH  12   5
ATOM      3  O   UNL     1     -14.890   4.225  22.060  0.00  0.00    -0.253 OA
ATOM      5  N   UNL     1     -15.221   5.123  24.166  0.00  0.00    -0.297 N 
ATOM      6  N   UNL     1     -14.143   6.390  22.572  0.00  0.00    -0.269 N 
ATOM     15  C   UNL     1     -14.755   5.164  22.841  0.00  0.00    +0.304 C 
ATOM     30  H   UNL     1     -15.065   5.933  24.757  0.00  0.00    +0.150 HD
ATOM     31  H   UNL     1     -14.115   7.063  23.335  0.00  0.00    +0.156 HD
BRANCH   6  21
ATOM     21  C   UNL     1     -13.551   6.818  21.361  0.00  0.00    +0.035 A 
ATOM     22  C   UNL     1     -12.193   6.596  21.131  0.00  0.00    +0.023 A 
ATOM     23  C   UNL     1     -14.326   7.464  20.397  0.00  0.00    +0.023 A 
ATOM     25  C   UNL     1     -11.609   7.019  19.937  0.00  0.00    +0.002 A 
ATOM     26  C   UNL     1     -13.742   7.888  19.203  0.00  0.00    +0.002 A 
ATOM     27  C   UNL     1     -12.385   7.665  18.973  0.00  0.00    +0.000 A 
ENDBRANCH   6  21
ENDBRANCH  12   5
ENDBRANCH  10  12
TORSDOF 8
ENDMDL
MODEL 10
REMARK VINA RESULT:      -6.5     20.474     22.286
REMARK  Name = 75536781
REMARK  8 active torsions:
REMARK  status: ('A' for Active; 'I' for Inactive)
REMARK    1  A    between atoms: O_2  and  C_9
REMARK    2  A    between atoms: N_4  and  C_8
REMARK    3  A    between atoms: N_4  and  C_13
REMARK    4  A    between atoms: N_5  and  C_12
REMARK    5  A    between atoms: N_6  and  C_21
REMARK    6  A    between atoms: C_10  and  C_12
REMARK    7  A    between atoms: C_13  and  C_14
REMARK    8  A    between atoms: C_18  and  C_24
REMARK                            x       y       z     vdW  Elec       q    Type
REMARK                         _______ _______ _______ _____ _____    ______ ____
ROOT
ATOM      1  O   UNL     1      -2.267 -10.478  12.973  0.00  0.00    -0.371 OA
ATOM      8  C   UNL     1      -1.948 -11.961  14.791  0.00  0.00    +0.111 C 
ATOM      9  C   UNL     1      -2.087 -12.793  13.528  0.00  0.00    +0.164 C 
ATOM     10  C   UNL     1      -2.505 -11.798  12.448  0.00  0.00    +0.165 C 
ATOM     11  C   UNL     1      -1.585 -10.597  14.227  0.00  0.00    +0.181 C 
ENDROOT
BRANCH   9   2
ATOM      2  O   UNL     1      -0.794 -13.315  13.208  0.00  0.00    -0.388 OA
ATOM     29  H   UNL     1      -0.152 -12.595  13.332  0.00  0.00    +0.210 HD
ENDBRANCH   9   2
BRANCH   8   4
ATOM      4  N   UNL     1      -3.205 -11.896  15.533  0.00  0.00    -0.305 NA
ATOM     28  H   UNL     1      -3.979 -11.788  14.877  0.00  0.00    +0.123 HD
BRANCH   4  13
ATOM     13  C   UNL     1      -3.213 -10.765  16.453  0.00  0.00    +0.116 C 
BRANCH  13  14
ATOM     14  C   UNL     1      -4.417 -10.787  17.358  0.00  0.00    -0.032 A 
ATOM     16  C   UNL     1      -5.562 -10.069  17.015  0.00  0.00    +0.023 A 
ATOM     17  C   UNL     1      -4.385 -11.526  18.540  0.00  0.00    +0.005 A 
ATOM     18  C   UNL     1      -6.676 -10.091  17.853  0.00  0.00    +0.052 A 
ATOM     19  C   UNL     1      -5.499 -11.548  19.379  0.00  0.00    +0.002 A 
ATOM     20  C   UNL     1      -6.645 -10.830  19.036  0.00  0.00    +0.019 A 
BRANCH  18  24
ATOM      7  N   UNL     1      -8.806  -8.762  17.216  0.00  0.00    -0.191 NA
ATOM     24  C   UNL     1      -7.851  -9.358  17.502  0.00  0.00    +0.099 C 
ENDBRANCH  18  24
ENDBRANCH  13  14
ENDBRANCH   4  13
ENDBRANCH   8   4
BRANCH  10  12
ATOM     12  C   UNL     1      -3.973 -11.901  12.062  0.00  0.00    +0.140 C 
BRANCH  12   5
ATOM      3  O   UNL     1      -5.976 -11.084  13.939  0.00  0.00    -0.253 OA
ATOM      5  N   UNL     1      -4.693 -12.746  12.970  0.00  0.00    -0.297 N 
ATOM      6  N   UNL     1      -6.195 -13.319  14.621  0.00  0.00    -0.269 N 
ATOM     15  C   UNL     1      -5.665 -12.271  13.865  0.00  0.00    +0.304 C 
ATOM     30  H   UNL     1      -4.481 -13.740  12.972  0.00  0.00    +0.150 HD
ATOM     31  H   UNL     1      -5.825 -14.248  14.434  0.00  0.00    +0.156 HD
BRANCH   6  21
ATOM     21  C   UNL     1      -7.191 -13.252  15.623  0.00  0.00    +0.035 A 
ATOM     22  C   UNL     1      -7.004 -13.912  16.837  0.00  0.00    +0.023 A 
ATOM     23  C   UNL     1      -8.359 -12.524  15.395  0.00  0.00    +0.023 A 
ATOM     25  C   UNL     1      -7.987 -13.845  17.825  0.00  0.00    +0.002 A 
ATOM     26  C   UNL     1      -9.342 -12.458  16.383  0.00  0.00    +0.002 A 
ATOM     27  C   UNL     1      -9.156 -13.118  17.598  0.00  0.00    +0.000 A 
ENDBRANCH   6  21
ENDBRANCH  12   5
ENDBRANCH  10  12
TORSDOF 8
ENDMDL
