MODEL 1
REMARK VINA RESULT:      -6.8      0.000      0.000
REMARK  Name = 7051255
REMARK  6 active torsions:
REMARK  status: ('A' for Active; 'I' for Inactive)
REMARK    1  A    between atoms: S_2  and  N_10
REMARK    2  A    between atoms: S_2  and  C_28
REMARK    3  A    between atoms: O_7  and  C_29
REMARK    4  A    between atoms: O_7  and  C_35
REMARK    5  A    between atoms: N_10  and  C_21
REMARK    6  A    between atoms: C_20  and  C_23
REMARK                            x       y       z     vdW  Elec       q    Type
REMARK                         _______ _______ _______ _____ _____    ______ ____
ROOT
ATOM      3  O   UNL     1      -3.879 -11.641  18.291  0.00  0.00    -0.266 OA
ATOM      4  O   UNL     1      -7.427 -15.219  17.080  0.00  0.00    -0.270 OA
ATOM      8  N   UNL     1      -8.564 -13.247  17.619  0.00  0.00    -0.297 N 
ATOM      9  N   UNL     1      -6.179 -11.221  18.141  0.00  0.00    -0.310 N 
ATOM     11  C   UNL     1      -7.888 -12.203  19.775  0.00  0.00    +0.027 C 
ATOM     12  C   UNL     1      -8.651 -10.783  17.915  0.00  0.00    +0.054 C 
ATOM     13  C   UNL     1      -8.716 -10.970  19.430  0.00  0.00    +0.018 C 
ATOM     14  C   UNL     1      -8.452 -13.446  19.063  0.00  0.00    +0.113 C 
ATOM     15  C   UNL     1      -6.425 -11.936  19.400  0.00  0.00    +0.130 C 
ATOM     16  C   UNL     1      -9.260 -12.014  17.215  0.00  0.00    +0.117 C 
ATOM     17  C   UNL     1      -7.221 -10.586  17.449  0.00  0.00    +0.027 A 
ATOM     18  C   UNL     1      -6.960  -9.840  16.360  0.00  0.00    +0.024 A 
ATOM     19  C   UNL     1      -4.838 -11.121  17.719  0.00  0.00    +0.274 A 
ATOM     20  C   UNL     1      -8.009 -14.188  16.749  0.00  0.00    +0.247 C 
ATOM     21  C   UNL     1      -4.617 -10.305  16.499  0.00  0.00    +0.112 A 
ATOM     22  C   UNL     1      -5.618  -9.693  15.865  0.00  0.00    +0.031 A 
ENDROOT
BRANCH  20  23
ATOM     23  C   UNL     1      -8.104 -13.932  15.308  0.00  0.00    +0.037 A 
ATOM     24  C   UNL     1      -7.129 -13.163  14.677  0.00  0.00    +0.016 A 
ATOM     25  C   UNL     1      -9.167 -14.457  14.579  0.00  0.00    +0.016 A 
ATOM     26  C   UNL     1      -7.218 -12.918  13.306  0.00  0.00    +0.046 A 
ATOM     27  C   UNL     1      -9.256 -14.213  13.208  0.00  0.00    +0.046 A 
ATOM     29  C   UNL     1      -8.281 -13.443  12.572  0.00  0.00    +0.120 A 
BRANCH  29   7
ATOM      7  O   UNL     1      -8.367 -13.207  11.234  0.00  0.00    -0.495 OA
ATOM     35  C   UNL     1      -7.212 -12.666  10.596  0.00  0.00    +0.277 C 
ENDBRANCH  29   7
ENDBRANCH  20  23
BRANCH  21  10
ATOM     10  N   UNL     1      -3.321 -10.148  15.977  0.00  0.00    -0.211 N 
ATOM     36  H   UNL     1      -3.151  -9.201  15.610  0.00  0.00    +0.174 HD
BRANCH  10   2
ATOM      2  S   UNL     1      -2.724 -11.398  15.006  0.00  0.00    +0.072 S 
ATOM      5  O   UNL     1      -1.288 -11.508  15.179  0.00  0.00    -0.150 OA
ATOM      6  O   UNL     1      -3.568 -12.570  15.145  0.00  0.00    -0.150 OA
BRANCH   2  28
ATOM      1 CL   UNL     1      -3.738  -9.031   9.304  0.00  0.00    -0.084 Cl
ATOM     28  C   UNL     1      -3.010 -10.729  13.395  0.00  0.00    +0.109 A 
ATOM     30  C   UNL     1      -1.930 -10.333  12.627  0.00  0.00    +0.030 A 
ATOM     31  C   UNL     1      -4.310 -10.615  12.932  0.00  0.00    +0.030 A 
ATOM     32  C   UNL     1      -2.156  -9.804  11.355  0.00  0.00    +0.022 A 
ATOM     33  C   UNL     1      -4.535 -10.088  11.661  0.00  0.00    +0.022 A 
ATOM     34  C   UNL     1      -3.459  -9.682  10.872  0.00  0.00    +0.041 A 
ENDBRANCH   2  28
ENDBRANCH  10   2
ENDBRANCH  21  10
TORSDOF 5
ENDMDL
MODEL 2
REMARK VINA RESULT:      -6.6     26.469     29.700
REMARK  Name = 7051255
REMARK  6 active torsions:
REMARK  status: ('A' for Active; 'I' for Inactive)
REMARK    1  A    between atoms: S_2  and  N_10
REMARK    2  A    between atoms: S_2  and  C_28
REMARK    3  A    between atoms: O_7  and  C_29
REMARK    4  A    between atoms: O_7  and  C_35
REMARK    5  A    between atoms: N_10  and  C_21
REMARK    6  A    between atoms: C_20  and  C_23
REMARK                            x       y       z     vdW  Elec       q    Type
REMARK                         _______ _______ _______ _____ _____    ______ ____
ROOT
ATOM      3  O   UNL     1      12.687   7.432   3.446  0.00  0.00    -0.266 OA
ATOM      4  O   UNL     1       9.286  10.922   5.207  0.00  0.00    -0.270 OA
ATOM      8  N   UNL     1       8.749   8.859   6.172  0.00  0.00    -0.297 N 
ATOM      9  N   UNL     1      11.059   6.984   5.069  0.00  0.00    -0.310 N 
ATOM     11  C   UNL     1       8.549   6.971   4.563  0.00  0.00    +0.027 C 
ATOM     12  C   UNL     1       9.336   6.545   6.856  0.00  0.00    +0.054 C 
ATOM     13  C   UNL     1       8.462   5.994   5.731  0.00  0.00    +0.018 C 
ATOM     14  C   UNL     1       8.049   8.363   4.988  0.00  0.00    +0.113 C 
ATOM     15  C   UNL     1       9.996   7.006   4.056  0.00  0.00    +0.130 C 
ATOM     16  C   UNL     1       8.798   7.919   7.304  0.00  0.00    +0.117 C 
ATOM     17  C   UNL     1      10.779   6.683   6.410  0.00  0.00    +0.027 A 
ATOM     18  C   UNL     1      11.779   6.555   7.302  0.00  0.00    +0.024 A 
ATOM     19  C   UNL     1      12.377   7.180   4.610  0.00  0.00    +0.274 A 
ATOM     20  C   UNL     1       9.323  10.132   6.149  0.00  0.00    +0.247 C 
ATOM     21  C   UNL     1      13.433   7.050   5.645  0.00  0.00    +0.112 A 
ATOM     22  C   UNL     1      13.150   6.744   6.912  0.00  0.00    +0.031 A 
ENDROOT
BRANCH  20  23
ATOM     23  C   UNL     1      10.055  10.578   7.339  0.00  0.00    +0.037 A 
ATOM     24  C   UNL     1      11.444  10.474   7.377  0.00  0.00    +0.016 A 
ATOM     25  C   UNL     1       9.359  11.102   8.426  0.00  0.00    +0.016 A 
ATOM     26  C   UNL     1      12.141  10.897   8.508  0.00  0.00    +0.046 A 
ATOM     27  C   UNL     1      10.057  11.526   9.558  0.00  0.00    +0.046 A 
ATOM     29  C   UNL     1      11.448  11.423   9.599  0.00  0.00    +0.120 A 
BRANCH  29   7
ATOM      7  O   UNL     1      12.127  11.839  10.702  0.00  0.00    -0.495 OA
ATOM     35  C   UNL     1      11.354  12.160  11.857  0.00  0.00    +0.277 C 
ENDBRANCH  29   7
ENDBRANCH  20  23
BRANCH  21  10
ATOM     10  N   UNL     1      14.785   7.240   5.306  0.00  0.00    -0.211 N 
ATOM     36  H   UNL     1      15.413   6.577   5.782  0.00  0.00    +0.174 HD
BRANCH  10   2
ATOM      2  S   UNL     1      15.350   8.834   5.256  0.00  0.00    +0.072 S 
ATOM      5  O   UNL     1      15.034   9.424   3.969  0.00  0.00    -0.150 OA
ATOM      6  O   UNL     1      14.987   9.520   6.482  0.00  0.00    -0.150 OA
BRANCH   2  28
ATOM      1 CL   UNL     1      21.531   7.882   5.403  0.00  0.00    -0.084 Cl
ATOM     28  C   UNL     1      17.096   8.565   5.297  0.00  0.00    +0.109 A 
ATOM     30  C   UNL     1      17.800   8.876   6.448  0.00  0.00    +0.030 A 
ATOM     31  C   UNL     1      17.727   8.049   4.179  0.00  0.00    +0.030 A 
ATOM     32  C   UNL     1      19.179   8.664   6.481  0.00  0.00    +0.022 A 
ATOM     33  C   UNL     1      19.105   7.836   4.212  0.00  0.00    +0.022 A 
ATOM     34  C   UNL     1      19.831   8.144   5.363  0.00  0.00    +0.041 A 
ENDBRANCH   2  28
ENDBRANCH  10   2
ENDBRANCH  21  10
TORSDOF 5
ENDMDL
MODEL 3
REMARK VINA RESULT:      -6.5     24.185     28.503
REMARK  Name = 7051255
REMARK  6 active torsions:
REMARK  status: ('A' for Active; 'I' for Inactive)
REMARK    1  A    between atoms: S_2  and  N_10
REMARK    2  A    between atoms: S_2  and  C_28
REMARK    3  A    between atoms: O_7  and  C_29
REMARK    4  A    between atoms: O_7  and  C_35
REMARK    5  A    between atoms: N_10  and  C_21
REMARK    6  A    between atoms: C_20  and  C_23
REMARK                            x       y       z     vdW  Elec       q    Type
REMARK                         _______ _______ _______ _____ _____    ______ ____
ROOT
ATOM      3  O   UNL     1      13.498   7.839   2.029  0.00  0.00    -0.266 OA
ATOM      4  O   UNL     1      10.919   9.920   6.012  0.00  0.00    -0.270 OA
ATOM      8  N   UNL     1       9.338   9.153   4.467  0.00  0.00    -0.297 N 
ATOM      9  N   UNL     1      11.167   7.799   2.256  0.00  0.00    -0.310 N 
ATOM     11  C   UNL     1       9.715   9.903   2.123  0.00  0.00    +0.027 C 
ATOM     12  C   UNL     1       8.665   7.718   2.555  0.00  0.00    +0.054 C 
ATOM     13  C   UNL     1       8.623   8.949   1.650  0.00  0.00    +0.018 C 
ATOM     14  C   UNL     1       9.472  10.313   3.587  0.00  0.00    +0.113 C 
ATOM     15  C   UNL     1      11.078   9.228   1.931  0.00  0.00    +0.130 C 
ATOM     16  C   UNL     1       8.376   8.136   4.011  0.00  0.00    +0.117 C 
ATOM     17  C   UNL     1      10.015   7.030   2.480  0.00  0.00    +0.027 A 
ATOM     18  C   UNL     1      10.109   5.701   2.664  0.00  0.00    +0.024 A 
ATOM     19  C   UNL     1      12.453   7.221   2.234  0.00  0.00    +0.274 A 
ATOM     20  C   UNL     1      10.114   9.074   5.626  0.00  0.00    +0.247 C 
ATOM     21  C   UNL     1      12.493   5.756   2.468  0.00  0.00    +0.112 A 
ATOM     22  C   UNL     1      11.385   5.039   2.660  0.00  0.00    +0.031 A 
ENDROOT
BRANCH  20  23
ATOM     23  C   UNL     1       9.984   7.876   6.460  0.00  0.00    +0.037 A 
ATOM     24  C   UNL     1       9.104   7.877   7.540  0.00  0.00    +0.016 A 
ATOM     25  C   UNL     1      10.740   6.744   6.171  0.00  0.00    +0.016 A 
ATOM     26  C   UNL     1       8.979   6.738   8.336  0.00  0.00    +0.046 A 
ATOM     27  C   UNL     1      10.616   5.604   6.966  0.00  0.00    +0.046 A 
ATOM     29  C   UNL     1       9.735   5.601   8.049  0.00  0.00    +0.120 A 
BRANCH  29   7
ATOM      7  O   UNL     1       9.612   4.488   8.822  0.00  0.00    -0.495 OA
ATOM     35  C   UNL     1       8.996   4.651  10.099  0.00  0.00    +0.277 C 
ENDBRANCH  29   7
ENDBRANCH  20  23
BRANCH  21  10
ATOM     10  N   UNL     1      13.723   5.074   2.483  0.00  0.00    -0.211 N 
ATOM     36  H   UNL     1      14.532   5.710   2.467  0.00  0.00    +0.174 HD
BRANCH  10   2
ATOM      2  S   UNL     1      13.867   3.722   1.477  0.00  0.00    +0.072 S 
ATOM      5  O   UNL     1      15.233   3.235   1.505  0.00  0.00    -0.150 OA
ATOM      6  O   UNL     1      12.763   2.813   1.718  0.00  0.00    -0.150 OA
BRANCH   2  28
ATOM      1 CL   UNL     1      12.940   6.341  -4.129  0.00  0.00    -0.084 Cl
ATOM     28  C   UNL     1      13.605   4.462  -0.107  0.00  0.00    +0.109 A 
ATOM     30  C   UNL     1      14.525   5.380  -0.584  0.00  0.00    +0.030 A 
ATOM     31  C   UNL     1      12.486   4.110  -0.841  0.00  0.00    +0.030 A 
ATOM     32  C   UNL     1      14.318   5.964  -1.834  0.00  0.00    +0.022 A 
ATOM     33  C   UNL     1      12.280   4.693  -2.090  0.00  0.00    +0.022 A 
ATOM     34  C   UNL     1      13.195   5.621  -2.587  0.00  0.00    +0.041 A 
ENDBRANCH   2  28
ENDBRANCH  10   2
ENDBRANCH  21  10
TORSDOF 5
ENDMDL
MODEL 4
REMARK VINA RESULT:      -6.5      2.980      4.453
REMARK  Name = 7051255
REMARK  6 active torsions:
REMARK  status: ('A' for Active; 'I' for Inactive)
REMARK    1  A    between atoms: S_2  and  N_10
REMARK    2  A    between atoms: S_2  and  C_28
REMARK    3  A    between atoms: O_7  and  C_29
REMARK    4  A    between atoms: O_7  and  C_35
REMARK    5  A    between atoms: N_10  and  C_21
REMARK    6  A    between atoms: C_20  and  C_23
REMARK                            x       y       z     vdW  Elec       q    Type
REMARK                         _______ _______ _______ _____ _____    ______ ____
ROOT
ATOM      3  O   UNL     1      -6.692 -13.843  14.354  0.00  0.00    -0.266 OA
ATOM      4  O   UNL     1      -9.862 -11.900  17.963  0.00  0.00    -0.270 OA
ATOM      8  N   UNL     1      -7.717 -11.060  18.377  0.00  0.00    -0.297 N 
ATOM      9  N   UNL     1      -6.053 -12.258  15.956  0.00  0.00    -0.310 N 
ATOM     11  C   UNL     1      -5.918 -12.778  18.459  0.00  0.00    +0.027 C 
ATOM     12  C   UNL     1      -5.407 -10.509  17.653  0.00  0.00    +0.054 C 
ATOM     13  C   UNL     1      -4.871 -11.669  18.490  0.00  0.00    +0.018 C 
ATOM     14  C   UNL     1      -7.250 -12.275  19.044  0.00  0.00    +0.113 C 
ATOM     15  C   UNL     1      -6.070 -13.274  17.016  0.00  0.00    +0.130 C 
ATOM     16  C   UNL     1      -6.717  -9.985  18.274  0.00  0.00    +0.117 C 
ATOM     17  C   UNL     1      -5.657 -10.938  16.219  0.00  0.00    +0.027 A 
ATOM     18  C   UNL     1      -5.538 -10.050  15.216  0.00  0.00    +0.024 A 
ATOM     19  C   UNL     1      -6.354 -12.696  14.651  0.00  0.00    +0.274 A 
ATOM     20  C   UNL     1      -9.022 -11.005  17.881  0.00  0.00    +0.247 C 
ATOM     21  C   UNL     1      -6.228 -11.665  13.591  0.00  0.00    +0.112 A 
ATOM     22  C   UNL     1      -5.832 -10.420  13.858  0.00  0.00    +0.031 A 
ENDROOT
BRANCH  20  23
ATOM     23  C   UNL     1      -9.440  -9.787  17.180  0.00  0.00    +0.037 A 
ATOM     24  C   UNL     1      -9.177  -9.646  15.819  0.00  0.00    +0.016 A 
ATOM     25  C   UNL     1     -10.098  -8.777  17.877  0.00  0.00    +0.016 A 
ATOM     26  C   UNL     1      -9.574  -8.488  15.151  0.00  0.00    +0.046 A 
ATOM     27  C   UNL     1     -10.496  -7.618  17.209  0.00  0.00    +0.046 A 
ATOM     29  C   UNL     1     -10.233  -7.474  15.846  0.00  0.00    +0.120 A 
BRANCH  29   7
ATOM      7  O   UNL     1     -10.624  -6.345  15.195  0.00  0.00    -0.495 OA
ATOM     35  C   UNL     1     -11.984  -5.943  15.353  0.00  0.00    +0.277 C 
ENDBRANCH  29   7
ENDBRANCH  20  23
BRANCH  21  10
ATOM     10  N   UNL     1      -6.519 -11.984  12.253  0.00  0.00    -0.211 N 
ATOM     36  H   UNL     1      -7.486 -12.310  12.121  0.00  0.00    +0.174 HD
BRANCH  10   2
ATOM      2  S   UNL     1      -5.355 -12.869  11.401  0.00  0.00    +0.072 S 
ATOM      5  O   UNL     1      -4.927 -14.005  12.194  0.00  0.00    -0.150 OA
ATOM      6  O   UNL     1      -5.792 -13.058  10.030  0.00  0.00    -0.150 OA
BRANCH   2  28
ATOM      1 CL   UNL     1      -0.624  -8.775  11.304  0.00  0.00    -0.084 Cl
ATOM     28  C   UNL     1      -4.018 -11.712  11.374  0.00  0.00    +0.109 A 
ATOM     30  C   UNL     1      -2.908 -11.945  12.165  0.00  0.00    +0.030 A 
ATOM     31  C   UNL     1      -4.108 -10.595  10.561  0.00  0.00    +0.030 A 
ATOM     32  C   UNL     1      -1.852 -11.032  12.144  0.00  0.00    +0.022 A 
ATOM     33  C   UNL     1      -3.053  -9.684  10.539  0.00  0.00    +0.022 A 
ATOM     34  C   UNL     1      -1.925  -9.901  11.331  0.00  0.00    +0.041 A 
ENDBRANCH   2  28
ENDBRANCH  10   2
ENDBRANCH  21  10
TORSDOF 5
ENDMDL
MODEL 5
REMARK VINA RESULT:      -6.4      3.569      6.807
REMARK  Name = 7051255
REMARK  6 active torsions:
REMARK  status: ('A' for Active; 'I' for Inactive)
REMARK    1  A    between atoms: S_2  and  N_10
REMARK    2  A    between atoms: S_2  and  C_28
REMARK    3  A    between atoms: O_7  and  C_29
REMARK    4  A    between atoms: O_7  and  C_35
REMARK    5  A    between atoms: N_10  and  C_21
REMARK    6  A    between atoms: C_20  and  C_23
REMARK                            x       y       z     vdW  Elec       q    Type
REMARK                         _______ _______ _______ _____ _____    ______ ____
ROOT
ATOM      3  O   UNL     1      -5.167 -12.628  16.755  0.00  0.00    -0.266 OA
ATOM      4  O   UNL     1      -1.642 -10.804  13.425  0.00  0.00    -0.270 OA
ATOM      8  N   UNL     1      -2.590 -12.720  12.474  0.00  0.00    -0.297 N 
ATOM      9  N   UNL     1      -4.793 -13.508  14.617  0.00  0.00    -0.310 N 
ATOM     11  C   UNL     1      -2.632 -14.716  13.962  0.00  0.00    +0.027 C 
ATOM     12  C   UNL     1      -4.411 -14.398  12.289  0.00  0.00    +0.054 C 
ATOM     13  C   UNL     1      -3.512 -15.443  12.949  0.00  0.00    +0.018 C 
ATOM     14  C   UNL     1      -1.776 -13.647  13.260  0.00  0.00    +0.113 C 
ATOM     15  C   UNL     1      -3.528 -14.114  15.052  0.00  0.00    +0.130 C 
ATOM     16  C   UNL     1      -3.542 -13.359  11.552  0.00  0.00    +0.117 C 
ATOM     17  C   UNL     1      -5.282 -13.699  13.316  0.00  0.00    +0.027 A 
ATOM     18  C   UNL     1      -6.496 -13.233  12.969  0.00  0.00    +0.024 A 
ATOM     19  C   UNL     1      -5.535 -12.815  15.595  0.00  0.00    +0.274 A 
ATOM     20  C   UNL     1      -2.436 -11.344  12.656  0.00  0.00    +0.247 C 
ATOM     21  C   UNL     1      -6.854 -12.305  15.145  0.00  0.00    +0.112 A 
ATOM     22  C   UNL     1      -7.310 -12.512  13.910  0.00  0.00    +0.031 A 
ENDROOT
BRANCH  20  23
ATOM     23  C   UNL     1      -3.300 -10.447  11.882  0.00  0.00    +0.037 A 
ATOM     24  C   UNL     1      -2.829  -9.882  10.700  0.00  0.00    +0.016 A 
ATOM     25  C   UNL     1      -4.586 -10.163  12.334  0.00  0.00    +0.016 A 
ATOM     26  C   UNL     1      -3.649  -9.028   9.963  0.00  0.00    +0.046 A 
ATOM     27  C   UNL     1      -5.407  -9.309  11.597  0.00  0.00    +0.046 A 
ATOM     29  C   UNL     1      -4.939  -8.741  10.411  0.00  0.00    +0.120 A 
BRANCH  29   7
ATOM      7  O   UNL     1      -5.741  -7.910   9.692  0.00  0.00    -0.495 OA
ATOM     35  C   UNL     1      -7.009  -8.424   9.288  0.00  0.00    +0.277 C 
ENDBRANCH  29   7
ENDBRANCH  20  23
BRANCH  21  10
ATOM     10  N   UNL     1      -7.674 -11.584  16.032  0.00  0.00    -0.211 N 
ATOM     36  H   UNL     1      -8.677 -11.688  15.822  0.00  0.00    +0.174 HD
BRANCH  10   2
ATOM      2  S   UNL     1      -7.195 -10.008  16.417  0.00  0.00    +0.072 S 
ATOM      5  O   UNL     1      -6.864  -9.929  17.828  0.00  0.00    -0.150 OA
ATOM      6  O   UNL     1      -6.259  -9.524  15.420  0.00  0.00    -0.150 OA
BRANCH   2  28
ATOM      1 CL   UNL     1     -12.572  -6.920  15.589  0.00  0.00    -0.084 Cl
ATOM     28  C   UNL     1      -8.714  -9.135  16.183  0.00  0.00    +0.109 A 
ATOM     30  C   UNL     1      -9.236  -8.397  17.230  0.00  0.00    +0.030 A 
ATOM     31  C   UNL     1      -9.353  -9.208  14.958  0.00  0.00    +0.030 A 
ATOM     32  C   UNL     1     -10.436  -7.708  17.046  0.00  0.00    +0.022 A 
ATOM     33  C   UNL     1     -10.551  -8.519  14.773  0.00  0.00    +0.022 A 
ATOM     34  C   UNL     1     -11.093  -7.769  15.817  0.00  0.00    +0.041 A 
ENDBRANCH   2  28
ENDBRANCH  10   2
ENDBRANCH  21  10
TORSDOF 5
ENDMDL
MODEL 6
REMARK VINA RESULT:      -6.3     30.364     34.117
REMARK  Name = 7051255
REMARK  6 active torsions:
REMARK  status: ('A' for Active; 'I' for Inactive)
REMARK    1  A    between atoms: S_2  and  N_10
REMARK    2  A    between atoms: S_2  and  C_28
REMARK    3  A    between atoms: O_7  and  C_29
REMARK    4  A    between atoms: O_7  and  C_35
REMARK    5  A    between atoms: N_10  and  C_21
REMARK    6  A    between atoms: C_20  and  C_23
REMARK                            x       y       z     vdW  Elec       q    Type
REMARK                         _______ _______ _______ _____ _____    ______ ____
ROOT
ATOM      3  O   UNL     1      20.758   4.103  20.322  0.00  0.00    -0.266 OA
ATOM      4  O   UNL     1      22.189   2.261  24.949  0.00  0.00    -0.270 OA
ATOM      8  N   UNL     1      24.134   2.645  23.706  0.00  0.00    -0.297 N 
ATOM      9  N   UNL     1      22.981   3.908  21.034  0.00  0.00    -0.310 N 
ATOM     11  C   UNL     1      24.130   1.653  21.423  0.00  0.00    +0.027 C 
ATOM     12  C   UNL     1      25.362   3.742  21.847  0.00  0.00    +0.054 C 
ATOM     13  C   UNL     1      25.414   2.410  21.100  0.00  0.00    +0.018 C 
ATOM     14  C   UNL     1      24.020   1.405  22.939  0.00  0.00    +0.113 C 
ATOM     15  C   UNL     1      22.937   2.448  20.879  0.00  0.00    +0.130 C 
ATOM     16  C   UNL     1      25.297   3.481  23.366  0.00  0.00    +0.117 C 
ATOM     17  C   UNL     1      24.160   4.563  21.419  0.00  0.00    +0.027 A 
ATOM     18  C   UNL     1      24.214   5.907  21.445  0.00  0.00    +0.024 A 
ATOM     19  C   UNL     1      21.816   4.619  20.682  0.00  0.00    +0.274 A 
ATOM     20  C   UNL     1      23.163   2.956  24.660  0.00  0.00    +0.247 C 
ATOM     21  C   UNL     1      21.931   6.097  20.754  0.00  0.00    +0.112 A 
ATOM     22  C   UNL     1      23.066   6.703  21.104  0.00  0.00    +0.031 A 
ENDROOT
BRANCH  20  23
ATOM     23  C   UNL     1      23.287   4.228  25.379  0.00  0.00    +0.037 A 
ATOM     24  C   UNL     1      23.934   4.264  26.613  0.00  0.00    +0.016 A 
ATOM     25  C   UNL     1      22.758   5.391  24.828  0.00  0.00    +0.016 A 
ATOM     26  C   UNL     1      24.053   5.473  27.298  0.00  0.00    +0.046 A 
ATOM     27  C   UNL     1      22.877   6.601  25.514  0.00  0.00    +0.046 A 
ATOM     29  C   UNL     1      23.525   6.641  26.749  0.00  0.00    +0.120 A 
BRANCH  29   7
ATOM      7  O   UNL     1      23.643   7.822  27.416  0.00  0.00    -0.495 OA
ATOM     35  C   UNL     1      22.717   8.853  27.076  0.00  0.00    +0.277 C 
ENDBRANCH  29   7
ENDBRANCH  20  23
BRANCH  21  10
ATOM     10  N   UNL     1      20.827   6.910  20.440  0.00  0.00    -0.211 N 
ATOM     36  H   UNL     1      21.066   7.676  19.795  0.00  0.00    +0.174 HD
BRANCH  10   2
ATOM      2  S   UNL     1      19.809   7.354  21.716  0.00  0.00    +0.072 S 
ATOM      5  O   UNL     1      19.798   6.306  22.719  0.00  0.00    -0.150 OA
ATOM      6  O   UNL     1      20.075   8.728  22.098  0.00  0.00    -0.150 OA
BRANCH   2  28
ATOM      1 CL   UNL     1      14.246   7.253  18.854  0.00  0.00    -0.084 Cl
ATOM     28  C   UNL     1      18.237   7.325  20.907  0.00  0.00    +0.109 A 
ATOM     30  C   UNL     1      17.333   8.343  21.154  0.00  0.00    +0.030 A 
ATOM     31  C   UNL     1      17.941   6.286  20.043  0.00  0.00    +0.030 A 
ATOM     32  C   UNL     1      16.092   8.321  20.516  0.00  0.00    +0.022 A 
ATOM     33  C   UNL     1      16.701   6.264  19.405  0.00  0.00    +0.022 A 
ATOM     34  C   UNL     1      15.776   7.281  19.641  0.00  0.00    +0.041 A 
ENDBRANCH   2  28
ENDBRANCH  10   2
ENDBRANCH  21  10
TORSDOF 5
ENDMDL
MODEL 7
REMARK VINA RESULT:      -6.3      3.417      4.683
REMARK  Name = 7051255
REMARK  6 active torsions:
REMARK  status: ('A' for Active; 'I' for Inactive)
REMARK    1  A    between atoms: S_2  and  N_10
REMARK    2  A    between atoms: S_2  and  C_28
REMARK    3  A    between atoms: O_7  and  C_29
REMARK    4  A    between atoms: O_7  and  C_35
REMARK    5  A    between atoms: N_10  and  C_21
REMARK    6  A    between atoms: C_20  and  C_23
REMARK                            x       y       z     vdW  Elec       q    Type
REMARK                         _______ _______ _______ _____ _____    ______ ____
ROOT
ATOM      3  O   UNL     1      -5.779 -13.687  14.335  0.00  0.00    -0.266 OA
ATOM      4  O   UNL     1      -9.515 -12.429  17.699  0.00  0.00    -0.270 OA
ATOM      8  N   UNL     1      -7.542 -11.390  18.409  0.00  0.00    -0.297 N 
ATOM      9  N   UNL     1      -5.505 -12.182  16.109  0.00  0.00    -0.310 N 
ATOM     11  C   UNL     1      -5.565 -12.894  18.567  0.00  0.00    +0.027 C 
ATOM     12  C   UNL     1      -5.254 -10.521  17.989  0.00  0.00    +0.054 C 
ATOM     13  C   UNL     1      -4.669 -11.681  18.795  0.00  0.00    +0.018 C 
ATOM     14  C   UNL     1      -7.002 -12.597  19.034  0.00  0.00    +0.113 C 
ATOM     15  C   UNL     1      -5.508 -13.280  17.084  0.00  0.00    +0.130 C 
ATOM     16  C   UNL     1      -6.675 -10.204  18.496  0.00  0.00    +0.117 C 
ATOM     17  C   UNL     1      -5.302 -10.853  16.509  0.00  0.00    +0.027 A 
ATOM     18  C   UNL     1      -5.189  -9.875  15.593  0.00  0.00    +0.024 A 
ATOM     19  C   UNL     1      -5.616 -12.539  14.750  0.00  0.00    +0.274 A 
ATOM     20  C   UNL     1      -8.786 -11.441  17.775  0.00  0.00    +0.247 C 
ATOM     21  C   UNL     1      -5.508 -11.414  13.788  0.00  0.00    +0.112 A 
ATOM     22  C   UNL     1      -5.296 -10.159  14.187  0.00  0.00    +0.031 A 
ENDROOT
BRANCH  20  23
ATOM     23  C   UNL     1      -9.275 -10.223  17.122  0.00  0.00    +0.037 A 
ATOM     24  C   UNL     1      -8.990  -9.997  15.777  0.00  0.00    +0.016 A 
ATOM     25  C   UNL     1     -10.021  -9.298  17.848  0.00  0.00    +0.016 A 
ATOM     26  C   UNL     1      -9.455  -8.838  15.155  0.00  0.00    +0.046 A 
ATOM     27  C   UNL     1     -10.486  -8.139  17.225  0.00  0.00    +0.046 A 
ATOM     29  C   UNL     1     -10.203  -7.910  15.879  0.00  0.00    +0.120 A 
BRANCH  29   7
ATOM      7  O   UNL     1     -10.659  -6.780  15.271  0.00  0.00    -0.495 OA
ATOM     35  C   UNL     1     -11.646  -6.023  15.969  0.00  0.00    +0.277 C 
ENDBRANCH  29   7
ENDBRANCH  20  23
BRANCH  21  10
ATOM     10  N   UNL     1      -5.619 -11.649  12.406  0.00  0.00    -0.211 N 
ATOM     36  H   UNL     1      -6.140 -12.510  12.189  0.00  0.00    +0.174 HD
BRANCH  10   2
ATOM      2  S   UNL     1      -4.231 -11.409  11.469  0.00  0.00    +0.072 S 
ATOM      5  O   UNL     1      -4.514 -11.736  10.084  0.00  0.00    -0.150 OA
ATOM      6  O   UNL     1      -3.627 -10.135  11.810  0.00  0.00    -0.150 OA
BRANCH   2  28
ATOM      1 CL   UNL     1      -0.512 -15.906  13.723  0.00  0.00    -0.084 Cl
ATOM     28  C   UNL     1      -3.180 -12.680  12.106  0.00  0.00    +0.109 A 
ATOM     30  C   UNL     1      -2.204 -12.348  13.028  0.00  0.00    +0.030 A 
ATOM     31  C   UNL     1      -3.354 -13.982  11.670  0.00  0.00    +0.030 A 
ATOM     32  C   UNL     1      -1.374 -13.352  13.531  0.00  0.00    +0.022 A 
ATOM     33  C   UNL     1      -2.526 -14.984  12.173  0.00  0.00    +0.022 A 
ATOM     34  C   UNL     1      -1.535 -14.669  13.103  0.00  0.00    +0.041 A 
ENDBRANCH   2  28
ENDBRANCH  10   2
ENDBRANCH  21  10
TORSDOF 5
ENDMDL
MODEL 8
REMARK VINA RESULT:      -6.3      2.280      3.235
REMARK  Name = 7051255
REMARK  6 active torsions:
REMARK  status: ('A' for Active; 'I' for Inactive)
REMARK    1  A    between atoms: S_2  and  N_10
REMARK    2  A    between atoms: S_2  and  C_28
REMARK    3  A    between atoms: O_7  and  C_29
REMARK    4  A    between atoms: O_7  and  C_35
REMARK    5  A    between atoms: N_10  and  C_21
REMARK    6  A    between atoms: C_20  and  C_23
REMARK                            x       y       z     vdW  Elec       q    Type
REMARK                         _______ _______ _______ _____ _____    ______ ____
ROOT
ATOM      3  O   UNL     1      -6.224 -13.537  17.070  0.00  0.00    -0.266 OA
ATOM      4  O   UNL     1      -9.986 -12.312  13.723  0.00  0.00    -0.270 OA
ATOM      8  N   UNL     1      -9.683 -10.483  15.150  0.00  0.00    -0.297 N 
ATOM      9  N   UNL     1      -7.248 -11.434  16.948  0.00  0.00    -0.310 N 
ATOM     11  C   UNL     1      -9.698 -11.035  17.578  0.00  0.00    +0.027 C 
ATOM     12  C   UNL     1      -8.326  -9.163  16.756  0.00  0.00    +0.054 C 
ATOM     13  C   UNL     1      -9.238  -9.615  17.896  0.00  0.00    +0.018 C 
ATOM     14  C   UNL     1     -10.463 -11.065  16.242  0.00  0.00    +0.113 C 
ATOM     15  C   UNL     1      -8.474 -11.959  17.564  0.00  0.00    +0.130 C 
ATOM     16  C   UNL     1      -9.116  -9.154  15.433  0.00  0.00    +0.117 C 
ATOM     17  C   UNL     1      -7.120 -10.075  16.626  0.00  0.00    +0.027 A 
ATOM     18  C   UNL     1      -5.951  -9.591  16.169  0.00  0.00    +0.024 A 
ATOM     19  C   UNL     1      -6.179 -12.339  16.791  0.00  0.00    +0.274 A 
ATOM     20  C   UNL     1      -9.515 -11.202  13.965  0.00  0.00    +0.247 C 
ATOM     21  C   UNL     1      -4.924 -11.750  16.261  0.00  0.00    +0.112 A 
ATOM     22  C   UNL     1      -4.815 -10.451  15.978  0.00  0.00    +0.031 A 
ENDROOT
BRANCH  20  23
ATOM     23  C   UNL     1      -8.691 -10.605  12.909  0.00  0.00    +0.037 A 
ATOM     24  C   UNL     1      -7.306 -10.758  12.942  0.00  0.00    +0.016 A 
ATOM     25  C   UNL     1      -9.294  -9.887  11.881  0.00  0.00    +0.016 A 
ATOM     26  C   UNL     1      -6.521 -10.190  11.939  0.00  0.00    +0.046 A 
ATOM     27  C   UNL     1      -8.509  -9.319  10.877  0.00  0.00    +0.046 A 
ATOM     29  C   UNL     1      -7.122  -9.471  10.906  0.00  0.00    +0.120 A 
BRANCH  29   7
ATOM      7  O   UNL     1      -6.357  -8.919   9.926  0.00  0.00    -0.495 OA
ATOM     35  C   UNL     1      -5.110  -8.349  10.320  0.00  0.00    +0.277 C 
ENDBRANCH  29   7
ENDBRANCH  20  23
BRANCH  21  10
ATOM     10  N   UNL     1      -3.795 -12.561  16.048  0.00  0.00    -0.211 N 
ATOM     36  H   UNL     1      -2.918 -12.109  16.340  0.00  0.00    +0.174 HD
BRANCH  10   2
ATOM      2  S   UNL     1      -3.706 -13.387  14.574  0.00  0.00    +0.072 S 
ATOM      5  O   UNL     1      -2.745 -14.469  14.678  0.00  0.00    -0.150 OA
ATOM      6  O   UNL     1      -5.044 -13.644  14.076  0.00  0.00    -0.150 OA
BRANCH   2  28
ATOM      1 CL   UNL     1      -1.167  -8.985  10.925  0.00  0.00    -0.084 Cl
ATOM     28  C   UNL     1      -2.989 -12.143  13.543  0.00  0.00    +0.109 A 
ATOM     30  C   UNL     1      -3.331 -12.097  12.203  0.00  0.00    +0.030 A 
ATOM     31  C   UNL     1      -2.098 -11.239  14.095  0.00  0.00    +0.030 A 
ATOM     32  C   UNL     1      -2.765 -11.115  11.389  0.00  0.00    +0.022 A 
ATOM     33  C   UNL     1      -1.533 -10.258  13.282  0.00  0.00    +0.022 A 
ATOM     34  C   UNL     1      -1.866 -10.196  11.929  0.00  0.00    +0.041 A 
ENDBRANCH   2  28
ENDBRANCH  10   2
ENDBRANCH  21  10
TORSDOF 5
ENDMDL
MODEL 9
REMARK VINA RESULT:      -6.2      4.643      6.578
REMARK  Name = 7051255
REMARK  6 active torsions:
REMARK  status: ('A' for Active; 'I' for Inactive)
REMARK    1  A    between atoms: S_2  and  N_10
REMARK    2  A    between atoms: S_2  and  C_28
REMARK    3  A    between atoms: O_7  and  C_29
REMARK    4  A    between atoms: O_7  and  C_35
REMARK    5  A    between atoms: N_10  and  C_21
REMARK    6  A    between atoms: C_20  and  C_23
REMARK                            x       y       z     vdW  Elec       q    Type
REMARK                         _______ _______ _______ _____ _____    ______ ____
ROOT
ATOM      3  O   UNL     1      -7.970  -8.921  17.560  0.00  0.00    -0.266 OA
ATOM      4  O   UNL     1      -3.176 -10.442  16.313  0.00  0.00    -0.270 OA
ATOM      8  N   UNL     1      -4.584 -12.301  16.117  0.00  0.00    -0.297 N 
ATOM      9  N   UNL     1      -7.430 -11.056  16.761  0.00  0.00    -0.310 N 
ATOM     11  C   UNL     1      -6.029 -12.733  18.097  0.00  0.00    +0.027 C 
ATOM     12  C   UNL     1      -6.829 -13.326  15.845  0.00  0.00    +0.054 C 
ATOM     13  C   UNL     1      -6.791 -13.788  17.301  0.00  0.00    +0.018 C 
ATOM     14  C   UNL     1      -4.598 -12.580  17.552  0.00  0.00    +0.113 C 
ATOM     15  C   UNL     1      -6.812 -11.415  18.044  0.00  0.00    +0.130 C 
ATOM     16  C   UNL     1      -5.391 -13.220  15.298  0.00  0.00    +0.117 C 
ATOM     17  C   UNL     1      -7.525 -11.985  15.714  0.00  0.00    +0.027 A 
ATOM     18  C   UNL     1      -8.194 -11.676  14.589  0.00  0.00    +0.024 A 
ATOM     19  C   UNL     1      -8.007  -9.773  16.672  0.00  0.00    +0.274 A 
ATOM     20  C   UNL     1      -3.853 -11.214  15.634  0.00  0.00    +0.247 C 
ATOM     21  C   UNL     1      -8.710  -9.483  15.397  0.00  0.00    +0.112 A 
ATOM     22  C   UNL     1      -8.807 -10.386  14.420  0.00  0.00    +0.031 A 
ENDROOT
BRANCH  20  23
ATOM     23  C   UNL     1      -3.898 -10.940  14.194  0.00  0.00    +0.037 A 
ATOM     24  C   UNL     1      -2.834 -11.328  13.383  0.00  0.00    +0.016 A 
ATOM     25  C   UNL     1      -5.001 -10.293  13.645  0.00  0.00    +0.016 A 
ATOM     26  C   UNL     1      -2.874 -11.068  12.013  0.00  0.00    +0.046 A 
ATOM     27  C   UNL     1      -5.042 -10.033  12.274  0.00  0.00    +0.046 A 
ATOM     29  C   UNL     1      -3.979 -10.420  11.459  0.00  0.00    +0.120 A 
BRANCH  29   7
ATOM      7  O   UNL     1      -4.021 -10.168  10.122  0.00  0.00    -0.495 OA
ATOM     35  C   UNL     1      -4.157  -8.805   9.723  0.00  0.00    +0.277 C 
ENDBRANCH  29   7
ENDBRANCH  20  23
BRANCH  21  10
ATOM     10  N   UNL     1      -9.311  -8.229  15.189  0.00  0.00    -0.211 N 
ATOM     36  H   UNL     1      -8.653  -7.446  15.308  0.00  0.00    +0.174 HD
BRANCH  10   2
ATOM      2  S   UNL     1     -10.835  -7.980  15.880  0.00  0.00    +0.072 S 
ATOM      5  O   UNL     1     -11.513  -9.252  16.039  0.00  0.00    -0.150 OA
ATOM      6  O   UNL     1     -10.719  -7.070  17.004  0.00  0.00    -0.150 OA
BRANCH   2  28
ATOM      1 CL   UNL     1     -13.717  -4.895  11.263  0.00  0.00    -0.084 Cl
ATOM     28  C   UNL     1     -11.649  -7.108  14.576  0.00  0.00    +0.109 A 
ATOM     30  C   UNL     1     -11.804  -5.737  14.674  0.00  0.00    +0.030 A 
ATOM     31  C   UNL     1     -12.117  -7.814  13.481  0.00  0.00    +0.030 A 
ATOM     32  C   UNL     1     -12.447  -5.048  13.644  0.00  0.00    +0.022 A 
ATOM     33  C   UNL     1     -12.759  -7.126  12.452  0.00  0.00    +0.022 A 
ATOM     34  C   UNL     1     -12.924  -5.743  12.533  0.00  0.00    +0.041 A 
ENDBRANCH   2  28
ENDBRANCH  10   2
ENDBRANCH  21  10
TORSDOF 5
ENDMDL
MODEL 10
REMARK VINA RESULT:      -6.2      2.106      2.457
REMARK  Name = 7051255
REMARK  6 active torsions:
REMARK  status: ('A' for Active; 'I' for Inactive)
REMARK    1  A    between atoms: S_2  and  N_10
REMARK    2  A    between atoms: S_2  and  C_28
REMARK    3  A    between atoms: O_7  and  C_29
REMARK    4  A    between atoms: O_7  and  C_35
REMARK    5  A    between atoms: N_10  and  C_21
REMARK    6  A    between atoms: C_20  and  C_23
REMARK                            x       y       z     vdW  Elec       q    Type
REMARK                         _______ _______ _______ _____ _____    ______ ____
ROOT
ATOM      3  O   UNL     1      -4.592 -13.885  17.156  0.00  0.00    -0.266 OA
ATOM      4  O   UNL     1      -9.536 -13.112  15.811  0.00  0.00    -0.270 OA
ATOM      8  N   UNL     1      -8.832 -11.242  17.030  0.00  0.00    -0.297 N 
ATOM      9  N   UNL     1      -5.775 -11.905  17.563  0.00  0.00    -0.310 N 
ATOM     11  C   UNL     1      -7.736 -11.762  19.204  0.00  0.00    +0.027 C 
ATOM     12  C   UNL     1      -7.054  -9.764  17.936  0.00  0.00    +0.054 C 
ATOM     13  C   UNL     1      -7.330 -10.297  19.341  0.00  0.00    +0.018 C 
ATOM     14  C   UNL     1      -8.997 -11.890  18.330  0.00  0.00    +0.113 C 
ATOM     15  C   UNL     1      -6.552 -12.550  18.630  0.00  0.00    +0.130 C 
ATOM     16  C   UNL     1      -8.336  -9.857  17.085  0.00  0.00    +0.117 C 
ATOM     17  C   UNL     1      -5.938 -10.544  17.265  0.00  0.00    +0.027 A 
ATOM     18  C   UNL     1      -5.139  -9.944  16.364  0.00  0.00    +0.024 A 
ATOM     19  C   UNL     1      -4.794 -12.692  16.928  0.00  0.00    +0.274 A 
ATOM     20  C   UNL     1      -9.122 -11.954  15.864  0.00  0.00    +0.247 C 
ATOM     21  C   UNL     1      -3.961 -11.980  15.927  0.00  0.00    +0.112 A 
ATOM     22  C   UNL     1      -4.118 -10.681  15.671  0.00  0.00    +0.031 A 
ENDROOT
BRANCH  20  23
ATOM     23  C   UNL     1      -8.903 -11.286  14.577  0.00  0.00    +0.037 A 
ATOM     24  C   UNL     1      -9.954 -10.611  13.961  0.00  0.00    +0.016 A 
ATOM     25  C   UNL     1      -7.647 -11.331  13.977  0.00  0.00    +0.016 A 
ATOM     26  C   UNL     1      -9.747  -9.975  12.737  0.00  0.00    +0.046 A 
ATOM     27  C   UNL     1      -7.440 -10.694  12.753  0.00  0.00    +0.046 A 
ATOM     29  C   UNL     1      -8.491 -10.016  12.133  0.00  0.00    +0.120 A 
BRANCH  29   7
ATOM      7  O   UNL     1      -8.287  -9.394  10.940  0.00  0.00    -0.495 OA
ATOM     35  C   UNL     1      -7.009  -8.797  10.730  0.00  0.00    +0.277 C 
ENDBRANCH  29   7
ENDBRANCH  20  23
BRANCH  21  10
ATOM     10  N   UNL     1      -2.959 -12.668  15.219  0.00  0.00    -0.211 N 
ATOM     36  H   UNL     1      -2.095 -12.119  15.114  0.00  0.00    +0.174 HD
BRANCH  10   2
ATOM      2  S   UNL     1      -3.436 -13.505  13.828  0.00  0.00    +0.072 S 
ATOM      5  O   UNL     1      -2.414 -14.468  13.463  0.00  0.00    -0.150 OA
ATOM      6  O   UNL     1      -4.819 -13.924  13.960  0.00  0.00    -0.150 OA
BRANCH   2  28
ATOM      1 CL   UNL     1      -3.269  -8.908   9.588  0.00  0.00    -0.084 Cl
ATOM     28  C   UNL     1      -3.389 -12.206  12.630  0.00  0.00    +0.109 A 
ATOM     30  C   UNL     1      -2.342 -11.302  12.657  0.00  0.00    +0.030 A 
ATOM     31  C   UNL     1      -4.400 -12.118  11.689  0.00  0.00    +0.030 A 
ATOM     32  C   UNL     1      -2.305 -10.276  11.711  0.00  0.00    +0.022 A 
ATOM     33  C   UNL     1      -4.362 -11.094  10.744  0.00  0.00    +0.022 A 
ATOM     34  C   UNL     1      -3.315 -10.172  10.755  0.00  0.00    +0.041 A 
ENDBRANCH   2  28
ENDBRANCH  10   2
ENDBRANCH  21  10
TORSDOF 5
ENDMDL
