MODEL 1
REMARK VINA RESULT:      -7.8      0.000      0.000
REMARK  Name = 11884171
REMARK  9 active torsions:
REMARK  status: ('A' for Active; 'I' for Inactive)
REMARK    1  A    between atoms: S_1  and  N_9
REMARK    2  A    between atoms: S_1  and  C_17
REMARK    3  A    between atoms: O_4  and  C_14
REMARK    4  A    between atoms: O_4  and  C_18
REMARK    5  A    between atoms: N_9  and  C_13
REMARK    6  A    between atoms: N_10  and  C_22
REMARK    7  A    between atoms: C_17  and  C_19
REMARK    8  A    between atoms: C_30  and  C_31
REMARK    9  A    between atoms: C_31  and  C_32
REMARK                            x       y       z     vdW  Elec       q    Type
REMARK                         _______ _______ _______ _____ _____    ______ ____
ROOT
ATOM      2  O   UNL     1      12.399   9.703  20.558  0.00  0.00    -0.369 OA
ATOM      3  O   UNL     1      10.504   8.117  22.389  0.00  0.00    -0.368 OA
ATOM     11  C   UNL     1      11.659   8.932  22.677  0.00  0.00    +0.171 C 
ATOM     12  C   UNL     1      12.652   8.699  21.555  0.00  0.00    +0.191 C 
ATOM     13  C   UNL     1      11.303  10.392  22.551  0.00  0.00    +0.133 C 
ATOM     14  C   UNL     1      12.277   7.320  21.066  0.00  0.00    +0.235 C 
ATOM     15  C   UNL     1      11.440  10.645  21.062  0.00  0.00    +0.183 C 
ATOM     16  C   UNL     1      10.774   7.323  21.224  0.00  0.00    +0.207 C 
ENDROOT
BRANCH  13   9
ATOM      9  N   UNL     1      12.286  11.219  23.291  0.00  0.00    -0.186 NA
ATOM     33  H   UNL     1      13.273  10.943  23.226  0.00  0.00    +0.148 HD
BRANCH   9   1
ATOM      1  S   UNL     1      11.761  12.101  24.649  0.00  0.00    +0.034 S 
ATOM      5  O   UNL     1      12.610  11.811  25.788  0.00  0.00    -0.158 OA
ATOM      6  O   UNL     1      10.320  11.969  24.746  0.00  0.00    -0.158 OA
BRANCH   1  17
ATOM     17  C   UNL     1      12.107  13.762  24.118  0.00  0.00    +0.220 C 
BRANCH  17  19
ATOM     19  C   UNL     1      10.872  14.299  23.462  0.00  0.00    -0.025 A 
ATOM     20  C   UNL     1       9.977  15.079  24.194  0.00  0.00    +0.005 A 
ATOM     21  C   UNL     1      10.615  14.017  22.120  0.00  0.00    +0.005 A 
ATOM     23  C   UNL     1       8.826  15.578  23.585  0.00  0.00    +0.000 A 
ATOM     24  C   UNL     1       9.466  14.516  21.511  0.00  0.00    +0.000 A 
ATOM     25  C   UNL     1       8.570  15.297  22.242  0.00  0.00    +0.000 A 
ENDBRANCH  17  19
ENDBRANCH   1  17
ENDBRANCH   9   1
ENDBRANCH  13   9
BRANCH  14   4
ATOM      4  O   UNL     1      12.671   7.068  19.736  0.00  0.00    -0.442 OA
BRANCH   4  18
ATOM      7  O   UNL     1      14.391   7.983  18.538  0.00  0.00    -0.226 OA
ATOM     10  N   UNL     1      14.776   6.477  20.289  0.00  0.00    -0.251 N 
ATOM     18  C   UNL     1      14.006   7.243  19.436  0.00  0.00    +0.405 C 
ATOM     34  H   UNL     1      14.271   5.924  20.976  0.00  0.00    +0.158 HD
BRANCH  10  22
ATOM     22  C   UNL     1      16.184   6.364  20.325  0.00  0.00    +0.036 A 
ATOM     26  C   UNL     1      16.896   6.852  21.421  0.00  0.00    +0.024 A 
ATOM     27  C   UNL     1      16.863   5.767  19.263  0.00  0.00    +0.024 A 
ATOM     28  C   UNL     1      18.286   6.742  21.456  0.00  0.00    +0.013 A 
ATOM     29  C   UNL     1      18.253   5.656  19.297  0.00  0.00    +0.013 A 
ATOM     30  C   UNL     1      18.965   6.144  20.394  0.00  0.00    +0.017 A 
BRANCH  30  31
ATOM      8  O   UNL     1      21.150   7.031  20.340  0.00  0.00    -0.292 OA
ATOM     31  C   UNL     1      20.414   6.028  20.430  0.00  0.00    +0.160 C 
ATOM     32  C   UNL     1      21.071   4.660  20.581  0.00  0.00    +0.091 C 
ENDBRANCH  30  31
ENDBRANCH  10  22
ENDBRANCH   4  18
ENDBRANCH  14   4
TORSDOF 8
ENDMDL
MODEL 2
REMARK VINA RESULT:      -7.3      5.226     12.799
REMARK  Name = 11884171
REMARK  9 active torsions:
REMARK  status: ('A' for Active; 'I' for Inactive)
REMARK    1  A    between atoms: S_1  and  N_9
REMARK    2  A    between atoms: S_1  and  C_17
REMARK    3  A    between atoms: O_4  and  C_14
REMARK    4  A    between atoms: O_4  and  C_18
REMARK    5  A    between atoms: N_9  and  C_13
REMARK    6  A    between atoms: N_10  and  C_22
REMARK    7  A    between atoms: C_17  and  C_19
REMARK    8  A    between atoms: C_30  and  C_31
REMARK    9  A    between atoms: C_31  and  C_32
REMARK                            x       y       z     vdW  Elec       q    Type
REMARK                         _______ _______ _______ _____ _____    ______ ____
ROOT
ATOM      2  O   UNL     1      21.792   7.192  20.474  0.00  0.00    -0.369 OA
ATOM      3  O   UNL     1      20.860   5.568  22.914  0.00  0.00    -0.368 OA
ATOM     11  C   UNL     1      21.216   5.170  21.574  0.00  0.00    +0.171 C 
ATOM     12  C   UNL     1      20.714   6.257  20.644  0.00  0.00    +0.191 C 
ATOM     13  C   UNL     1      22.714   5.211  21.406  0.00  0.00    +0.133 C 
ATOM     14  C   UNL     1      19.571   6.857  21.428  0.00  0.00    +0.235 C 
ATOM     15  C   UNL     1      22.979   6.671  21.091  0.00  0.00    +0.183 C 
ATOM     16  C   UNL     1      20.079   6.771  22.849  0.00  0.00    +0.207 C 
ENDROOT
BRANCH  13   9
ATOM      9  N   UNL     1      23.119   4.369  20.255  0.00  0.00    -0.186 NA
ATOM     33  H   UNL     1      22.400   4.162  19.552  0.00  0.00    +0.148 HD
BRANCH   9   1
ATOM      1  S   UNL     1      24.430   3.299  20.439  0.00  0.00    +0.034 S 
ATOM      5  O   UNL     1      25.236   3.691  21.578  0.00  0.00    -0.158 OA
ATOM      6  O   UNL     1      25.036   3.097  19.136  0.00  0.00    -0.158 OA
BRANCH   1  17
ATOM     17  C   UNL     1      23.575   1.799  20.865  0.00  0.00    +0.220 C 
BRANCH  17  19
ATOM     19  C   UNL     1      24.265   1.201  22.052  0.00  0.00    -0.025 A 
ATOM     20  C   UNL     1      23.757   1.414  23.334  0.00  0.00    +0.005 A 
ATOM     21  C   UNL     1      25.416   0.433  21.877  0.00  0.00    +0.005 A 
ATOM     23  C   UNL     1      24.399   0.858  24.440  0.00  0.00    +0.000 A 
ATOM     24  C   UNL     1      26.058  -0.123  22.982  0.00  0.00    +0.000 A 
ATOM     25  C   UNL     1      25.550   0.090  24.265  0.00  0.00    +0.000 A 
ENDBRANCH  17  19
ENDBRANCH   1  17
ENDBRANCH   9   1
ENDBRANCH  13   9
BRANCH  14   4
ATOM      4  O   UNL     1      19.266   8.182  21.053  0.00  0.00    -0.442 OA
BRANCH   4  18
ATOM      7  O   UNL     1      17.676   9.644  21.804  0.00  0.00    -0.226 OA
ATOM     10  N   UNL     1      17.100   7.669  20.685  0.00  0.00    -0.251 N 
ATOM     18  C   UNL     1      17.964   8.598  21.235  0.00  0.00    +0.405 C 
ATOM     34  H   UNL     1      17.531   6.857  20.251  0.00  0.00    +0.158 HD
BRANCH  10  22
ATOM     22  C   UNL     1      15.688   7.707  20.652  0.00  0.00    +0.036 A 
ATOM     26  C   UNL     1      14.960   7.604  21.838  0.00  0.00    +0.024 A 
ATOM     27  C   UNL     1      15.022   7.844  19.435  0.00  0.00    +0.024 A 
ATOM     28  C   UNL     1      13.566   7.639  21.806  0.00  0.00    +0.013 A 
ATOM     29  C   UNL     1      13.628   7.880  19.402  0.00  0.00    +0.013 A 
ATOM     30  C   UNL     1      12.900   7.777  20.588  0.00  0.00    +0.017 A 
BRANCH  30  31
ATOM      8  O   UNL     1      10.829   8.285  19.578  0.00  0.00    -0.292 OA
ATOM     31  C   UNL     1      11.447   7.815  20.554  0.00  0.00    +0.160 C 
ATOM     32  C   UNL     1      10.637   7.273  21.728  0.00  0.00    +0.091 C 
ENDBRANCH  30  31
ENDBRANCH  10  22
ENDBRANCH   4  18
ENDBRANCH  14   4
TORSDOF 8
ENDMDL
MODEL 3
REMARK VINA RESULT:      -7.0      5.477     12.734
REMARK  Name = 11884171
REMARK  9 active torsions:
REMARK  status: ('A' for Active; 'I' for Inactive)
REMARK    1  A    between atoms: S_1  and  N_9
REMARK    2  A    between atoms: S_1  and  C_17
REMARK    3  A    between atoms: O_4  and  C_14
REMARK    4  A    between atoms: O_4  and  C_18
REMARK    5  A    between atoms: N_9  and  C_13
REMARK    6  A    between atoms: N_10  and  C_22
REMARK    7  A    between atoms: C_17  and  C_19
REMARK    8  A    between atoms: C_30  and  C_31
REMARK    9  A    between atoms: C_31  and  C_32
REMARK                            x       y       z     vdW  Elec       q    Type
REMARK                         _______ _______ _______ _____ _____    ______ ____
ROOT
ATOM      2  O   UNL     1      21.779   5.996  20.091  0.00  0.00    -0.369 OA
ATOM      3  O   UNL     1      21.347   5.234  23.039  0.00  0.00    -0.368 OA
ATOM     11  C   UNL     1      21.584   4.432  21.865  0.00  0.00    +0.171 C 
ATOM     12  C   UNL     1      20.848   5.099  20.719  0.00  0.00    +0.191 C 
ATOM     13  C   UNL     1      23.036   4.521  21.466  0.00  0.00    +0.133 C 
ATOM     14  C   UNL     1      19.745   5.846  21.430  0.00  0.00    +0.235 C 
ATOM     15  C   UNL     1      23.085   5.801  20.655  0.00  0.00    +0.183 C 
ATOM     16  C   UNL     1      20.426   6.284  22.706  0.00  0.00    +0.207 C 
ENDROOT
BRANCH  13   9
ATOM      9  N   UNL     1      23.397   3.369  20.604  0.00  0.00    -0.186 NA
ATOM     33  H   UNL     1      22.676   3.023  19.960  0.00  0.00    +0.148 HD
BRANCH   9   1
ATOM      1  S   UNL     1      24.622   2.307  21.122  0.00  0.00    +0.034 S 
ATOM      5  O   UNL     1      25.853   2.582  20.406  0.00  0.00    -0.158 OA
ATOM      6  O   UNL     1      24.072   0.965  21.162  0.00  0.00    -0.158 OA
BRANCH   1  17
ATOM     17  C   UNL     1      24.836   2.843  22.803  0.00  0.00    +0.220 C 
BRANCH  17  19
ATOM     19  C   UNL     1      24.264   1.785  23.696  0.00  0.00    -0.025 A 
ATOM     20  C   UNL     1      25.047   0.697  24.079  0.00  0.00    +0.005 A 
ATOM     21  C   UNL     1      22.947   1.888  24.144  0.00  0.00    +0.005 A 
ATOM     23  C   UNL     1      24.515  -0.289  24.909  0.00  0.00    +0.000 A 
ATOM     24  C   UNL     1      22.414   0.903  24.974  0.00  0.00    +0.000 A 
ATOM     25  C   UNL     1      23.197  -0.186  25.357  0.00  0.00    +0.000 A 
ENDBRANCH  17  19
ENDBRANCH   1  17
ENDBRANCH   9   1
ENDBRANCH  13   9
BRANCH  14   4
ATOM      4  O   UNL     1      19.242   6.939  20.695  0.00  0.00    -0.442 OA
BRANCH   4  18
ATOM      7  O   UNL     1      17.876   5.881  19.195  0.00  0.00    -0.226 OA
ATOM     10  N   UNL     1      17.118   7.673  20.498  0.00  0.00    -0.251 N 
ATOM     18  C   UNL     1      18.041   6.752  20.042  0.00  0.00    +0.405 C 
ATOM     34  H   UNL     1      17.444   8.321  21.210  0.00  0.00    +0.158 HD
BRANCH  10  22
ATOM     22  C   UNL     1      15.772   7.829  20.094  0.00  0.00    +0.036 A 
ATOM     26  C   UNL     1      14.837   6.836  20.385  0.00  0.00    +0.024 A 
ATOM     27  C   UNL     1      15.380   8.976  19.403  0.00  0.00    +0.024 A 
ATOM     28  C   UNL     1      13.510   6.989  19.986  0.00  0.00    +0.013 A 
ATOM     29  C   UNL     1      14.052   9.129  19.004  0.00  0.00    +0.013 A 
ATOM     30  C   UNL     1      13.117   8.136  19.295  0.00  0.00    +0.017 A 
BRANCH  30  31
ATOM      8  O   UNL     1      10.793   8.213  19.695  0.00  0.00    -0.292 OA
ATOM     31  C   UNL     1      11.733   8.296  18.879  0.00  0.00    +0.160 C 
ATOM     32  C   UNL     1      11.397   8.572  17.417  0.00  0.00    +0.091 C 
ENDBRANCH  30  31
ENDBRANCH  10  22
ENDBRANCH   4  18
ENDBRANCH  14   4
TORSDOF 8
ENDMDL
MODEL 4
REMARK VINA RESULT:      -6.9     27.414     30.076
REMARK  Name = 11884171
REMARK  9 active torsions:
REMARK  status: ('A' for Active; 'I' for Inactive)
REMARK    1  A    between atoms: S_1  and  N_9
REMARK    2  A    between atoms: S_1  and  C_17
REMARK    3  A    between atoms: O_4  and  C_14
REMARK    4  A    between atoms: O_4  and  C_18
REMARK    5  A    between atoms: N_9  and  C_13
REMARK    6  A    between atoms: N_10  and  C_22
REMARK    7  A    between atoms: C_17  and  C_19
REMARK    8  A    between atoms: C_30  and  C_31
REMARK    9  A    between atoms: C_31  and  C_32
REMARK                            x       y       z     vdW  Elec       q    Type
REMARK                         _______ _______ _______ _____ _____    ______ ____
ROOT
ATOM      2  O   UNL     1      -5.568 -10.109  17.038  0.00  0.00    -0.369 OA
ATOM      3  O   UNL     1      -4.141 -12.312  18.640  0.00  0.00    -0.368 OA
ATOM     11  C   UNL     1      -4.618 -12.269  17.279  0.00  0.00    +0.171 C 
ATOM     12  C   UNL     1      -5.913 -11.481  17.291  0.00  0.00    +0.191 C 
ATOM     13  C   UNL     1      -3.689 -11.432  16.435  0.00  0.00    +0.133 C 
ATOM     14  C   UNL     1      -6.406 -11.682  18.704  0.00  0.00    +0.235 C 
ATOM     15  C   UNL     1      -4.176 -10.020  16.697  0.00  0.00    +0.183 C 
ATOM     16  C   UNL     1      -5.117 -11.696  19.493  0.00  0.00    +0.207 C 
ENDROOT
BRANCH  13   9
ATOM      9  N   UNL     1      -3.868 -11.765  15.002  0.00  0.00    -0.186 NA
ATOM     33  H   UNL     1      -4.615 -12.430  14.765  0.00  0.00    +0.148 HD
BRANCH   9   1
ATOM      1  S   UNL     1      -2.542 -11.601  13.947  0.00  0.00    +0.034 S 
ATOM      5  O   UNL     1      -1.523 -12.578  14.276  0.00  0.00    -0.158 OA
ATOM      6  O   UNL     1      -2.214 -10.192  13.847  0.00  0.00    -0.158 OA
BRANCH   1  17
ATOM     17  C   UNL     1      -3.285 -12.083  12.405  0.00  0.00    +0.220 C 
BRANCH  17  19
ATOM     19  C   UNL     1      -3.774 -10.841  11.726  0.00  0.00    -0.025 A 
ATOM     20  C   UNL     1      -3.000 -10.238  10.735  0.00  0.00    +0.005 A 
ATOM     21  C   UNL     1      -5.002 -10.287  12.084  0.00  0.00    +0.005 A 
ATOM     23  C   UNL     1      -3.454  -9.081  10.102  0.00  0.00    +0.000 A 
ATOM     24  C   UNL     1      -5.457  -9.131  11.452  0.00  0.00    +0.000 A 
ATOM     25  C   UNL     1      -4.683  -8.527  10.461  0.00  0.00    +0.000 A 
ENDBRANCH  17  19
ENDBRANCH   1  17
ENDBRANCH   9   1
ENDBRANCH  13   9
BRANCH  14   4
ATOM      4  O   UNL     1      -7.286 -10.671  19.142  0.00  0.00    -0.442 OA
BRANCH   4  18
ATOM      7  O   UNL     1      -9.344 -11.286  18.356  0.00  0.00    -0.226 OA
ATOM     10  N   UNL     1      -8.351  -9.255  17.746  0.00  0.00    -0.251 N 
ATOM     18  C   UNL     1      -8.429 -10.472  18.396  0.00  0.00    +0.405 C 
ATOM     34  H   UNL     1      -7.504  -8.714  17.905  0.00  0.00    +0.158 HD
BRANCH  10  22
ATOM     22  C   UNL     1      -9.303  -8.667  16.884  0.00  0.00    +0.036 A 
ATOM     26  C   UNL     1     -10.137  -7.651  17.353  0.00  0.00    +0.024 A 
ATOM     27  C   UNL     1      -9.412  -9.103  15.563  0.00  0.00    +0.024 A 
ATOM     28  C   UNL     1     -11.078  -7.072  16.503  0.00  0.00    +0.013 A 
ATOM     29  C   UNL     1     -10.353  -8.524  14.712  0.00  0.00    +0.013 A 
ATOM     30  C   UNL     1     -11.186  -7.508  15.182  0.00  0.00    +0.017 A 
BRANCH  30  31
ATOM      8  O   UNL     1     -12.926  -7.598  13.592  0.00  0.00    -0.292 OA
ATOM     31  C   UNL     1     -12.167  -6.903  14.295  0.00  0.00    +0.160 C 
ATOM     32  C   UNL     1     -12.287  -5.385  14.205  0.00  0.00    +0.091 C 
ENDBRANCH  30  31
ENDBRANCH  10  22
ENDBRANCH   4  18
ENDBRANCH  14   4
TORSDOF 8
ENDMDL
MODEL 5
REMARK VINA RESULT:      -6.9     27.913     30.376
REMARK  Name = 11884171
REMARK  9 active torsions:
REMARK  status: ('A' for Active; 'I' for Inactive)
REMARK    1  A    between atoms: S_1  and  N_9
REMARK    2  A    between atoms: S_1  and  C_17
REMARK    3  A    between atoms: O_4  and  C_14
REMARK    4  A    between atoms: O_4  and  C_18
REMARK    5  A    between atoms: N_9  and  C_13
REMARK    6  A    between atoms: N_10  and  C_22
REMARK    7  A    between atoms: C_17  and  C_19
REMARK    8  A    between atoms: C_30  and  C_31
REMARK    9  A    between atoms: C_31  and  C_32
REMARK                            x       y       z     vdW  Elec       q    Type
REMARK                         _______ _______ _______ _____ _____    ______ ____
ROOT
ATOM      2  O   UNL     1      -6.477 -12.180  16.624  0.00  0.00    -0.369 OA
ATOM      3  O   UNL     1      -4.836 -10.610  18.698  0.00  0.00    -0.368 OA
ATOM     11  C   UNL     1      -4.500 -11.734  17.860  0.00  0.00    +0.171 C 
ATOM     12  C   UNL     1      -5.737 -12.608  17.780  0.00  0.00    +0.191 C 
ATOM     13  C   UNL     1      -4.289 -11.273  16.440  0.00  0.00    +0.133 C 
ATOM     14  C   UNL     1      -6.460 -12.271  19.063  0.00  0.00    +0.235 C 
ATOM     15  C   UNL     1      -5.700 -11.224  15.887  0.00  0.00    +0.183 C 
ATOM     16  C   UNL     1      -6.160 -10.798  19.220  0.00  0.00    +0.207 C 
ENDROOT
BRANCH  13   9
ATOM      9  N   UNL     1      -3.493 -12.276  15.694  0.00  0.00    -0.186 NA
ATOM     33  H   UNL     1      -3.184 -13.108  16.212  0.00  0.00    +0.148 HD
BRANCH   9   1
ATOM      1  S   UNL     1      -2.605 -11.774  14.330  0.00  0.00    +0.034 S 
ATOM      5  O   UNL     1      -1.415 -12.589  14.185  0.00  0.00    -0.158 OA
ATOM      6  O   UNL     1      -2.514 -10.327  14.356  0.00  0.00    -0.158 OA
BRANCH   1  17
ATOM     17  C   UNL     1      -3.730 -12.212  13.024  0.00  0.00    +0.220 C 
BRANCH  17  19
ATOM     19  C   UNL     1      -3.865 -11.025  12.121  0.00  0.00    -0.025 A 
ATOM     20  C   UNL     1      -5.042 -10.275  12.126  0.00  0.00    +0.005 A 
ATOM     21  C   UNL     1      -2.816 -10.669  11.274  0.00  0.00    +0.005 A 
ATOM     23  C   UNL     1      -5.169  -9.170  11.285  0.00  0.00    +0.000 A 
ATOM     24  C   UNL     1      -2.942  -9.565  10.433  0.00  0.00    +0.000 A 
ATOM     25  C   UNL     1      -4.119  -8.814  10.438  0.00  0.00    +0.000 A 
ENDBRANCH  17  19
ENDBRANCH   1  17
ENDBRANCH   9   1
ENDBRANCH  13   9
BRANCH  14   4
ATOM      4  O   UNL     1      -7.845 -12.528  19.012  0.00  0.00    -0.442 OA
BRANCH   4  18
ATOM      7  O   UNL     1      -9.097 -10.920  20.049  0.00  0.00    -0.226 OA
ATOM     10  N   UNL     1      -8.947 -11.047  17.716  0.00  0.00    -0.251 N 
ATOM     18  C   UNL     1      -8.683 -11.433  19.016  0.00  0.00    +0.405 C 
ATOM     34  H   UNL     1      -8.508 -11.601  16.985  0.00  0.00    +0.158 HD
BRANCH  10  22
ATOM     22  C   UNL     1      -9.757  -9.976  17.273  0.00  0.00    +0.036 A 
ATOM     26  C   UNL     1      -9.309  -8.661  17.408  0.00  0.00    +0.024 A 
ATOM     27  C   UNL     1     -11.004 -10.233  16.704  0.00  0.00    +0.024 A 
ATOM     28  C   UNL     1     -10.108  -7.605  16.973  0.00  0.00    +0.013 A 
ATOM     29  C   UNL     1     -11.803  -9.177  16.268  0.00  0.00    +0.013 A 
ATOM     30  C   UNL     1     -11.356  -7.862  16.403  0.00  0.00    +0.017 A 
BRANCH  30  31
ATOM      8  O   UNL     1     -11.692  -5.681  15.569  0.00  0.00    -0.292 OA
ATOM     31  C   UNL     1     -12.188  -6.760  15.948  0.00  0.00    +0.160 C 
ATOM     32  C   UNL     1     -13.707  -6.904  15.926  0.00  0.00    +0.091 C 
ENDBRANCH  30  31
ENDBRANCH  10  22
ENDBRANCH   4  18
ENDBRANCH  14   4
TORSDOF 8
ENDMDL
MODEL 6
REMARK VINA RESULT:      -6.9     27.976     31.442
REMARK  Name = 11884171
REMARK  9 active torsions:
REMARK  status: ('A' for Active; 'I' for Inactive)
REMARK    1  A    between atoms: S_1  and  N_9
REMARK    2  A    between atoms: S_1  and  C_17
REMARK    3  A    between atoms: O_4  and  C_14
REMARK    4  A    between atoms: O_4  and  C_18
REMARK    5  A    between atoms: N_9  and  C_13
REMARK    6  A    between atoms: N_10  and  C_22
REMARK    7  A    between atoms: C_17  and  C_19
REMARK    8  A    between atoms: C_30  and  C_31
REMARK    9  A    between atoms: C_31  and  C_32
REMARK                            x       y       z     vdW  Elec       q    Type
REMARK                         _______ _______ _______ _____ _____    ______ ____
ROOT
ATOM      2  O   UNL     1     -10.991  -8.279  17.802  0.00  0.00    -0.369 OA
ATOM      3  O   UNL     1      -9.707  -9.000  15.102  0.00  0.00    -0.368 OA
ATOM     11  C   UNL     1      -9.131  -8.617  16.368  0.00  0.00    +0.171 C 
ATOM     12  C   UNL     1     -10.051  -7.575  16.973  0.00  0.00    +0.191 C 
ATOM     13  C   UNL     1      -9.203  -9.772  17.336  0.00  0.00    +0.133 C 
ATOM     14  C   UNL     1     -10.716  -6.979  15.755  0.00  0.00    +0.235 C 
ATOM     15  C   UNL     1     -10.610  -9.660  17.891  0.00  0.00    +0.183 C 
ATOM     16  C   UNL     1     -10.857  -8.180  14.849  0.00  0.00    +0.207 C 
ENDROOT
BRANCH  13   9
ATOM      9  N   UNL     1      -8.218  -9.581  18.427  0.00  0.00    -0.186 NA
ATOM     33  H   UNL     1      -7.594  -8.768  18.357  0.00  0.00    +0.148 HD
BRANCH   9   1
ATOM      1  S   UNL     1      -7.715 -10.936  19.327  0.00  0.00    +0.034 S 
ATOM      5  O   UNL     1      -8.848 -11.525  20.013  0.00  0.00    -0.158 OA
ATOM      6  O   UNL     1      -6.513 -10.575  20.056  0.00  0.00    -0.158 OA
BRANCH   1  17
ATOM     17  C   UNL     1      -7.231 -12.040  18.020  0.00  0.00    +0.220 C 
BRANCH  17  19
ATOM     19  C   UNL     1      -5.939 -11.538  17.453  0.00  0.00    -0.025 A 
ATOM     20  C   UNL     1      -4.737 -11.818  18.103  0.00  0.00    +0.005 A 
ATOM     21  C   UNL     1      -5.937 -10.789  16.277  0.00  0.00    +0.005 A 
ATOM     23  C   UNL     1      -3.533 -11.350  17.576  0.00  0.00    +0.000 A 
ATOM     24  C   UNL     1      -4.735 -10.321  15.749  0.00  0.00    +0.000 A 
ATOM     25  C   UNL     1      -3.532 -10.601  16.398  0.00  0.00    +0.000 A 
ENDBRANCH  17  19
ENDBRANCH   1  17
ENDBRANCH   9   1
ENDBRANCH  13   9
BRANCH  14   4
ATOM      4  O   UNL     1     -11.960  -6.375  16.033  0.00  0.00    -0.442 OA
BRANCH   4  18
ATOM      7  O   UNL     1     -13.717  -6.869  14.654  0.00  0.00    -0.226 OA
ATOM     10  N   UNL     1     -12.398  -4.962  14.329  0.00  0.00    -0.251 N 
ATOM     18  C   UNL     1     -12.788  -6.130  14.957  0.00  0.00    +0.405 C 
ATOM     34  H   UNL     1     -11.597  -4.482  14.731  0.00  0.00    +0.158 HD
BRANCH  10  22
ATOM     22  C   UNL     1     -12.973  -4.352  13.192  0.00  0.00    +0.036 A 
ATOM     26  C   UNL     1     -14.287  -3.884  13.241  0.00  0.00    +0.024 A 
ATOM     27  C   UNL     1     -12.229  -4.219  12.020  0.00  0.00    +0.024 A 
ATOM     28  C   UNL     1     -14.856  -3.284  12.118  0.00  0.00    +0.013 A 
ATOM     29  C   UNL     1     -12.797  -3.618  10.897  0.00  0.00    +0.013 A 
ATOM     30  C   UNL     1     -14.111  -3.150  10.946  0.00  0.00    +0.017 A 
BRANCH  30  31
ATOM      8  O   UNL     1     -15.633  -1.698   9.878  0.00  0.00    -0.292 OA
ATOM     31  C   UNL     1     -14.703  -2.522   9.775  0.00  0.00    +0.160 C 
ATOM     32  C   UNL     1     -14.193  -2.866   8.379  0.00  0.00    +0.091 C 
ENDBRANCH  30  31
ENDBRANCH  10  22
ENDBRANCH   4  18
ENDBRANCH  14   4
TORSDOF 8
ENDMDL
MODEL 7
REMARK VINA RESULT:      -6.7     27.942     30.108
REMARK  Name = 11884171
REMARK  9 active torsions:
REMARK  status: ('A' for Active; 'I' for Inactive)
REMARK    1  A    between atoms: S_1  and  N_9
REMARK    2  A    between atoms: S_1  and  C_17
REMARK    3  A    between atoms: O_4  and  C_14
REMARK    4  A    between atoms: O_4  and  C_18
REMARK    5  A    between atoms: N_9  and  C_13
REMARK    6  A    between atoms: N_10  and  C_22
REMARK    7  A    between atoms: C_17  and  C_19
REMARK    8  A    between atoms: C_30  and  C_31
REMARK    9  A    between atoms: C_31  and  C_32
REMARK                            x       y       z     vdW  Elec       q    Type
REMARK                         _______ _______ _______ _____ _____    ______ ____
ROOT
ATOM      2  O   UNL     1      -3.868  -8.851  10.594  0.00  0.00    -0.369 OA
ATOM      3  O   UNL     1      -4.357 -11.742   9.667  0.00  0.00    -0.368 OA
ATOM     11  C   UNL     1      -5.240 -10.607   9.779  0.00  0.00    +0.171 C 
ATOM     12  C   UNL     1      -4.818  -9.842  11.018  0.00  0.00    +0.191 C 
ATOM     13  C   UNL     1      -4.982  -9.642   8.650  0.00  0.00    +0.133 C 
ATOM     14  C   UNL     1      -4.169 -10.915  11.860  0.00  0.00    +0.235 C 
ATOM     15  C   UNL     1      -3.805  -8.833   9.159  0.00  0.00    +0.183 C 
ATOM     16  C   UNL     1      -3.497 -11.777  10.816  0.00  0.00    +0.207 C 
ENDROOT
BRANCH  13   9
ATOM      9  N   UNL     1      -6.154  -8.755   8.462  0.00  0.00    -0.186 NA
ATOM     33  H   UNL     1      -6.299  -8.016   9.162  0.00  0.00    +0.148 HD
BRANCH   9   1
ATOM      1  S   UNL     1      -7.492  -9.334   7.583  0.00  0.00    +0.034 S 
ATOM      5  O   UNL     1      -8.646  -9.451   8.454  0.00  0.00    -0.158 OA
ATOM      6  O   UNL     1      -7.054 -10.460   6.780  0.00  0.00    -0.158 OA
BRANCH   1  17
ATOM     17  C   UNL     1      -7.776  -7.971   6.478  0.00  0.00    +0.220 C 
BRANCH  17  19
ATOM     19  C   UNL     1      -8.807  -7.082   7.104  0.00  0.00    -0.025 A 
ATOM     20  C   UNL     1     -10.148  -7.209   6.744  0.00  0.00    +0.005 A 
ATOM     21  C   UNL     1      -8.425  -6.126   8.045  0.00  0.00    +0.005 A 
ATOM     23  C   UNL     1     -11.108  -6.381   7.326  0.00  0.00    +0.000 A 
ATOM     24  C   UNL     1      -9.384  -5.299   8.627  0.00  0.00    +0.000 A 
ATOM     25  C   UNL     1     -10.726  -5.426   8.268  0.00  0.00    +0.000 A 
ENDBRANCH  17  19
ENDBRANCH   1  17
ENDBRANCH   9   1
ENDBRANCH  13   9
BRANCH  14   4
ATOM      4  O   UNL     1      -3.250 -10.410  12.803  0.00  0.00    -0.442 OA
BRANCH   4  18
ATOM      7  O   UNL     1      -2.434 -11.527  14.625  0.00  0.00    -0.226 OA
ATOM     10  N   UNL     1      -4.572 -10.571  14.624  0.00  0.00    -0.251 N 
ATOM     18  C   UNL     1      -3.341 -10.901  14.089  0.00  0.00    +0.405 C 
ATOM     34  H   UNL     1      -5.197 -10.043  14.020  0.00  0.00    +0.158 HD
BRANCH  10  22
ATOM     22  C   UNL     1      -5.073 -10.879  15.909  0.00  0.00    +0.036 A 
ATOM     26  C   UNL     1      -4.498 -10.297  17.039  0.00  0.00    +0.024 A 
ATOM     27  C   UNL     1      -6.140 -11.766  16.047  0.00  0.00    +0.024 A 
ATOM     28  C   UNL     1      -4.991 -10.602  18.307  0.00  0.00    +0.013 A 
ATOM     29  C   UNL     1      -6.634 -12.071  17.315  0.00  0.00    +0.013 A 
ATOM     30  C   UNL     1      -6.059 -11.489  18.446  0.00  0.00    +0.017 A 
BRANCH  30  31
ATOM      8  O   UNL     1      -6.001 -11.411  20.803  0.00  0.00    -0.292 OA
ATOM     31  C   UNL     1      -6.574 -11.807  19.768  0.00  0.00    +0.160 C 
ATOM     32  C   UNL     1      -7.842 -12.641  19.919  0.00  0.00    +0.091 C 
ENDBRANCH  30  31
ENDBRANCH  10  22
ENDBRANCH   4  18
ENDBRANCH  14   4
TORSDOF 8
ENDMDL
MODEL 8
REMARK VINA RESULT:      -6.7     19.020     20.763
REMARK  Name = 11884171
REMARK  9 active torsions:
REMARK  status: ('A' for Active; 'I' for Inactive)
REMARK    1  A    between atoms: S_1  and  N_9
REMARK    2  A    between atoms: S_1  and  C_17
REMARK    3  A    between atoms: O_4  and  C_14
REMARK    4  A    between atoms: O_4  and  C_18
REMARK    5  A    between atoms: N_9  and  C_13
REMARK    6  A    between atoms: N_10  and  C_22
REMARK    7  A    between atoms: C_17  and  C_19
REMARK    8  A    between atoms: C_30  and  C_31
REMARK    9  A    between atoms: C_31  and  C_32
REMARK                            x       y       z     vdW  Elec       q    Type
REMARK                         _______ _______ _______ _____ _____    ______ ____
ROOT
ATOM      2  O   UNL     1       4.169  11.210   3.217  0.00  0.00    -0.369 OA
ATOM      3  O   UNL     1       4.728  10.658   0.243  0.00  0.00    -0.368 OA
ATOM     11  C   UNL     1       3.798  10.065   1.172  0.00  0.00    +0.171 C 
ATOM     12  C   UNL     1       4.498  10.000   2.516  0.00  0.00    +0.191 C 
ATOM     13  C   UNL     1       2.640  11.002   1.410  0.00  0.00    +0.133 C 
ATOM     14  C   UNL     1       5.956   9.959   2.123  0.00  0.00    +0.235 C 
ATOM     15  C   UNL     1       3.177  11.937   2.476  0.00  0.00    +0.183 C 
ATOM     16  C   UNL     1       5.985  10.858   0.908  0.00  0.00    +0.207 C 
ENDROOT
BRANCH  13   9
ATOM      9  N   UNL     1       1.480  10.249   1.943  0.00  0.00    -0.186 NA
ATOM     33  H   UNL     1       1.669   9.327   2.356  0.00  0.00    +0.148 HD
BRANCH   9   1
ATOM      1  S   UNL     1      -0.069  10.570   1.314  0.00  0.00    +0.034 S 
ATOM      5  O   UNL     1      -0.787   9.328   1.104  0.00  0.00    -0.158 OA
ATOM      6  O   UNL     1       0.069  11.537   0.241  0.00  0.00    -0.158 OA
BRANCH   1  17
ATOM     17  C   UNL     1      -0.818  11.409   2.692  0.00  0.00    +0.220 C 
BRANCH  17  19
ATOM     19  C   UNL     1      -1.592  10.396   3.477  0.00  0.00    -0.025 A 
ATOM     20  C   UNL     1      -0.968   9.679   4.498  0.00  0.00    +0.005 A 
ATOM     21  C   UNL     1      -2.937  10.167   3.187  0.00  0.00    +0.005 A 
ATOM     23  C   UNL     1      -1.689   8.735   5.230  0.00  0.00    +0.000 A 
ATOM     24  C   UNL     1      -3.658   9.224   3.918  0.00  0.00    +0.000 A 
ATOM     25  C   UNL     1      -3.034   8.507   4.940  0.00  0.00    +0.000 A 
ENDBRANCH  17  19
ENDBRANCH   1  17
ENDBRANCH   9   1
ENDBRANCH  13   9
BRANCH  14   4
ATOM      4  O   UNL     1       6.824  10.412   3.138  0.00  0.00    -0.442 OA
BRANCH   4  18
ATOM      7  O   UNL     1       8.748   9.193   2.927  0.00  0.00    -0.226 OA
ATOM     10  N   UNL     1       7.433   9.090   4.862  0.00  0.00    -0.251 N 
ATOM     18  C   UNL     1       7.772   9.518   3.593  0.00  0.00    +0.405 C 
ATOM     34  H   UNL     1       6.578   9.477   5.253  0.00  0.00    +0.158 HD
BRANCH  10  22
ATOM     22  C   UNL     1       8.128   8.178   5.687  0.00  0.00    +0.036 A 
ATOM     26  C   UNL     1       8.228   6.837   5.315  0.00  0.00    +0.024 A 
ATOM     27  C   UNL     1       8.714   8.617   6.875  0.00  0.00    +0.024 A 
ATOM     28  C   UNL     1       8.912   5.936   6.130  0.00  0.00    +0.013 A 
ATOM     29  C   UNL     1       9.399   7.716   7.690  0.00  0.00    +0.013 A 
ATOM     30  C   UNL     1       9.498   6.375   7.318  0.00  0.00    +0.017 A 
BRANCH  30  31
ATOM      8  O   UNL     1      11.434   5.556   8.388  0.00  0.00    -0.292 OA
ATOM     31  C   UNL     1      10.213   5.436   8.167  0.00  0.00    +0.160 C 
ATOM     32  C   UNL     1       9.473   4.269   8.813  0.00  0.00    +0.091 C 
ENDBRANCH  30  31
ENDBRANCH  10  22
ENDBRANCH   4  18
ENDBRANCH  14   4
TORSDOF 8
ENDMDL
MODEL 9
REMARK VINA RESULT:      -6.6     27.023     29.611
REMARK  Name = 11884171
REMARK  9 active torsions:
REMARK  status: ('A' for Active; 'I' for Inactive)
REMARK    1  A    between atoms: S_1  and  N_9
REMARK    2  A    between atoms: S_1  and  C_17
REMARK    3  A    between atoms: O_4  and  C_14
REMARK    4  A    between atoms: O_4  and  C_18
REMARK    5  A    between atoms: N_9  and  C_13
REMARK    6  A    between atoms: N_10  and  C_22
REMARK    7  A    between atoms: C_17  and  C_19
REMARK    8  A    between atoms: C_30  and  C_31
REMARK    9  A    between atoms: C_31  and  C_32
REMARK                            x       y       z     vdW  Elec       q    Type
REMARK                         _______ _______ _______ _____ _____    ______ ____
ROOT
ATOM      2  O   UNL     1      -4.039 -12.191  14.379  0.00  0.00    -0.369 OA
ATOM      3  O   UNL     1      -2.378 -10.828  16.578  0.00  0.00    -0.368 OA
ATOM     11  C   UNL     1      -3.695 -10.552  16.059  0.00  0.00    +0.171 C 
ATOM     12  C   UNL     1      -3.645 -10.823  14.568  0.00  0.00    +0.191 C 
ATOM     13  C   UNL     1      -4.678 -11.570  16.581  0.00  0.00    +0.133 C 
ATOM     14  C   UNL     1      -2.185 -10.611  14.245  0.00  0.00    +0.235 C 
ATOM     15  C   UNL     1      -4.497 -12.734  15.627  0.00  0.00    +0.183 C 
ATOM     16  C   UNL     1      -1.504 -11.144  15.484  0.00  0.00    +0.207 C 
ENDROOT
BRANCH  13   9
ATOM      9  N   UNL     1      -6.059 -11.043  16.472  0.00  0.00    -0.186 NA
ATOM     33  H   UNL     1      -6.345 -10.666  15.560  0.00  0.00    +0.148 HD
BRANCH   9   1
ATOM      1  S   UNL     1      -6.843 -10.490  17.878  0.00  0.00    +0.034 S 
ATOM      5  O   UNL     1      -7.539  -9.248  17.603  0.00  0.00    -0.158 OA
ATOM      6  O   UNL     1      -5.910 -10.586  18.985  0.00  0.00    -0.158 OA
BRANCH   1  17
ATOM     17  C   UNL     1      -8.063 -11.764  18.100  0.00  0.00    +0.220 C 
BRANCH  17  19
ATOM     19  C   UNL     1      -9.360 -11.099  18.444  0.00  0.00    -0.025 A 
ATOM     20  C   UNL     1     -10.252 -10.744  17.432  0.00  0.00    +0.005 A 
ATOM     21  C   UNL     1      -9.676 -10.833  19.776  0.00  0.00    +0.005 A 
ATOM     23  C   UNL     1     -11.460 -10.124  17.751  0.00  0.00    +0.000 A 
ATOM     24  C   UNL     1     -10.883 -10.214  20.096  0.00  0.00    +0.000 A 
ATOM     25  C   UNL     1     -11.776  -9.859  19.084  0.00  0.00    +0.000 A 
ENDBRANCH  17  19
ENDBRANCH   1  17
ENDBRANCH   9   1
ENDBRANCH  13   9
BRANCH  14   4
ATOM      4  O   UNL     1      -1.764 -11.282  13.078  0.00  0.00    -0.442 OA
BRANCH   4  18
ATOM      7  O   UNL     1      -1.525  -9.707  11.438  0.00  0.00    -0.226 OA
ATOM     10  N   UNL     1      -3.120 -11.414  11.280  0.00  0.00    -0.251 N 
ATOM     18  C   UNL     1      -2.094 -10.702  11.871  0.00  0.00    +0.405 C 
ATOM     34  H   UNL     1      -3.464 -12.219  11.797  0.00  0.00    +0.158 HD
BRANCH  10  22
ATOM     22  C   UNL     1      -3.755 -11.161  10.043  0.00  0.00    +0.036 A 
ATOM     26  C   UNL     1      -4.123  -9.859   9.701  0.00  0.00    +0.024 A 
ATOM     27  C   UNL     1      -4.016 -12.213   9.165  0.00  0.00    +0.024 A 
ATOM     28  C   UNL     1      -4.751  -9.610   8.482  0.00  0.00    +0.013 A 
ATOM     29  C   UNL     1      -4.644 -11.964   7.945  0.00  0.00    +0.013 A 
ATOM     30  C   UNL     1      -5.012 -10.662   7.603  0.00  0.00    +0.017 A 
BRANCH  30  31
ATOM      8  O   UNL     1      -5.399 -11.069   5.312  0.00  0.00    -0.292 OA
ATOM     31  C   UNL     1      -5.666 -10.402   6.331  0.00  0.00    +0.160 C 
ATOM     32  C   UNL     1      -6.705  -9.290   6.215  0.00  0.00    +0.091 C 
ENDBRANCH  30  31
ENDBRANCH  10  22
ENDBRANCH   4  18
ENDBRANCH  14   4
TORSDOF 8
ENDMDL
MODEL 10
REMARK VINA RESULT:      -6.6      3.423      5.907
REMARK  Name = 11884171
REMARK  9 active torsions:
REMARK  status: ('A' for Active; 'I' for Inactive)
REMARK    1  A    between atoms: S_1  and  N_9
REMARK    2  A    between atoms: S_1  and  C_17
REMARK    3  A    between atoms: O_4  and  C_14
REMARK    4  A    between atoms: O_4  and  C_18
REMARK    5  A    between atoms: N_9  and  C_13
REMARK    6  A    between atoms: N_10  and  C_22
REMARK    7  A    between atoms: C_17  and  C_19
REMARK    8  A    between atoms: C_30  and  C_31
REMARK    9  A    between atoms: C_31  and  C_32
REMARK                            x       y       z     vdW  Elec       q    Type
REMARK                         _______ _______ _______ _____ _____    ______ ____
ROOT
ATOM      2  O   UNL     1      15.031  10.376  23.098  0.00  0.00    -0.369 OA
ATOM      3  O   UNL     1      14.165  11.359  20.315  0.00  0.00    -0.368 OA
ATOM     11  C   UNL     1      14.039  10.076  20.963  0.00  0.00    +0.171 C 
ATOM     12  C   UNL     1      15.300   9.870  21.780  0.00  0.00    +0.191 C 
ATOM     13  C   UNL     1      12.941  10.128  21.996  0.00  0.00    +0.133 C 
ATOM     14  C   UNL     1      16.308  10.724  21.048  0.00  0.00    +0.235 C 
ATOM     15  C   UNL     1      13.641  10.720  23.204  0.00  0.00    +0.183 C 
ATOM     16  C   UNL     1      15.466  11.896  20.598  0.00  0.00    +0.207 C 
ENDROOT
BRANCH  13   9
ATOM      9  N   UNL     1      12.475   8.756  22.310  0.00  0.00    -0.186 NA
ATOM     33  H   UNL     1      13.168   8.103  22.695  0.00  0.00    +0.148 HD
BRANCH   9   1
ATOM      1  S   UNL     1      11.127   8.133  21.477  0.00  0.00    +0.034 S 
ATOM      5  O   UNL     1      10.862   8.930  20.295  0.00  0.00    -0.158 OA
ATOM      6  O   UNL     1      10.078   7.871  22.444  0.00  0.00    -0.158 OA
BRANCH   1  17
ATOM     17  C   UNL     1      11.764   6.561  20.945  0.00  0.00    +0.220 C 
BRANCH  17  19
ATOM     19  C   UNL     1      12.927   6.823  20.037  0.00  0.00    -0.025 A 
ATOM     20  C   UNL     1      12.710   7.334  18.757  0.00  0.00    +0.005 A 
ATOM     21  C   UNL     1      14.225   6.555  20.470  0.00  0.00    +0.005 A 
ATOM     23  C   UNL     1      13.792   7.577  17.910  0.00  0.00    +0.000 A 
ATOM     24  C   UNL     1      15.306   6.799  19.625  0.00  0.00    +0.000 A 
ATOM     25  C   UNL     1      15.091   7.310  18.344  0.00  0.00    +0.000 A 
ENDBRANCH  17  19
ENDBRANCH   1  17
ENDBRANCH   9   1
ENDBRANCH  13   9
BRANCH  14   4
ATOM      4  O   UNL     1      17.393  11.128  21.852  0.00  0.00    -0.442 OA
BRANCH   4  18
ATOM      7  O   UNL     1      19.623  10.896  21.405  0.00  0.00    -0.226 OA
ATOM     10  N   UNL     1      18.307   9.077  22.071  0.00  0.00    -0.251 N 
ATOM     18  C   UNL     1      18.557  10.396  21.743  0.00  0.00    +0.405 C 
ATOM     34  H   UNL     1      17.350   8.852  22.329  0.00  0.00    +0.158 HD
BRANCH  10  22
ATOM     22  C   UNL     1      19.219   7.998  22.089  0.00  0.00    +0.036 A 
ATOM     26  C   UNL     1      20.021   7.781  23.210  0.00  0.00    +0.024 A 
ATOM     27  C   UNL     1      19.319   7.150  20.986  0.00  0.00    +0.024 A 
ATOM     28  C   UNL     1      20.923   6.717  23.228  0.00  0.00    +0.013 A 
ATOM     29  C   UNL     1      20.220   6.085  21.003  0.00  0.00    +0.013 A 
ATOM     30  C   UNL     1      21.022   5.869  22.124  0.00  0.00    +0.017 A 
BRANCH  30  31
ATOM      8  O   UNL     1      23.039   4.826  22.767  0.00  0.00    -0.292 OA
ATOM     31  C   UNL     1      21.961   4.759  22.143  0.00  0.00    +0.160 C 
ATOM     32  C   UNL     1      21.643   3.471  21.389  0.00  0.00    +0.091 C 
ENDBRANCH  30  31
ENDBRANCH  10  22
ENDBRANCH   4  18
ENDBRANCH  14   4
TORSDOF 8
ENDMDL
