MODEL 1
REMARK VINA RESULT:      -8.0      0.000      0.000
REMARK  Name = 75366943
REMARK  7 active torsions:
REMARK  status: ('A' for Active; 'I' for Inactive)
REMARK    1  A    between atoms: O_4  and  C_11
REMARK    2  A    between atoms: N_7  and  C_15
REMARK    3  A    between atoms: C_9  and  C_14
REMARK    4  A    between atoms: C_10  and  C_15
REMARK    5  A    between atoms: C_14  and  C_16
REMARK    6  A    between atoms: C_18  and  C_20
REMARK    7  A    between atoms: C_19  and  C_21
REMARK                            x       y       z     vdW  Elec       q    Type
REMARK                         _______ _______ _______ _____ _____    ______ ____
ROOT
ATOM      3  O   UNL     1     -16.081   2.042  25.041  0.00  0.00    -0.369 OA
ATOM      9  C   UNL     1     -17.250   2.047  25.865  0.00  0.00    +0.125 C 
ATOM     10  C   UNL     1     -16.057   3.038  24.010  0.00  0.00    +0.164 C 
ATOM     11  C   UNL     1     -17.297   2.943  23.113  0.00  0.00    +0.145 C 
ATOM     12  C   UNL     1     -18.505   1.836  25.021  0.00  0.00    +0.034 C 
ATOM     13  C   UNL     1     -18.594   2.885  23.916  0.00  0.00    +0.036 C 
ENDROOT
BRANCH  11   4
ATOM      4  O   UNL     1     -17.213   1.745  22.336  0.00  0.00    -0.389 OA
ATOM     32  H   UNL     1     -17.401   0.997  22.928  0.00  0.00    +0.210 HD
ENDBRANCH  11   4
BRANCH   9  14
ATOM     14  C   UNL     1     -17.093   0.932  26.891  0.00  0.00    +0.090 C 
BRANCH  14  16
ATOM      5  O   UNL     1     -15.148   1.280  29.906  0.00  0.00    -0.354 OA
ATOM      8  N   UNL     1     -15.701   0.524  28.880  0.00  0.00    -0.083 NA
ATOM     16  C   UNL     1     -16.359   1.403  28.119  0.00  0.00    +0.087 A 
ATOM     17  C   UNL     1     -16.258   2.716  28.609  0.00  0.00    +0.076 A 
ATOM     19  C   UNL     1     -15.487   2.584  29.734  0.00  0.00    +0.167 A 
BRANCH  19  21
ATOM      2  F   UNL     1     -13.537   6.108  33.572  0.00  0.00    -0.205 F 
ATOM     21  C   UNL     1     -14.984   3.493  30.723  0.00  0.00    +0.020 A 
ATOM     24  C   UNL     1     -13.872   3.143  31.490  0.00  0.00    +0.014 A 
ATOM     25  C   UNL     1     -15.606   4.726  30.919  0.00  0.00    +0.014 A 
ATOM     28  C   UNL     1     -13.383   4.026  32.452  0.00  0.00    +0.039 A 
ATOM     29  C   UNL     1     -15.117   5.610  31.880  0.00  0.00    +0.039 A 
ATOM     31  C   UNL     1     -14.006   5.260  32.648  0.00  0.00    +0.123 A 
ENDBRANCH  19  21
ENDBRANCH  14  16
ENDBRANCH   9  14
BRANCH  10  15
ATOM     15  C   UNL     1     -15.851   4.433  24.598  0.00  0.00    +0.138 C 
BRANCH  15   7
ATOM      6  O   UNL     1     -16.367   6.254  22.440  0.00  0.00    -0.270 OA
ATOM      7  N   UNL     1     -14.878   5.167  23.849  0.00  0.00    -0.309 N 
ATOM     18  C   UNL     1     -15.217   6.033  22.812  0.00  0.00    +0.244 C 
ATOM     33  H   UNL     1     -13.904   4.964  24.048  0.00  0.00    +0.149 HD
BRANCH  18  20
ATOM      1  F   UNL     1     -10.947   8.555  20.180  0.00  0.00    -0.205 F 
ATOM     20  C   UNL     1     -14.088   6.700  22.115  0.00  0.00    +0.037 A 
ATOM     22  C   UNL     1     -14.083   8.087  21.963  0.00  0.00    +0.016 A 
ATOM     23  C   UNL     1     -13.031   5.940  21.613  0.00  0.00    +0.016 A 
ATOM     26  C   UNL     1     -13.023   8.714  21.308  0.00  0.00    +0.039 A 
ATOM     27  C   UNL     1     -11.970   6.567  20.959  0.00  0.00    +0.039 A 
ATOM     30  C   UNL     1     -11.967   7.954  20.806  0.00  0.00    +0.123 A 
ENDBRANCH  18  20
ENDBRANCH  15   7
ENDBRANCH  10  15
TORSDOF 7
ENDMDL
MODEL 2
REMARK VINA RESULT:      -7.7     18.077     20.539
REMARK  Name = 75366943
REMARK  7 active torsions:
REMARK  status: ('A' for Active; 'I' for Inactive)
REMARK    1  A    between atoms: O_4  and  C_11
REMARK    2  A    between atoms: N_7  and  C_15
REMARK    3  A    between atoms: C_9  and  C_14
REMARK    4  A    between atoms: C_10  and  C_15
REMARK    5  A    between atoms: C_14  and  C_16
REMARK    6  A    between atoms: C_18  and  C_20
REMARK    7  A    between atoms: C_19  and  C_21
REMARK                            x       y       z     vdW  Elec       q    Type
REMARK                         _______ _______ _______ _____ _____    ______ ____
ROOT
ATOM      3  O   UNL     1      -9.323  -8.458  15.293  0.00  0.00    -0.369 OA
ATOM      9  C   UNL     1     -10.337  -9.269  14.697  0.00  0.00    +0.125 C 
ATOM     10  C   UNL     1      -9.732  -7.727  16.457  0.00  0.00    +0.164 C 
ATOM     11  C   UNL     1     -10.958  -6.853  16.164  0.00  0.00    +0.145 C 
ATOM     12  C   UNL     1     -11.534  -8.417  14.281  0.00  0.00    +0.034 C 
ATOM     13  C   UNL     1     -12.074  -7.630  15.472  0.00  0.00    +0.036 C 
ENDROOT
BRANCH  11   4
ATOM      4  O   UNL     1     -10.567  -5.785  15.297  0.00  0.00    -0.389 OA
ATOM     32  H   UNL     1     -11.337  -5.201  15.186  0.00  0.00    +0.210 HD
ENDBRANCH  11   4
BRANCH   9  14
ATOM     14  C   UNL     1      -9.719  -9.962  13.488  0.00  0.00    +0.090 C 
BRANCH  14  16
ATOM      5  O   UNL     1      -6.208  -9.379  12.919  0.00  0.00    -0.354 OA
ATOM      8  N   UNL     1      -7.549  -9.220  12.594  0.00  0.00    -0.083 NA
ATOM     16  C   UNL     1      -8.215  -9.910  13.524  0.00  0.00    +0.087 A 
ATOM     17  C   UNL     1      -7.356 -10.520  14.454  0.00  0.00    +0.076 A 
ATOM     19  C   UNL     1      -6.105 -10.155  14.029  0.00  0.00    +0.167 A 
BRANCH  19  21
ATOM      2  F   UNL     1      -0.931 -11.141  15.817  0.00  0.00    -0.205 F 
ATOM     21  C   UNL     1      -4.771 -10.408  14.490  0.00  0.00    +0.020 A 
ATOM     24  C   UNL     1      -3.755 -10.673  13.572  0.00  0.00    +0.014 A 
ATOM     25  C   UNL     1      -4.489 -10.392  15.855  0.00  0.00    +0.014 A 
ATOM     28  C   UNL     1      -2.457 -10.920  14.019  0.00  0.00    +0.039 A 
ATOM     29  C   UNL     1      -3.193 -10.638  16.304  0.00  0.00    +0.039 A 
ATOM     31  C   UNL     1      -2.176 -10.903  15.386  0.00  0.00    +0.123 A 
ENDBRANCH  19  21
ENDBRANCH  14  16
ENDBRANCH   9  14
BRANCH  10  15
ATOM     15  C   UNL     1      -9.934  -8.660  17.649  0.00  0.00    +0.138 C 
BRANCH  15   7
ATOM      6  O   UNL     1      -9.387 -11.474  17.492  0.00  0.00    -0.270 OA
ATOM      7  N   UNL     1      -8.711  -9.313  18.003  0.00  0.00    -0.309 N 
ATOM     18  C   UNL     1      -8.531 -10.690  17.895  0.00  0.00    +0.244 C 
ATOM     33  H   UNL     1      -7.992  -8.734  18.425  0.00  0.00    +0.149 HD
BRANCH  18  20
ATOM      1  F   UNL     1      -3.542 -12.682  19.532  0.00  0.00    -0.205 F 
ATOM     20  C   UNL     1      -7.211 -11.217  18.328  0.00  0.00    +0.037 A 
ATOM     22  C   UNL     1      -6.419 -10.478  19.207  0.00  0.00    +0.016 A 
ATOM     23  C   UNL     1      -6.762 -12.451  17.855  0.00  0.00    +0.016 A 
ATOM     26  C   UNL     1      -5.179 -10.972  19.613  0.00  0.00    +0.039 A 
ATOM     27  C   UNL     1      -5.523 -12.945  18.262  0.00  0.00    +0.039 A 
ATOM     30  C   UNL     1      -4.732 -12.205  19.140  0.00  0.00    +0.123 A 
ENDBRANCH  18  20
ENDBRANCH  15   7
ENDBRANCH  10  15
TORSDOF 7
ENDMDL
MODEL 3
REMARK VINA RESULT:      -7.6     31.595     36.255
REMARK  Name = 75366943
REMARK  7 active torsions:
REMARK  status: ('A' for Active; 'I' for Inactive)
REMARK    1  A    between atoms: O_4  and  C_11
REMARK    2  A    between atoms: N_7  and  C_15
REMARK    3  A    between atoms: C_9  and  C_14
REMARK    4  A    between atoms: C_10  and  C_15
REMARK    5  A    between atoms: C_14  and  C_16
REMARK    6  A    between atoms: C_18  and  C_20
REMARK    7  A    between atoms: C_19  and  C_21
REMARK                            x       y       z     vdW  Elec       q    Type
REMARK                         _______ _______ _______ _____ _____    ______ ____
ROOT
ATOM      3  O   UNL     1      11.327   6.203   6.510  0.00  0.00    -0.369 OA
ATOM      9  C   UNL     1      10.968   7.586   6.463  0.00  0.00    +0.125 C 
ATOM     10  C   UNL     1      10.234   5.296   6.707  0.00  0.00    +0.164 C 
ATOM     11  C   UNL     1       9.439   5.645   7.971  0.00  0.00    +0.145 C 
ATOM     12  C   UNL     1      10.275   8.008   7.758  0.00  0.00    +0.034 C 
ATOM     13  C   UNL     1       9.062   7.123   8.031  0.00  0.00    +0.036 C 
ENDROOT
BRANCH  11   4
ATOM      4  O   UNL     1      10.244   5.354   9.117  0.00  0.00    -0.389 OA
ATOM     32  H   UNL     1      10.995   4.812   8.818  0.00  0.00    +0.210 HD
ENDBRANCH  11   4
BRANCH   9  14
ATOM     14  C   UNL     1      12.247   8.386   6.249  0.00  0.00    +0.090 C 
BRANCH  14  16
ATOM      5  O   UNL     1      14.725   6.961   4.052  0.00  0.00    -0.354 OA
ATOM      8  N   UNL     1      14.276   7.360   5.305  0.00  0.00    -0.083 NA
ATOM     16  C   UNL     1      13.052   7.851   5.094  0.00  0.00    +0.087 A 
ATOM     17  C   UNL     1      12.677   7.789   3.741  0.00  0.00    +0.076 A 
ATOM     19  C   UNL     1      13.763   7.222   3.128  0.00  0.00    +0.167 A 
BRANCH  19  21
ATOM      2  F   UNL     1      15.009   5.821  -2.109  0.00  0.00    -0.205 F 
ATOM     21  C   UNL     1      14.084   6.860   1.778  0.00  0.00    +0.020 A 
ATOM     24  C   UNL     1      15.129   5.971   1.524  0.00  0.00    +0.014 A 
ATOM     25  C   UNL     1      13.352   7.397   0.719  0.00  0.00    +0.014 A 
ATOM     28  C   UNL     1      15.441   5.620   0.211  0.00  0.00    +0.039 A 
ATOM     29  C   UNL     1      13.663   7.046  -0.594  0.00  0.00    +0.039 A 
ATOM     31  C   UNL     1      14.709   6.157  -0.848  0.00  0.00    +0.123 A 
ENDBRANCH  19  21
ENDBRANCH  14  16
ENDBRANCH   9  14
BRANCH  10  15
ATOM     15  C   UNL     1       9.360   5.209   5.457  0.00  0.00    +0.138 C 
BRANCH  15   7
ATOM      6  O   UNL     1       9.602   6.419   2.865  0.00  0.00    -0.270 OA
ATOM      7  N   UNL     1      10.105   4.703   4.344  0.00  0.00    -0.309 N 
ATOM     18  C   UNL     1      10.168   5.358   3.117  0.00  0.00    +0.244 C 
ATOM     33  H   UNL     1      10.525   3.787   4.457  0.00  0.00    +0.149 HD
BRANCH  18  20
ATOM      1  F   UNL     1      13.168   2.828  -0.899  0.00  0.00    -0.205 F 
ATOM     20  C   UNL     1      10.962   4.689   2.054  0.00  0.00    +0.037 A 
ATOM     22  C   UNL     1      12.042   3.876   2.398  0.00  0.00    +0.016 A 
ATOM     23  C   UNL     1      10.627   4.873   0.712  0.00  0.00    +0.016 A 
ATOM     26  C   UNL     1      12.788   3.248   1.400  0.00  0.00    +0.039 A 
ATOM     27  C   UNL     1      11.373   4.245  -0.285  0.00  0.00    +0.039 A 
ATOM     30  C   UNL     1      12.453   3.433   0.059  0.00  0.00    +0.123 A 
ENDBRANCH  18  20
ENDBRANCH  15   7
ENDBRANCH  10  15
TORSDOF 7
ENDMDL
MODEL 4
REMARK VINA RESULT:      -7.5      1.871      2.481
REMARK  Name = 75366943
REMARK  7 active torsions:
REMARK  status: ('A' for Active; 'I' for Inactive)
REMARK    1  A    between atoms: O_4  and  C_11
REMARK    2  A    between atoms: N_7  and  C_15
REMARK    3  A    between atoms: C_9  and  C_14
REMARK    4  A    between atoms: C_10  and  C_15
REMARK    5  A    between atoms: C_14  and  C_16
REMARK    6  A    between atoms: C_18  and  C_20
REMARK    7  A    between atoms: C_19  and  C_21
REMARK                            x       y       z     vdW  Elec       q    Type
REMARK                         _______ _______ _______ _____ _____    ______ ____
ROOT
ATOM      3  O   UNL     1     -16.934   2.079  23.299  0.00  0.00    -0.369 OA
ATOM      9  C   UNL     1     -18.035   2.107  24.210  0.00  0.00    +0.125 C 
ATOM     10  C   UNL     1     -16.682   3.309  22.607  0.00  0.00    +0.164 C 
ATOM     11  C   UNL     1     -17.931   3.796  21.862  0.00  0.00    +0.145 C 
ATOM     12  C   UNL     1     -19.328   2.474  23.483  0.00  0.00    +0.034 C 
ATOM     13  C   UNL     1     -19.173   3.804  22.750  0.00  0.00    +0.036 C 
ENDROOT
BRANCH  11   4
ATOM      4  O   UNL     1     -18.185   2.915  20.764  0.00  0.00    -0.389 OA
ATOM     32  H   UNL     1     -17.770   3.303  19.975  0.00  0.00    +0.210 HD
ENDBRANCH  11   4
BRANCH   9  14
ATOM     14  C   UNL     1     -18.144   0.725  24.842  0.00  0.00    +0.090 C 
BRANCH  14  16
ATOM      5  O   UNL     1     -17.620   0.270  28.379  0.00  0.00    -0.354 OA
ATOM      8  N   UNL     1     -18.340   0.073  27.208  0.00  0.00    -0.083 NA
ATOM     16  C   UNL     1     -17.652   0.722  26.265  0.00  0.00    +0.087 A 
ATOM     17  C   UNL     1     -16.498   1.342  26.777  0.00  0.00    +0.076 A 
ATOM     19  C   UNL     1     -16.525   1.027  28.110  0.00  0.00    +0.167 A 
BRANCH  19  21
ATOM      2  F   UNL     1     -13.238   2.144  32.457  0.00  0.00    -0.205 F 
ATOM     21  C   UNL     1     -15.677   1.315  29.230  0.00  0.00    +0.020 A 
ATOM     24  C   UNL     1     -15.480   0.353  30.221  0.00  0.00    +0.014 A 
ATOM     25  C   UNL     1     -15.049   2.556  29.330  0.00  0.00    +0.014 A 
ATOM     28  C   UNL     1     -14.656   0.633  31.311  0.00  0.00    +0.039 A 
ATOM     29  C   UNL     1     -14.225   2.837  30.419  0.00  0.00    +0.039 A 
ATOM     31  C   UNL     1     -14.028   1.875  31.410  0.00  0.00    +0.123 A 
ENDBRANCH  19  21
ENDBRANCH  14  16
ENDBRANCH   9  14
BRANCH  10  15
ATOM     15  C   UNL     1     -16.102   4.361  23.551  0.00  0.00    +0.138 C 
BRANCH  15   7
ATOM      6  O   UNL     1     -13.256   4.521  23.210  0.00  0.00    -0.270 OA
ATOM      7  N   UNL     1     -15.384   5.363  22.823  0.00  0.00    -0.309 N 
ATOM     18  C   UNL     1     -13.995   5.364  22.709  0.00  0.00    +0.244 C 
ATOM     33  H   UNL     1     -15.928   6.137  22.457  0.00  0.00    +0.149 HD
BRANCH  18  20
ATOM      1  F   UNL     1     -11.744   9.613  19.809  0.00  0.00    -0.205 F 
ATOM     20  C   UNL     1     -13.400   6.488  21.942  0.00  0.00    +0.037 A 
ATOM     22  C   UNL     1     -12.225   6.292  21.216  0.00  0.00    +0.016 A 
ATOM     23  C   UNL     1     -14.015   7.741  21.947  0.00  0.00    +0.016 A 
ATOM     26  C   UNL     1     -11.665   7.348  20.496  0.00  0.00    +0.039 A 
ATOM     27  C   UNL     1     -13.456   8.796  21.227  0.00  0.00    +0.039 A 
ATOM     30  C   UNL     1     -12.280   8.599  20.502  0.00  0.00    +0.123 A 
ENDBRANCH  18  20
ENDBRANCH  15   7
ENDBRANCH  10  15
TORSDOF 7
ENDMDL
MODEL 5
REMARK VINA RESULT:      -7.3     31.868     37.247
REMARK  Name = 75366943
REMARK  7 active torsions:
REMARK  status: ('A' for Active; 'I' for Inactive)
REMARK    1  A    between atoms: O_4  and  C_11
REMARK    2  A    between atoms: N_7  and  C_15
REMARK    3  A    between atoms: C_9  and  C_14
REMARK    4  A    between atoms: C_10  and  C_15
REMARK    5  A    between atoms: C_14  and  C_16
REMARK    6  A    between atoms: C_18  and  C_20
REMARK    7  A    between atoms: C_19  and  C_21
REMARK                            x       y       z     vdW  Elec       q    Type
REMARK                         _______ _______ _______ _____ _____    ______ ____
ROOT
ATOM      3  O   UNL     1      12.795   3.281   0.677  0.00  0.00    -0.369 OA
ATOM      9  C   UNL     1      13.138   3.758  -0.626  0.00  0.00    +0.125 C 
ATOM     10  C   UNL     1      13.232   4.107   1.764  0.00  0.00    +0.164 C 
ATOM     11  C   UNL     1      14.745   4.351   1.707  0.00  0.00    +0.145 C 
ATOM     12  C   UNL     1      14.653   3.903  -0.766  0.00  0.00    +0.034 C 
ATOM     13  C   UNL     1      15.209   4.811   0.328  0.00  0.00    +0.036 C 
ENDROOT
BRANCH  11   4
ATOM      4  O   UNL     1      15.421   3.126   2.008  0.00  0.00    -0.389 OA
ATOM     32  H   UNL     1      15.047   2.782   2.838  0.00  0.00    +0.210 HD
ENDBRANCH  11   4
BRANCH   9  14
ATOM     14  C   UNL     1      12.595   2.759  -1.640  0.00  0.00    +0.090 C 
BRANCH  14  16
ATOM      5  O   UNL     1       9.356   3.078  -3.190  0.00  0.00    -0.354 OA
ATOM      8  N   UNL     1      10.432   2.327  -2.734  0.00  0.00    -0.083 NA
ATOM     16  C   UNL     1      11.291   3.220  -2.234  0.00  0.00    +0.087 A 
ATOM     17  C   UNL     1      10.815   4.538  -2.344  0.00  0.00    +0.076 A 
ATOM     19  C   UNL     1       9.596   4.394  -2.952  0.00  0.00    +0.167 A 
BRANCH  19  21
ATOM      2  F   UNL     1       5.599   7.908  -4.573  0.00  0.00    -0.205 F 
ATOM     21  C   UNL     1       8.565   5.299  -3.369  0.00  0.00    +0.020 A 
ATOM     24  C   UNL     1       7.898   5.088  -4.577  0.00  0.00    +0.014 A 
ATOM     25  C   UNL     1       8.229   6.392  -2.570  0.00  0.00    +0.014 A 
ATOM     28  C   UNL     1       6.896   5.969  -4.983  0.00  0.00    +0.039 A 
ATOM     29  C   UNL     1       7.227   7.272  -2.975  0.00  0.00    +0.039 A 
ATOM     31  C   UNL     1       6.560   7.061  -4.182  0.00  0.00    +0.123 A 
ENDBRANCH  19  21
ENDBRANCH  14  16
ENDBRANCH   9  14
BRANCH  10  15
ATOM     15  C   UNL     1      12.422   5.400   1.831  0.00  0.00    +0.138 C 
BRANCH  15   7
ATOM      6  O   UNL     1       9.844   6.542   2.375  0.00  0.00    -0.270 OA
ATOM      7  N   UNL     1      11.810   5.556   3.116  0.00  0.00    -0.309 N 
ATOM     18  C   UNL     1      10.550   6.124   3.290  0.00  0.00    +0.244 C 
ATOM     33  H   UNL     1      12.376   5.310   3.922  0.00  0.00    +0.149 HD
BRANCH  18  20
ATOM      1  F   UNL     1       8.723   6.554   8.582  0.00  0.00    -0.205 F 
ATOM     20  C   UNL     1      10.067   6.238   4.690  0.00  0.00    +0.037 A 
ATOM     22  C   UNL     1       8.787   6.730   4.948  0.00  0.00    +0.016 A 
ATOM     23  C   UNL     1      10.892   5.853   5.747  0.00  0.00    +0.016 A 
ATOM     26  C   UNL     1       8.333   6.838   6.263  0.00  0.00    +0.039 A 
ATOM     27  C   UNL     1      10.438   5.960   7.061  0.00  0.00    +0.039 A 
ATOM     30  C   UNL     1       9.159   6.453   7.319  0.00  0.00    +0.123 A 
ENDBRANCH  18  20
ENDBRANCH  15   7
ENDBRANCH  10  15
TORSDOF 7
ENDMDL
MODEL 6
REMARK VINA RESULT:      -7.3     21.308     23.808
REMARK  Name = 75366943
REMARK  7 active torsions:
REMARK  status: ('A' for Active; 'I' for Inactive)
REMARK    1  A    between atoms: O_4  and  C_11
REMARK    2  A    between atoms: N_7  and  C_15
REMARK    3  A    between atoms: C_9  and  C_14
REMARK    4  A    between atoms: C_10  and  C_15
REMARK    5  A    between atoms: C_14  and  C_16
REMARK    6  A    between atoms: C_18  and  C_20
REMARK    7  A    between atoms: C_19  and  C_21
REMARK                            x       y       z     vdW  Elec       q    Type
REMARK                         _______ _______ _______ _____ _____    ______ ____
ROOT
ATOM      3  O   UNL     1      -4.157 -12.336  15.886  0.00  0.00    -0.369 OA
ATOM      9  C   UNL     1      -3.563 -11.166  16.454  0.00  0.00    +0.125 C 
ATOM     10  C   UNL     1      -5.379 -12.762  16.504  0.00  0.00    +0.164 C 
ATOM     11  C   UNL     1      -5.196 -12.980  18.011  0.00  0.00    +0.145 C 
ATOM     12  C   UNL     1      -3.254 -11.383  17.934  0.00  0.00    +0.034 C 
ATOM     13  C   UNL     1      -4.514 -11.796  18.692  0.00  0.00    +0.036 C 
ENDROOT
BRANCH  11   4
ATOM      4  O   UNL     1      -4.373 -14.132  18.214  0.00  0.00    -0.389 OA
ATOM     32  H   UNL     1      -4.007 -14.077  19.113  0.00  0.00    +0.210 HD
ENDBRANCH  11   4
BRANCH   9  14
ATOM     14  C   UNL     1      -2.289 -10.872  15.673  0.00  0.00    +0.090 C 
BRANCH  14  16
ATOM      5  O   UNL     1      -2.245 -11.889  12.215  0.00  0.00    -0.354 OA
ATOM      8  N   UNL     1      -1.833 -12.007  13.536  0.00  0.00    -0.083 NA
ATOM     16  C   UNL     1      -2.491 -11.046  14.191  0.00  0.00    +0.087 A 
ATOM     17  C   UNL     1      -3.325 -10.297  13.343  0.00  0.00    +0.076 A 
ATOM     19  C   UNL     1      -3.134 -10.867  12.112  0.00  0.00    +0.167 A 
BRANCH  19  21
ATOM      2  F   UNL     1      -5.142  -9.922   7.011  0.00  0.00    -0.205 F 
ATOM     21  C   UNL     1      -3.652 -10.623  10.797  0.00  0.00    +0.020 A 
ATOM     24  C   UNL     1      -3.954 -11.695   9.957  0.00  0.00    +0.014 A 
ATOM     25  C   UNL     1      -3.854  -9.315  10.358  0.00  0.00    +0.014 A 
ATOM     28  C   UNL     1      -4.457 -11.459   8.678  0.00  0.00    +0.039 A 
ATOM     29  C   UNL     1      -4.358  -9.078   9.080  0.00  0.00    +0.039 A 
ATOM     31  C   UNL     1      -4.659 -10.150   8.239  0.00  0.00    +0.123 A 
ENDBRANCH  19  21
ENDBRANCH  14  16
ENDBRANCH   9  14
BRANCH  10  15
ATOM     15  C   UNL     1      -6.523 -11.806  16.174  0.00  0.00    +0.138 C 
BRANCH  15   7
ATOM      6  O   UNL     1      -6.461  -9.547  14.404  0.00  0.00    -0.270 OA
ATOM      7  N   UNL     1      -6.808 -11.811  14.771  0.00  0.00    -0.309 N 
ATOM     18  C   UNL     1      -6.754 -10.663  13.984  0.00  0.00    +0.244 C 
ATOM     33  H   UNL     1      -7.141 -12.686  14.378  0.00  0.00    +0.149 HD
BRANCH  18  20
ATOM      1  F   UNL     1      -8.071 -11.298   8.563  0.00  0.00    -0.205 F 
ATOM     20  C   UNL     1      -7.103 -10.831  12.550  0.00  0.00    +0.037 A 
ATOM     22  C   UNL     1      -7.343  -9.710  11.754  0.00  0.00    +0.016 A 
ATOM     23  C   UNL     1      -7.189 -12.110  11.998  0.00  0.00    +0.016 A 
ATOM     26  C   UNL     1      -7.671  -9.868  10.408  0.00  0.00    +0.039 A 
ATOM     27  C   UNL     1      -7.517 -12.267  10.651  0.00  0.00    +0.039 A 
ATOM     30  C   UNL     1      -7.758 -11.146   9.856  0.00  0.00    +0.123 A 
ENDBRANCH  18  20
ENDBRANCH  15   7
ENDBRANCH  10  15
TORSDOF 7
ENDMDL
MODEL 7
REMARK VINA RESULT:      -7.3     31.494     35.650
REMARK  Name = 75366943
REMARK  7 active torsions:
REMARK  status: ('A' for Active; 'I' for Inactive)
REMARK    1  A    between atoms: O_4  and  C_11
REMARK    2  A    between atoms: N_7  and  C_15
REMARK    3  A    between atoms: C_9  and  C_14
REMARK    4  A    between atoms: C_10  and  C_15
REMARK    5  A    between atoms: C_14  and  C_16
REMARK    6  A    between atoms: C_18  and  C_20
REMARK    7  A    between atoms: C_19  and  C_21
REMARK                            x       y       z     vdW  Elec       q    Type
REMARK                         _______ _______ _______ _____ _____    ______ ____
ROOT
ATOM      3  O   UNL     1      13.883   4.512   1.671  0.00  0.00    -0.369 OA
ATOM      9  C   UNL     1      12.981   4.657   0.571  0.00  0.00    +0.125 C 
ATOM     10  C   UNL     1      15.178   5.098   1.479  0.00  0.00    +0.164 C 
ATOM     11  C   UNL     1      15.852   4.559   0.211  0.00  0.00    +0.145 C 
ATOM     12  C   UNL     1      13.566   4.026  -0.692  0.00  0.00    +0.034 C 
ATOM     13  C   UNL     1      14.935   4.623  -1.007  0.00  0.00    +0.036 C 
ENDROOT
BRANCH  11   4
ATOM      4  O   UNL     1      16.202   3.188   0.422  0.00  0.00    -0.389 OA
ATOM     32  H   UNL     1      15.953   2.695  -0.379  0.00  0.00    +0.210 HD
ENDBRANCH  11   4
BRANCH   9  14
ATOM     14  C   UNL     1      11.672   3.980   0.958  0.00  0.00    +0.090 C 
BRANCH  14  16
ATOM      5  O   UNL     1       9.521   6.238   2.766  0.00  0.00    -0.354 OA
ATOM      8  N   UNL     1      10.030   5.702   1.590  0.00  0.00    -0.083 NA
ATOM     16  C   UNL     1      10.913   4.780   1.983  0.00  0.00    +0.087 A 
ATOM     17  C   UNL     1      11.003   4.689   3.383  0.00  0.00    +0.076 A 
ATOM     19  C   UNL     1      10.108   5.627   3.828  0.00  0.00    +0.167 A 
BRANCH  19  21
ATOM      2  F   UNL     1       8.448   7.375   8.841  0.00  0.00    -0.205 F 
ATOM     21  C   UNL     1       9.680   6.077   5.120  0.00  0.00    +0.020 A 
ATOM     24  C   UNL     1       8.744   7.106   5.225  0.00  0.00    +0.014 A 
ATOM     25  C   UNL     1      10.199   5.487   6.272  0.00  0.00    +0.014 A 
ATOM     28  C   UNL     1       8.327   7.545   6.481  0.00  0.00    +0.039 A 
ATOM     29  C   UNL     1       9.783   5.925   7.529  0.00  0.00    +0.039 A 
ATOM     31  C   UNL     1       8.847   6.954   7.634  0.00  0.00    +0.123 A 
ENDBRANCH  19  21
ENDBRANCH  14  16
ENDBRANCH   9  14
BRANCH  10  15
ATOM     15  C   UNL     1      15.102   6.623   1.513  0.00  0.00    +0.138 C 
BRANCH  15   7
ATOM      6  O   UNL     1      12.566   7.948   1.746  0.00  0.00    -0.270 OA
ATOM      7  N   UNL     1      14.484   7.079   2.721  0.00  0.00    -0.309 N 
ATOM     18  C   UNL     1      13.246   7.716   2.743  0.00  0.00    +0.244 C 
ATOM     33  H   UNL     1      15.032   6.997   3.571  0.00  0.00    +0.149 HD
BRANCH  18  20
ATOM      1  F   UNL     1      11.385   9.367   7.777  0.00  0.00    -0.205 F 
ATOM     20  C   UNL     1      12.754   8.153   4.075  0.00  0.00    +0.037 A 
ATOM     22  C   UNL     1      11.789   9.157   4.167  0.00  0.00    +0.016 A 
ATOM     23  C   UNL     1      13.256   7.560   5.234  0.00  0.00    +0.016 A 
ATOM     26  C   UNL     1      11.327   9.568   5.418  0.00  0.00    +0.039 A 
ATOM     27  C   UNL     1      12.793   7.970   6.484  0.00  0.00    +0.039 A 
ATOM     30  C   UNL     1      11.829   8.974   6.576  0.00  0.00    +0.123 A 
ENDBRANCH  18  20
ENDBRANCH  15   7
ENDBRANCH  10  15
TORSDOF 7
ENDMDL
MODEL 8
REMARK VINA RESULT:      -7.2      6.251      8.721
REMARK  Name = 75366943
REMARK  7 active torsions:
REMARK  status: ('A' for Active; 'I' for Inactive)
REMARK    1  A    between atoms: O_4  and  C_11
REMARK    2  A    between atoms: N_7  and  C_15
REMARK    3  A    between atoms: C_9  and  C_14
REMARK    4  A    between atoms: C_10  and  C_15
REMARK    5  A    between atoms: C_14  and  C_16
REMARK    6  A    between atoms: C_18  and  C_20
REMARK    7  A    between atoms: C_19  and  C_21
REMARK                            x       y       z     vdW  Elec       q    Type
REMARK                         _______ _______ _______ _____ _____    ______ ____
ROOT
ATOM      3  O   UNL     1     -16.170   5.149  21.065  0.00  0.00    -0.369 OA
ATOM      9  C   UNL     1     -16.518   5.826  22.274  0.00  0.00    +0.125 C 
ATOM     10  C   UNL     1     -17.269   4.857  20.191  0.00  0.00    +0.164 C 
ATOM     11  C   UNL     1     -18.358   4.054  20.913  0.00  0.00    +0.145 C 
ATOM     12  C   UNL     1     -17.517   5.002  23.085  0.00  0.00    +0.034 C 
ATOM     13  C   UNL     1     -18.752   4.679  22.248  0.00  0.00    +0.036 C 
ENDROOT
BRANCH  11   4
ATOM      4  O   UNL     1     -17.863   2.738  21.175  0.00  0.00    -0.389 OA
ATOM     32  H   UNL     1     -16.891   2.783  21.165  0.00  0.00    +0.210 HD
ENDBRANCH  11   4
BRANCH   9  14
ATOM     14  C   UNL     1     -15.234   6.048  23.063  0.00  0.00    +0.090 C 
BRANCH  14  16
ATOM      5  O   UNL     1     -12.178   5.975  21.151  0.00  0.00    -0.354 OA
ATOM      8  N   UNL     1     -13.078   5.420  22.053  0.00  0.00    -0.083 NA
ATOM     16  C   UNL     1     -14.062   6.318  22.156  0.00  0.00    +0.087 A 
ATOM     17  C   UNL     1     -13.842   7.448  21.350  0.00  0.00    +0.076 A 
ATOM     19  C   UNL     1     -12.644   7.183  20.740  0.00  0.00    +0.167 A 
BRANCH  19  21
ATOM      2  F   UNL     1      -9.432   9.887  17.090  0.00  0.00    -0.205 F 
ATOM     21  C   UNL     1     -11.817   7.881  19.798  0.00  0.00    +0.020 A 
ATOM     24  C   UNL     1     -11.445   7.262  18.604  0.00  0.00    +0.014 A 
ATOM     25  C   UNL     1     -11.382   9.176  20.077  0.00  0.00    +0.014 A 
ATOM     28  C   UNL     1     -10.641   7.940  17.689  0.00  0.00    +0.039 A 
ATOM     29  C   UNL     1     -10.578   9.855  19.162  0.00  0.00    +0.039 A 
ATOM     31  C   UNL     1     -10.206   9.236  17.968  0.00  0.00    +0.123 A 
ENDBRANCH  19  21
ENDBRANCH  14  16
ENDBRANCH   9  14
BRANCH  10  15
ATOM     15  C   UNL     1     -17.801   6.129  19.533  0.00  0.00    +0.138 C 
BRANCH  15   7
ATOM      6  O   UNL     1     -17.055   8.897  19.696  0.00  0.00    -0.270 OA
ATOM      7  N   UNL     1     -16.777   6.784  18.778  0.00  0.00    -0.309 N 
ATOM     18  C   UNL     1     -16.480   8.137  18.920  0.00  0.00    +0.244 C 
ATOM     33  H   UNL     1     -16.321   6.233  18.057  0.00  0.00    +0.149 HD
BRANCH  18  20
ATOM      1  F   UNL     1     -12.423  10.157  15.605  0.00  0.00    -0.205 F 
ATOM     20  C   UNL     1     -15.406   8.672  18.044  0.00  0.00    +0.037 A 
ATOM     22  C   UNL     1     -15.002   7.952  16.918  0.00  0.00    +0.016 A 
ATOM     23  C   UNL     1     -14.802   9.893  18.345  0.00  0.00    +0.016 A 
ATOM     26  C   UNL     1     -13.994   8.454  16.095  0.00  0.00    +0.039 A 
ATOM     27  C   UNL     1     -13.795  10.394  17.521  0.00  0.00    +0.039 A 
ATOM     30  C   UNL     1     -13.390   9.674  16.396  0.00  0.00    +0.123 A 
ENDBRANCH  18  20
ENDBRANCH  15   7
ENDBRANCH  10  15
TORSDOF 7
ENDMDL
MODEL 9
REMARK VINA RESULT:      -7.1     19.260     21.326
REMARK  Name = 75366943
REMARK  7 active torsions:
REMARK  status: ('A' for Active; 'I' for Inactive)
REMARK    1  A    between atoms: O_4  and  C_11
REMARK    2  A    between atoms: N_7  and  C_15
REMARK    3  A    between atoms: C_9  and  C_14
REMARK    4  A    between atoms: C_10  and  C_15
REMARK    5  A    between atoms: C_14  and  C_16
REMARK    6  A    between atoms: C_18  and  C_20
REMARK    7  A    between atoms: C_19  and  C_21
REMARK                            x       y       z     vdW  Elec       q    Type
REMARK                         _______ _______ _______ _____ _____    ______ ____
ROOT
ATOM      3  O   UNL     1      -4.475  -9.487  11.831  0.00  0.00    -0.369 OA
ATOM      9  C   UNL     1      -3.761 -10.698  11.569  0.00  0.00    +0.125 C 
ATOM     10  C   UNL     1      -5.758  -9.387  11.199  0.00  0.00    +0.164 C 
ATOM     11  C   UNL     1      -5.649  -9.580   9.681  0.00  0.00    +0.145 C 
ATOM     12  C   UNL     1      -3.526 -10.872  10.070  0.00  0.00    +0.034 C 
ATOM     13  C   UNL     1      -4.849 -10.826   9.309  0.00  0.00    +0.036 C 
ENDROOT
BRANCH  11   4
ATOM      4  O   UNL     1      -4.980  -8.448   9.119  0.00  0.00    -0.389 OA
ATOM     32  H   UNL     1      -5.513  -7.661   9.325  0.00  0.00    +0.210 HD
ENDBRANCH  11   4
BRANCH   9  14
ATOM     14  C   UNL     1      -2.437 -10.621  12.319  0.00  0.00    +0.090 C 
BRANCH  14  16
ATOM      5  O   UNL     1      -2.172 -10.331  15.902  0.00  0.00    -0.354 OA
ATOM      8  N   UNL     1      -1.658 -10.208  14.618  0.00  0.00    -0.083 NA
ATOM     16  C   UNL     1      -2.640 -10.618  13.811  0.00  0.00    +0.087 A 
ATOM     17  C   UNL     1      -3.788 -11.008  14.523  0.00  0.00    +0.076 A 
ATOM     19  C   UNL     1      -3.441 -10.809  15.833  0.00  0.00    +0.167 A 
BRANCH  19  21
ATOM      2  F   UNL     1      -6.028 -11.507  20.708  0.00  0.00    -0.205 F 
ATOM     21  C   UNL     1      -4.108 -10.988  17.091  0.00  0.00    +0.020 A 
ATOM     24  C   UNL     1      -3.515 -11.759  18.090  0.00  0.00    +0.014 A 
ATOM     25  C   UNL     1      -5.349 -10.393  17.314  0.00  0.00    +0.014 A 
ATOM     28  C   UNL     1      -4.163 -11.934  19.312  0.00  0.00    +0.039 A 
ATOM     29  C   UNL     1      -5.998 -10.567  18.535  0.00  0.00    +0.039 A 
ATOM     31  C   UNL     1      -5.405 -11.338  19.535  0.00  0.00    +0.123 A 
ENDBRANCH  19  21
ENDBRANCH  14  16
ENDBRANCH   9  14
BRANCH  10  15
ATOM     15  C   UNL     1      -6.767 -10.331  11.850  0.00  0.00    +0.138 C 
BRANCH  15   7
ATOM      6  O   UNL     1      -7.880 -11.430  14.257  0.00  0.00    -0.270 OA
ATOM      7  N   UNL     1      -7.568  -9.640  12.814  0.00  0.00    -0.309 N 
ATOM     18  C   UNL     1      -8.069 -10.254  13.960  0.00  0.00    +0.244 C 
ATOM     33  H   UNL     1      -7.835  -8.688  12.585  0.00  0.00    +0.149 HD
BRANCH  18  20
ATOM      1  F   UNL     1     -11.230  -7.048  17.316  0.00  0.00    -0.205 F 
ATOM     20  C   UNL     1      -8.906  -9.406  14.848  0.00  0.00    +0.037 A 
ATOM     22  C   UNL     1      -8.497  -9.152  16.158  0.00  0.00    +0.016 A 
ATOM     23  C   UNL     1     -10.100  -8.863  14.372  0.00  0.00    +0.016 A 
ATOM     26  C   UNL     1      -9.283  -8.357  16.992  0.00  0.00    +0.039 A 
ATOM     27  C   UNL     1     -10.885  -8.066  15.207  0.00  0.00    +0.039 A 
ATOM     30  C   UNL     1     -10.476  -7.814  16.516  0.00  0.00    +0.123 A 
ENDBRANCH  18  20
ENDBRANCH  15   7
ENDBRANCH  10  15
TORSDOF 7
ENDMDL
MODEL 10
REMARK VINA RESULT:      -7.1     20.018     22.669
REMARK  Name = 75366943
REMARK  7 active torsions:
REMARK  status: ('A' for Active; 'I' for Inactive)
REMARK    1  A    between atoms: O_4  and  C_11
REMARK    2  A    between atoms: N_7  and  C_15
REMARK    3  A    between atoms: C_9  and  C_14
REMARK    4  A    between atoms: C_10  and  C_15
REMARK    5  A    between atoms: C_14  and  C_16
REMARK    6  A    between atoms: C_18  and  C_20
REMARK    7  A    between atoms: C_19  and  C_21
REMARK                            x       y       z     vdW  Elec       q    Type
REMARK                         _______ _______ _______ _____ _____    ______ ____
ROOT
ATOM      3  O   UNL     1      -6.906 -11.090  17.300  0.00  0.00    -0.369 OA
ATOM      9  C   UNL     1      -7.651 -12.304  17.178  0.00  0.00    +0.125 C 
ATOM     10  C   UNL     1      -5.943 -11.069  18.362  0.00  0.00    +0.164 C 
ATOM     11  C   UNL     1      -6.594 -11.389  19.712  0.00  0.00    +0.145 C 
ATOM     12  C   UNL     1      -8.413 -12.601  18.468  0.00  0.00    +0.034 C 
ATOM     13  C   UNL     1      -7.458 -12.646  19.658  0.00  0.00    +0.036 C 
ENDROOT
BRANCH  11   4
ATOM      4  O   UNL     1      -7.437 -10.297  20.089  0.00  0.00    -0.389 OA
ATOM     32  H   UNL     1      -8.343 -10.641  20.175  0.00  0.00    +0.210 HD
ENDBRANCH  11   4
BRANCH   9  14
ATOM     14  C   UNL     1      -8.611 -12.138  16.007  0.00  0.00    +0.090 C 
BRANCH  14  16
ATOM      5  O   UNL     1      -7.587  -9.547  13.720  0.00  0.00    -0.354 OA
ATOM      8  N   UNL     1      -8.292 -10.001  14.827  0.00  0.00    -0.083 NA
ATOM     16  C   UNL     1      -8.011 -11.305  14.906  0.00  0.00    +0.087 A 
ATOM     17  C   UNL     1      -7.141 -11.727  13.886  0.00  0.00    +0.076 A 
ATOM     19  C   UNL     1      -6.904 -10.584  13.167  0.00  0.00    +0.167 A 
BRANCH  19  21
ATOM      2  F   UNL     1      -3.872  -9.352   8.669  0.00  0.00    -0.205 F 
ATOM     21  C   UNL     1      -6.122 -10.267  12.008  0.00  0.00    +0.020 A 
ATOM     24  C   UNL     1      -5.584  -8.988  11.859  0.00  0.00    +0.014 A 
ATOM     25  C   UNL     1      -5.900 -11.235  11.030  0.00  0.00    +0.014 A 
ATOM     28  C   UNL     1      -4.824  -8.679  10.731  0.00  0.00    +0.039 A 
ATOM     29  C   UNL     1      -5.140 -10.927   9.902  0.00  0.00    +0.039 A 
ATOM     31  C   UNL     1      -4.602  -9.648   9.753  0.00  0.00    +0.123 A 
ENDBRANCH  19  21
ENDBRANCH  14  16
ENDBRANCH   9  14
BRANCH  10  15
ATOM     15  C   UNL     1      -4.754 -11.973  18.043  0.00  0.00    +0.138 C 
BRANCH  15   7
ATOM      6  O   UNL     1      -4.576 -13.621  15.699  0.00  0.00    -0.270 OA
ATOM      7  N   UNL     1      -4.159 -11.616  16.791  0.00  0.00    -0.309 N 
ATOM     18  C   UNL     1      -4.116 -12.482  15.700  0.00  0.00    +0.244 C 
ATOM     33  H   UNL     1      -3.683 -10.720  16.752  0.00  0.00    +0.149 HD
BRANCH  18  20
ATOM      1  F   UNL     1      -1.562 -10.548  11.089  0.00  0.00    -0.205 F 
ATOM     20  C   UNL     1      -3.439 -11.970  14.480  0.00  0.00    +0.037 A 
ATOM     22  C   UNL     1      -3.315 -12.788  13.357  0.00  0.00    +0.016 A 
ATOM     23  C   UNL     1      -2.929 -10.672  14.458  0.00  0.00    +0.016 A 
ATOM     26  C   UNL     1      -2.680 -12.308  12.211  0.00  0.00    +0.039 A 
ATOM     27  C   UNL     1      -2.295 -10.192  13.312  0.00  0.00    +0.039 A 
ATOM     30  C   UNL     1      -2.170 -11.011  12.189  0.00  0.00    +0.123 A 
ENDBRANCH  18  20
ENDBRANCH  15   7
ENDBRANCH  10  15
TORSDOF 7
ENDMDL
