MODEL 1
REMARK VINA RESULT:      -7.6      0.000      0.000
REMARK  Name = 11943018
REMARK  4 active torsions:
REMARK  status: ('A' for Active; 'I' for Inactive)
REMARK    1  A    between atoms: N_4  and  C_11
REMARK    2  A    between atoms: N_5  and  C_12
REMARK    3  A    between atoms: N_8  and  C_25
REMARK    4  A    between atoms: C_15  and  C_21
REMARK                            x       y       z     vdW  Elec       q    Type
REMARK                         _______ _______ _______ _____ _____    ______ ____
ROOT
ATOM      1  O   UNL     1     -16.355   3.359  22.879  0.00  0.00    -0.370 OA
ATOM      2  O   UNL     1     -16.618   5.974  24.561  0.00  0.00    -0.370 OA
ATOM      9  C   UNL     1     -15.526   5.366  23.852  0.00  0.00    +0.171 C 
ATOM     10  C   UNL     1     -15.655   3.866  24.028  0.00  0.00    +0.171 C 
ATOM     11  C   UNL     1     -15.683   5.579  22.365  0.00  0.00    +0.130 C 
ATOM     12  C   UNL     1     -16.503   3.713  25.270  0.00  0.00    +0.131 C 
ATOM     13  C   UNL     1     -16.593   4.435  21.959  0.00  0.00    +0.185 C 
ATOM     14  C   UNL     1     -17.380   4.951  25.220  0.00  0.00    +0.185 C 
ENDROOT
BRANCH  11   4
ATOM      4  N   UNL     1     -14.399   5.453  21.709  0.00  0.00    -0.306 N 
ATOM      6  N   UNL     1     -14.014   7.767  21.778  0.00  0.00    -0.219 NA
ATOM      7  N   UNL     1     -12.396   6.272  20.802  0.00  0.00    -0.223 NA
ATOM     20  C   UNL     1     -13.579   6.530  21.421  0.00  0.00    +0.216 A 
ATOM     21  C   UNL     1     -13.189   8.793  21.482  0.00  0.00    +0.049 A 
ATOM     23  C   UNL     1     -11.969   8.640  20.857  0.00  0.00    +0.043 A 
ATOM     24  C   UNL     1     -11.620   7.343  20.536  0.00  0.00    +0.116 A 
ATOM     31  H   UNL     1     -14.041   4.532  21.486  0.00  0.00    +0.149 HD
BRANCH  21  15
ATOM     15  C   UNL     1     -13.660  10.182  21.874  0.00  0.00    +0.038 C 
ATOM     16  C   UNL     1     -14.390  10.179  23.222  0.00  0.00    +0.010 C 
ATOM     17  C   UNL     1     -12.578  11.250  22.090  0.00  0.00    +0.010 C 
ATOM     18  C   UNL     1     -13.280  10.340  24.251  0.00  0.00    +0.001 C 
ATOM     19  C   UNL     1     -12.239  11.232  23.582  0.00  0.00    +0.001 C 
ENDBRANCH  21  15
ENDBRANCH  11   4
BRANCH  12   5
ATOM      3  O   UNL     1     -16.977   2.190  27.649  0.00  0.00    -0.252 OA
ATOM      5  N   UNL     1     -15.688   3.696  26.460  0.00  0.00    -0.292 N 
ATOM      8  N   UNL     1     -15.026   3.108  28.580  0.00  0.00    -0.269 N 
ATOM     22  C   UNL     1     -15.991   2.921  27.586  0.00  0.00    +0.304 C 
ATOM     32  H   UNL     1     -14.819   4.222  26.458  0.00  0.00    +0.151 HD
ATOM     33  H   UNL     1     -14.270   3.753  28.365  0.00  0.00    +0.156 HD
BRANCH   8  25
ATOM     25  C   UNL     1     -14.971   2.508  29.860  0.00  0.00    +0.035 A 
ATOM     26  C   UNL     1     -15.278   3.266  30.977  0.00  0.00    +0.023 A 
ATOM     27  C   UNL     1     -14.613   1.173  29.969  0.00  0.00    +0.023 A 
ATOM     28  C   UNL     1     -15.224   2.675  32.240  0.00  0.00    +0.002 A 
ATOM     29  C   UNL     1     -14.559   0.583  31.231  0.00  0.00    +0.002 A 
ATOM     30  C   UNL     1     -14.865   1.333  32.366  0.00  0.00    +0.000 A 
ENDBRANCH   8  25
ENDBRANCH  12   5
TORSDOF 4
ENDMDL
MODEL 2
REMARK VINA RESULT:      -7.0     32.851     35.939
REMARK  Name = 11943018
REMARK  4 active torsions:
REMARK  status: ('A' for Active; 'I' for Inactive)
REMARK    1  A    between atoms: N_4  and  C_11
REMARK    2  A    between atoms: N_5  and  C_12
REMARK    3  A    between atoms: N_8  and  C_25
REMARK    4  A    between atoms: C_15  and  C_21
REMARK                            x       y       z     vdW  Elec       q    Type
REMARK                         _______ _______ _______ _____ _____    ______ ____
ROOT
ATOM      1  O   UNL     1      21.943   7.295  20.551  0.00  0.00    -0.370 OA
ATOM      2  O   UNL     1      20.313   6.074  22.915  0.00  0.00    -0.370 OA
ATOM      9  C   UNL     1      20.948   5.503  21.759  0.00  0.00    +0.171 C 
ATOM     10  C   UNL     1      20.761   6.480  20.615  0.00  0.00    +0.171 C 
ATOM     11  C   UNL     1      22.444   5.448  21.957  0.00  0.00    +0.130 C 
ATOM     12  C   UNL     1      19.570   7.311  21.031  0.00  0.00    +0.131 C 
ATOM     13  C   UNL     1      22.889   6.833  21.527  0.00  0.00    +0.185 C 
ATOM     14  C   UNL     1      19.687   7.312  22.545  0.00  0.00    +0.185 C 
ENDROOT
BRANCH  11   4
ATOM      4  N   UNL     1      23.021   4.445  21.088  0.00  0.00    -0.306 N 
ATOM      6  N   UNL     1      23.527   3.022  22.886  0.00  0.00    -0.219 NA
ATOM      7  N   UNL     1      24.064   2.395  20.621  0.00  0.00    -0.223 NA
ATOM     20  C   UNL     1      23.554   3.252  21.546  0.00  0.00    +0.216 A 
ATOM     21  C   UNL     1      24.054   1.850  23.296  0.00  0.00    +0.049 A 
ATOM     23  C   UNL     1      24.596   0.912  22.441  0.00  0.00    +0.043 A 
ATOM     24  C   UNL     1      24.575   1.242  21.101  0.00  0.00    +0.116 A 
ATOM     31  H   UNL     1      22.999   4.582  20.085  0.00  0.00    +0.149 HD
BRANCH  21  15
ATOM     15  C   UNL     1      24.033   1.577  24.789  0.00  0.00    +0.038 C 
ATOM     16  C   UNL     1      22.680   1.933  25.415  0.00  0.00    +0.010 C 
ATOM     17  C   UNL     1      24.229   0.121  25.235  0.00  0.00    +0.010 C 
ATOM     18  C   UNL     1      21.844   0.672  25.243  0.00  0.00    +0.001 C 
ATOM     19  C   UNL     1      22.830  -0.484  25.373  0.00  0.00    +0.001 C 
ENDBRANCH  21  15
ENDBRANCH  11   4
BRANCH  12   5
ATOM      3  O   UNL     1      17.115   8.662  20.434  0.00  0.00    -0.252 OA
ATOM      5  N   UNL     1      18.333   6.704  20.603  0.00  0.00    -0.292 N 
ATOM      8  N   UNL     1      16.137   6.585  19.937  0.00  0.00    -0.269 N 
ATOM     22  C   UNL     1      17.173   7.438  20.330  0.00  0.00    +0.304 C 
ATOM     32  H   UNL     1      18.322   5.703  20.429  0.00  0.00    +0.151 HD
ATOM     33  H   UNL     1      16.354   5.592  19.905  0.00  0.00    +0.156 HD
BRANCH   8  25
ATOM     25  C   UNL     1      14.815   6.934  19.578  0.00  0.00    +0.035 A 
ATOM     26  C   UNL     1      13.795   6.769  20.500  0.00  0.00    +0.023 A 
ATOM     27  C   UNL     1      14.566   7.435  18.309  0.00  0.00    +0.023 A 
ATOM     28  C   UNL     1      12.491   7.114  20.146  0.00  0.00    +0.002 A 
ATOM     29  C   UNL     1      13.262   7.779  17.956  0.00  0.00    +0.002 A 
ATOM     30  C   UNL     1      12.225   7.618  18.874  0.00  0.00    +0.000 A 
ENDBRANCH   8  25
ENDBRANCH  12   5
TORSDOF 4
ENDMDL
MODEL 3
REMARK VINA RESULT:      -6.9     18.560     20.794
REMARK  Name = 11943018
REMARK  4 active torsions:
REMARK  status: ('A' for Active; 'I' for Inactive)
REMARK    1  A    between atoms: N_4  and  C_11
REMARK    2  A    between atoms: N_5  and  C_12
REMARK    3  A    between atoms: N_8  and  C_25
REMARK    4  A    between atoms: C_15  and  C_21
REMARK                            x       y       z     vdW  Elec       q    Type
REMARK                         _______ _______ _______ _____ _____    ______ ____
ROOT
ATOM      1  O   UNL     1      -5.525 -11.616  19.368  0.00  0.00    -0.370 OA
ATOM      2  O   UNL     1      -7.040 -11.819  16.647  0.00  0.00    -0.370 OA
ATOM      9  C   UNL     1      -5.862 -11.111  17.067  0.00  0.00    +0.171 C 
ATOM     10  C   UNL     1      -6.103 -10.638  18.487  0.00  0.00    +0.171 C 
ATOM     11  C   UNL     1      -4.695 -12.062  17.188  0.00  0.00    +0.130 C 
ATOM     12  C   UNL     1      -7.608 -10.632  18.622  0.00  0.00    +0.131 C 
ATOM     13  C   UNL     1      -4.865 -12.623  18.587  0.00  0.00    +0.185 C 
ATOM     14  C   UNL     1      -8.023 -11.759  17.693  0.00  0.00    +0.185 C 
ENDROOT
BRANCH  11   4
ATOM      4  N   UNL     1      -3.449 -11.332  17.091  0.00  0.00    -0.306 N 
ATOM      6  N   UNL     1      -3.502 -11.339  14.744  0.00  0.00    -0.219 NA
ATOM      7  N   UNL     1      -1.691 -10.289  15.938  0.00  0.00    -0.223 NA
ATOM     20  C   UNL     1      -2.863 -10.977  15.888  0.00  0.00    +0.216 A 
ATOM     21  C   UNL     1      -2.902 -10.976  13.591  0.00  0.00    +0.049 A 
ATOM     23  C   UNL     1      -1.714 -10.278  13.532  0.00  0.00    +0.043 A 
ATOM     24  C   UNL     1      -1.147  -9.958  14.749  0.00  0.00    +0.116 A 
ATOM     31  H   UNL     1      -2.993 -11.010  17.936  0.00  0.00    +0.149 HD
BRANCH  21  15
ATOM     15  C   UNL     1      -3.601 -11.374  12.303  0.00  0.00    +0.038 C 
ATOM     16  C   UNL     1      -5.071 -10.938  12.294  0.00  0.00    +0.010 C 
ATOM     17  C   UNL     1      -3.068 -10.760  11.001  0.00  0.00    +0.010 C 
ATOM     18  C   UNL     1      -5.036  -9.514  11.754  0.00  0.00    +0.001 C 
ATOM     19  C   UNL     1      -3.891  -9.495  10.747  0.00  0.00    +0.001 C 
ENDBRANCH  21  15
ENDBRANCH  11   4
BRANCH  12   5
ATOM      3  O   UNL     1     -10.049 -10.240  17.175  0.00  0.00    -0.252 OA
ATOM      5  N   UNL     1      -8.166  -9.371  18.198  0.00  0.00    -0.292 N 
ATOM      8  N   UNL     1      -9.658  -7.925  17.217  0.00  0.00    -0.269 N 
ATOM     22  C   UNL     1      -9.370  -9.265  17.490  0.00  0.00    +0.304 C 
ATOM     32  H   UNL     1      -7.697  -8.516  18.480  0.00  0.00    +0.151 HD
ATOM     33  H   UNL     1      -8.986  -7.238  17.550  0.00  0.00    +0.156 HD
BRANCH   8  25
ATOM     25  C   UNL     1     -10.776  -7.401  16.527  0.00  0.00    +0.035 A 
ATOM     26  C   UNL     1     -12.026  -7.957  16.740  0.00  0.00    +0.023 A 
ATOM     27  C   UNL     1     -10.597  -6.339  15.654  0.00  0.00    +0.023 A 
ATOM     28  C   UNL     1     -13.129  -7.440  16.061  0.00  0.00    +0.002 A 
ATOM     29  C   UNL     1     -11.700  -5.823  14.975  0.00  0.00    +0.002 A 
ATOM     30  C   UNL     1     -12.965  -6.372  15.178  0.00  0.00    +0.000 A 
ENDBRANCH   8  25
ENDBRANCH  12   5
TORSDOF 4
ENDMDL
MODEL 4
REMARK VINA RESULT:      -6.9     23.028     26.309
REMARK  Name = 11943018
REMARK  4 active torsions:
REMARK  status: ('A' for Active; 'I' for Inactive)
REMARK    1  A    between atoms: N_4  and  C_11
REMARK    2  A    between atoms: N_5  and  C_12
REMARK    3  A    between atoms: N_8  and  C_25
REMARK    4  A    between atoms: C_15  and  C_21
REMARK                            x       y       z     vdW  Elec       q    Type
REMARK                         _______ _______ _______ _____ _____    ______ ____
ROOT
ATOM      1  O   UNL     1      -4.643  -8.853  10.109  0.00  0.00    -0.370 OA
ATOM      2  O   UNL     1      -5.960 -11.681  10.185  0.00  0.00    -0.370 OA
ATOM      9  C   UNL     1      -4.642 -11.200  10.498  0.00  0.00    +0.171 C 
ATOM     10  C   UNL     1      -4.312 -10.110   9.497  0.00  0.00    +0.171 C 
ATOM     11  C   UNL     1      -4.645 -10.490  11.830  0.00  0.00    +0.130 C 
ATOM     12  C   UNL     1      -5.234 -10.388   8.332  0.00  0.00    +0.131 C 
ATOM     13  C   UNL     1      -5.078  -9.085  11.457  0.00  0.00    +0.185 C 
ATOM     14  C   UNL     1      -6.443 -11.004   9.014  0.00  0.00    +0.185 C 
ENDROOT
BRANCH  11   4
ATOM      4  N   UNL     1      -3.309 -10.471  12.384  0.00  0.00    -0.306 N 
ATOM      6  N   UNL     1      -4.102 -10.646  14.587  0.00  0.00    -0.219 NA
ATOM      7  N   UNL     1      -1.739 -10.522  14.128  0.00  0.00    -0.223 NA
ATOM     20  C   UNL     1      -3.043 -10.548  13.740  0.00  0.00    +0.216 A 
ATOM     21  C   UNL     1      -3.805 -10.720  15.901  0.00  0.00    +0.049 A 
ATOM     23  C   UNL     1      -2.518 -10.701  16.398  0.00  0.00    +0.043 A 
ATOM     24  C   UNL     1      -1.515 -10.599  15.456  0.00  0.00    +0.116 A 
ATOM     31  H   UNL     1      -2.511 -10.452  11.761  0.00  0.00    +0.149 HD
BRANCH  21  15
ATOM     15  C   UNL     1      -4.977 -10.829  16.860  0.00  0.00    +0.038 C 
ATOM     16  C   UNL     1      -5.900 -12.000  16.503  0.00  0.00    +0.010 C 
ATOM     17  C   UNL     1      -4.649 -11.108  18.333  0.00  0.00    +0.010 C 
ATOM     18  C   UNL     1      -5.288 -13.194  17.223  0.00  0.00    +0.001 C 
ATOM     19  C   UNL     1      -4.702 -12.627  18.512  0.00  0.00    +0.001 C 
ENDBRANCH  21  15
ENDBRANCH  11   4
BRANCH  12   5
ATOM      3  O   UNL     1      -5.656 -10.474   5.500  0.00  0.00    -0.252 OA
ATOM      5  N   UNL     1      -4.634 -11.310   7.399  0.00  0.00    -0.292 N 
ATOM      8  N   UNL     1      -4.174 -12.291   5.373  0.00  0.00    -0.269 N 
ATOM     22  C   UNL     1      -4.894 -11.285   6.023  0.00  0.00    +0.304 C 
ATOM     32  H   UNL     1      -3.941 -11.966   7.745  0.00  0.00    +0.151 HD
ATOM     33  H   UNL     1      -3.587 -12.881   5.958  0.00  0.00    +0.156 HD
BRANCH   8  25
ATOM     25  C   UNL     1      -4.161 -12.596   3.992  0.00  0.00    +0.035 A 
ATOM     26  C   UNL     1      -5.357 -12.859   3.345  0.00  0.00    +0.023 A 
ATOM     27  C   UNL     1      -2.952 -12.621   3.314  0.00  0.00    +0.023 A 
ATOM     28  C   UNL     1      -5.345 -13.159   1.982  0.00  0.00    +0.002 A 
ATOM     29  C   UNL     1      -2.941 -12.922   1.952  0.00  0.00    +0.002 A 
ATOM     30  C   UNL     1      -4.137 -13.190   1.286  0.00  0.00    +0.000 A 
ENDBRANCH   8  25
ENDBRANCH  12   5
TORSDOF 4
ENDMDL
MODEL 5
REMARK VINA RESULT:      -6.9     28.078     31.134
REMARK  Name = 11943018
REMARK  4 active torsions:
REMARK  status: ('A' for Active; 'I' for Inactive)
REMARK    1  A    between atoms: N_4  and  C_11
REMARK    2  A    between atoms: N_5  and  C_12
REMARK    3  A    between atoms: N_8  and  C_25
REMARK    4  A    between atoms: C_15  and  C_21
REMARK                            x       y       z     vdW  Elec       q    Type
REMARK                         _______ _______ _______ _____ _____    ______ ____
ROOT
ATOM      1  O   UNL     1      14.034   8.249  18.285  0.00  0.00    -0.370 OA
ATOM      2  O   UNL     1      14.038   7.717  21.360  0.00  0.00    -0.370 OA
ATOM      9  C   UNL     1      14.283   8.888  20.563  0.00  0.00    +0.171 C 
ATOM     10  C   UNL     1      15.018   8.438  19.316  0.00  0.00    +0.171 C 
ATOM     11  C   UNL     1      12.982   9.450  20.043  0.00  0.00    +0.130 C 
ATOM     12  C   UNL     1      15.630   7.113  19.708  0.00  0.00    +0.131 C 
ATOM     13  C   UNL     1      12.745   8.635  18.786  0.00  0.00    +0.185 C 
ATOM     14  C   UNL     1      14.630   6.578  20.718  0.00  0.00    +0.185 C 
ENDROOT
BRANCH  11   4
ATOM      4  N   UNL     1      13.145  10.848  19.709  0.00  0.00    -0.306 N 
ATOM      6  N   UNL     1      11.874  11.550  21.554  0.00  0.00    -0.219 NA
ATOM      7  N   UNL     1      12.832  13.152  20.028  0.00  0.00    -0.223 NA
ATOM     20  C   UNL     1      12.600  11.881  20.452  0.00  0.00    +0.216 A 
ATOM     21  C   UNL     1      11.359  12.582  22.254  0.00  0.00    +0.049 A 
ATOM     23  C   UNL     1      11.535  13.906  21.910  0.00  0.00    +0.043 A 
ATOM     24  C   UNL     1      12.287  14.135  20.776  0.00  0.00    +0.116 A 
ATOM     31  H   UNL     1      13.727  11.108  18.922  0.00  0.00    +0.149 HD
BRANCH  21  15
ATOM     15  C   UNL     1      10.545  12.230  23.487  0.00  0.00    +0.038 C 
ATOM     16  C   UNL     1      11.302  11.275  24.417  0.00  0.00    +0.010 C 
ATOM     17  C   UNL     1      10.176  13.383  24.431  0.00  0.00    +0.010 C 
ATOM     18  C   UNL     1      12.127  12.192  25.308  0.00  0.00    +0.001 C 
ATOM     19  C   UNL     1      11.273  13.442  25.497  0.00  0.00    +0.001 C 
ENDBRANCH  21  15
ENDBRANCH  11   4
BRANCH  12   5
ATOM      3  O   UNL     1      17.985   5.566  19.189  0.00  0.00    -0.252 OA
ATOM      5  N   UNL     1      16.930   7.295  20.306  0.00  0.00    -0.292 N 
ATOM      8  N   UNL     1      19.155   6.901  20.726  0.00  0.00    -0.269 N 
ATOM     22  C   UNL     1      18.036   6.492  19.997  0.00  0.00    +0.304 C 
ATOM     32  H   UNL     1      17.068   8.082  20.932  0.00  0.00    +0.151 HD
ATOM     33  H   UNL     1      19.024   7.689  21.356  0.00  0.00    +0.156 HD
BRANCH   8  25
ATOM     25  C   UNL     1      20.458   6.352  20.700  0.00  0.00    +0.035 A 
ATOM     26  C   UNL     1      20.621   4.988  20.876  0.00  0.00    +0.023 A 
ATOM     27  C   UNL     1      21.543   7.189  20.495  0.00  0.00    +0.023 A 
ATOM     28  C   UNL     1      21.906   4.445  20.848  0.00  0.00    +0.002 A 
ATOM     29  C   UNL     1      22.827   6.645  20.469  0.00  0.00    +0.002 A 
ATOM     30  C   UNL     1      23.009   5.274  20.645  0.00  0.00    +0.000 A 
ENDBRANCH   8  25
ENDBRANCH  12   5
TORSDOF 4
ENDMDL
MODEL 6
REMARK VINA RESULT:      -6.8     31.585     34.359
REMARK  Name = 11943018
REMARK  4 active torsions:
REMARK  status: ('A' for Active; 'I' for Inactive)
REMARK    1  A    between atoms: N_4  and  C_11
REMARK    2  A    between atoms: N_5  and  C_12
REMARK    3  A    between atoms: N_8  and  C_25
REMARK    4  A    between atoms: C_15  and  C_21
REMARK                            x       y       z     vdW  Elec       q    Type
REMARK                         _______ _______ _______ _____ _____    ______ ____
ROOT
ATOM      1  O   UNL     1      19.884   8.526  22.671  0.00  0.00    -0.370 OA
ATOM      2  O   UNL     1      19.819   6.776  20.089  0.00  0.00    -0.370 OA
ATOM      9  C   UNL     1      18.956   6.873  21.234  0.00  0.00    +0.171 C 
ATOM     10  C   UNL     1      19.838   7.108  22.444  0.00  0.00    +0.171 C 
ATOM     11  C   UNL     1      18.108   8.119  21.147  0.00  0.00    +0.130 C 
ATOM     12  C   UNL     1      21.195   6.601  22.014  0.00  0.00    +0.131 C 
ATOM     13  C   UNL     1      19.017   9.183  21.733  0.00  0.00    +0.185 C 
ATOM     14  C   UNL     1      21.185   6.871  20.520  0.00  0.00    +0.185 C 
ENDROOT
BRANCH  11   4
ATOM      4  N   UNL     1      16.923   7.970  21.964  0.00  0.00    -0.306 N 
ATOM      6  N   UNL     1      15.507   7.914  20.092  0.00  0.00    -0.219 NA
ATOM      7  N   UNL     1      14.617   7.729  22.324  0.00  0.00    -0.223 NA
ATOM     20  C   UNL     1      15.644   7.869  21.444  0.00  0.00    +0.216 A 
ATOM     21  C   UNL     1      14.247   7.812  19.621  0.00  0.00    +0.049 A 
ATOM     23  C   UNL     1      13.136   7.667  20.427  0.00  0.00    +0.043 A 
ATOM     24  C   UNL     1      13.383   7.633  21.785  0.00  0.00    +0.116 A 
ATOM     31  H   UNL     1      17.018   7.882  22.968  0.00  0.00    +0.149 HD
BRANCH  21  15
ATOM     15  C   UNL     1      14.076   7.861  18.113  0.00  0.00    +0.038 C 
ATOM     16  C   UNL     1      12.647   7.504  17.689  0.00  0.00    +0.010 C 
ATOM     17  C   UNL     1      14.293   9.218  17.430  0.00  0.00    +0.010 C 
ATOM     18  C   UNL     1      11.897   8.828  17.747  0.00  0.00    +0.001 C 
ATOM     19  C   UNL     1      12.918   9.886  17.342  0.00  0.00    +0.001 C 
ENDBRANCH  21  15
ENDBRANCH  11   4
BRANCH  12   5
ATOM      3  O   UNL     1      23.632   5.095  22.019  0.00  0.00    -0.252 OA
ATOM      5  N   UNL     1      21.338   5.192  22.289  0.00  0.00    -0.292 N 
ATOM      8  N   UNL     1      22.400   3.175  22.576  0.00  0.00    -0.269 N 
ATOM     22  C   UNL     1      22.571   4.528  22.271  0.00  0.00    +0.304 C 
ATOM     32  H   UNL     1      20.515   4.669  22.573  0.00  0.00    +0.151 HD
ATOM     33  H   UNL     1      21.449   2.866  22.759  0.00  0.00    +0.156 HD
BRANCH   8  25
ATOM     25  C   UNL     1      23.394   2.172  22.659  0.00  0.00    +0.035 A 
ATOM     26  C   UNL     1      24.041   1.761  21.506  0.00  0.00    +0.023 A 
ATOM     27  C   UNL     1      23.701   1.623  23.895  0.00  0.00    +0.023 A 
ATOM     28  C   UNL     1      25.022   0.772  21.589  0.00  0.00    +0.002 A 
ATOM     29  C   UNL     1      24.681   0.634  23.976  0.00  0.00    +0.002 A 
ATOM     30  C   UNL     1      25.342   0.209  22.824  0.00  0.00    +0.000 A 
ENDBRANCH   8  25
ENDBRANCH  12   5
TORSDOF 4
ENDMDL
MODEL 7
REMARK VINA RESULT:      -6.7     41.540     43.730
REMARK  Name = 11943018
REMARK  4 active torsions:
REMARK  status: ('A' for Active; 'I' for Inactive)
REMARK    1  A    between atoms: N_4  and  C_11
REMARK    2  A    between atoms: N_5  and  C_12
REMARK    3  A    between atoms: N_8  and  C_25
REMARK    4  A    between atoms: C_15  and  C_21
REMARK                            x       y       z     vdW  Elec       q    Type
REMARK                         _______ _______ _______ _____ _____    ______ ____
ROOT
ATOM      1  O   UNL     1      21.063  -7.980  -0.839  0.00  0.00    -0.370 OA
ATOM      2  O   UNL     1      18.964  -9.026  -2.896  0.00  0.00    -0.370 OA
ATOM      9  C   UNL     1      19.027  -7.856  -2.063  0.00  0.00    +0.171 C 
ATOM     10  C   UNL     1      19.660  -8.274  -0.750  0.00  0.00    +0.171 C 
ATOM     11  C   UNL     1      19.999  -6.854  -2.639  0.00  0.00    +0.130 C 
ATOM     12  C   UNL     1      19.437  -9.767  -0.693  0.00  0.00    +0.131 C 
ATOM     13  C   UNL     1      21.331  -7.327  -2.089  0.00  0.00    +0.185 C 
ATOM     14  C   UNL     1      19.457 -10.156  -2.161  0.00  0.00    +0.185 C 
ENDROOT
BRANCH  11   4
ATOM      4  N   UNL     1      19.696  -5.529  -2.143  0.00  0.00    -0.306 N 
ATOM      6  N   UNL     1      17.666  -5.435  -3.318  0.00  0.00    -0.219 NA
ATOM      7  N   UNL     1      18.384  -3.594  -1.938  0.00  0.00    -0.223 NA
ATOM     20  C   UNL     1      18.548  -4.832  -2.477  0.00  0.00    +0.216 A 
ATOM     21  C   UNL     1      16.558  -4.726  -3.621  0.00  0.00    +0.049 A 
ATOM     23  C   UNL     1      16.297  -3.464  -3.129  0.00  0.00    +0.043 A 
ATOM     24  C   UNL     1      17.255  -2.941  -2.284  0.00  0.00    +0.116 A 
ATOM     31  H   UNL     1      20.319  -5.092  -1.475  0.00  0.00    +0.149 HD
BRANCH  21  15
ATOM     15  C   UNL     1      15.562  -5.385  -4.559  0.00  0.00    +0.038 C 
ATOM     16  C   UNL     1      15.756  -6.904  -4.622  0.00  0.00    +0.010 C 
ATOM     17  C   UNL     1      14.076  -5.257  -4.200  0.00  0.00    +0.010 C 
ATOM     18  C   UNL     1      14.916  -7.437  -3.469  0.00  0.00    +0.001 C 
ATOM     19  C   UNL     1      13.718  -6.497  -3.377  0.00  0.00    +0.001 C 
ENDBRANCH  21  15
ENDBRANCH  11   4
BRANCH  12   5
ATOM      3  O   UNL     1      19.002 -11.449   1.585  0.00  0.00    -0.252 OA
ATOM      5  N   UNL     1      18.168 -10.084  -0.085  0.00  0.00    -0.292 N 
ATOM      8  N   UNL     1      16.697 -11.042   1.398  0.00  0.00    -0.269 N 
ATOM     22  C   UNL     1      18.040 -10.919   1.033  0.00  0.00    +0.304 C 
ATOM     32  H   UNL     1      17.334  -9.630  -0.444  0.00  0.00    +0.151 HD
ATOM     33  H   UNL     1      16.023 -10.535   0.829  0.00  0.00    +0.156 HD
BRANCH   8  25
ATOM     25  C   UNL     1      16.153 -11.791   2.467  0.00  0.00    +0.035 A 
ATOM     26  C   UNL     1      16.199 -11.273   3.750  0.00  0.00    +0.023 A 
ATOM     27  C   UNL     1      15.583 -13.028   2.208  0.00  0.00    +0.023 A 
ATOM     28  C   UNL     1      15.662 -12.011   4.805  0.00  0.00    +0.002 A 
ATOM     29  C   UNL     1      15.047 -13.765   3.263  0.00  0.00    +0.002 A 
ATOM     30  C   UNL     1      15.086 -13.257   4.561  0.00  0.00    +0.000 A 
ENDBRANCH   8  25
ENDBRANCH  12   5
TORSDOF 4
ENDMDL
MODEL 8
REMARK VINA RESULT:      -6.6     32.365     33.919
REMARK  Name = 11943018
REMARK  4 active torsions:
REMARK  status: ('A' for Active; 'I' for Inactive)
REMARK    1  A    between atoms: N_4  and  C_11
REMARK    2  A    between atoms: N_5  and  C_12
REMARK    3  A    between atoms: N_8  and  C_25
REMARK    4  A    between atoms: C_15  and  C_21
REMARK                            x       y       z     vdW  Elec       q    Type
REMARK                         _______ _______ _______ _____ _____    ______ ____
ROOT
ATOM      1  O   UNL     1      19.143  -2.713  31.550  0.00  0.00    -0.370 OA
ATOM      2  O   UNL     1      16.448  -2.644  29.979  0.00  0.00    -0.370 OA
ATOM      9  C   UNL     1      17.740  -2.062  29.742  0.00  0.00    +0.171 C 
ATOM     10  C   UNL     1      18.299  -1.645  31.088  0.00  0.00    +0.171 C 
ATOM     11  C   UNL     1      18.706  -3.113  29.250  0.00  0.00    +0.130 C 
ATOM     12  C   UNL     1      17.079  -1.519  31.971  0.00  0.00    +0.131 C 
ATOM     13  C   UNL     1      19.213  -3.730  30.540  0.00  0.00    +0.185 C 
ATOM     14  C   UNL     1      16.141  -2.557  31.379  0.00  0.00    +0.185 C 
ENDROOT
BRANCH  11   4
ATOM      4  N   UNL     1      19.796  -2.486  28.534  0.00  0.00    -0.306 N 
ATOM      6  N   UNL     1      18.473  -2.104  26.633  0.00  0.00    -0.219 NA
ATOM      7  N   UNL     1      20.784  -1.422  26.690  0.00  0.00    -0.223 NA
ATOM     20  C   UNL     1      19.681  -1.990  27.247  0.00  0.00    +0.216 A 
ATOM     21  C   UNL     1      18.397  -1.609  25.380  0.00  0.00    +0.049 A 
ATOM     23  C   UNL     1      19.456  -1.015  24.725  0.00  0.00    +0.043 A 
ATOM     24  C   UNL     1      20.637  -0.949  25.435  0.00  0.00    +0.116 A 
ATOM     31  H   UNL     1      20.685  -2.348  29.000  0.00  0.00    +0.149 HD
BRANCH  21  15
ATOM     15  C   UNL     1      17.055  -1.729  24.680  0.00  0.00    +0.038 C 
ATOM     16  C   UNL     1      17.141  -1.314  23.207  0.00  0.00    +0.010 C 
ATOM     17  C   UNL     1      16.437  -3.131  24.591  0.00  0.00    +0.010 C 
ATOM     18  C   UNL     1      17.555  -2.587  22.482  0.00  0.00    +0.001 C 
ATOM     19  C   UNL     1      16.889  -3.722  23.254  0.00  0.00    +0.001 C 
ENDBRANCH  21  15
ENDBRANCH  11   4
BRANCH  12   5
ATOM      3  O   UNL     1      18.311   0.926  32.812  0.00  0.00    -0.252 OA
ATOM      5  N   UNL     1      16.511  -0.196  31.892  0.00  0.00    -0.292 N 
ATOM      8  N   UNL     1      16.389   2.087  32.126  0.00  0.00    -0.269 N 
ATOM     22  C   UNL     1      17.182   0.954  32.327  0.00  0.00    +0.304 C 
ATOM     32  H   UNL     1      15.608  -0.084  31.441  0.00  0.00    +0.151 HD
ATOM     33  H   UNL     1      15.473   1.933  31.712  0.00  0.00    +0.156 HD
BRANCH   8  25
ATOM     25  C   UNL     1      16.703   3.432  32.431  0.00  0.00    +0.035 A 
ATOM     26  C   UNL     1      16.849   4.344  31.399  0.00  0.00    +0.023 A 
ATOM     27  C   UNL     1      16.856   3.810  33.756  0.00  0.00    +0.023 A 
ATOM     28  C   UNL     1      17.158   5.671  31.699  0.00  0.00    +0.002 A 
ATOM     29  C   UNL     1      17.165   5.136  34.055  0.00  0.00    +0.002 A 
ATOM     30  C   UNL     1      17.316   6.066  33.027  0.00  0.00    +0.000 A 
ENDBRANCH   8  25
ENDBRANCH  12   5
TORSDOF 4
ENDMDL
MODEL 9
REMARK VINA RESULT:      -6.6     20.305     23.802
REMARK  Name = 11943018
REMARK  4 active torsions:
REMARK  status: ('A' for Active; 'I' for Inactive)
REMARK    1  A    between atoms: N_4  and  C_11
REMARK    2  A    between atoms: N_5  and  C_12
REMARK    3  A    between atoms: N_8  and  C_25
REMARK    4  A    between atoms: C_15  and  C_21
REMARK                            x       y       z     vdW  Elec       q    Type
REMARK                         _______ _______ _______ _____ _____    ______ ____
ROOT
ATOM      1  O   UNL     1      -6.213 -11.349  10.862  0.00  0.00    -0.370 OA
ATOM      2  O   UNL     1      -4.463  -8.766  10.863  0.00  0.00    -0.370 OA
ATOM      9  C   UNL     1      -5.813  -9.040  11.273  0.00  0.00    +0.171 C 
ATOM     10  C   UNL     1      -6.387 -10.042  10.291  0.00  0.00    +0.171 C 
ATOM     11  C   UNL     1      -5.821  -9.772  12.594  0.00  0.00    +0.130 C 
ATOM     12  C   UNL     1      -5.523  -9.887   9.060  0.00  0.00    +0.131 C 
ATOM     13  C   UNL     1      -5.646 -11.219  12.175  0.00  0.00    +0.185 C 
ATOM     14  C   UNL     1      -4.184  -9.484   9.652  0.00  0.00    +0.185 C 
ENDROOT
BRANCH  11   4
ATOM      4  N   UNL     1      -7.098  -9.593  13.251  0.00  0.00    -0.306 N 
ATOM      6  N   UNL     1      -6.171  -9.923  15.382  0.00  0.00    -0.219 NA
ATOM      7  N   UNL     1      -8.524  -9.477  15.112  0.00  0.00    -0.223 NA
ATOM     20  C   UNL     1      -7.269  -9.668  14.623  0.00  0.00    +0.216 A 
ATOM     21  C   UNL     1      -6.374  -9.988  16.714  0.00  0.00    +0.049 A 
ATOM     23  C   UNL     1      -7.606  -9.811  17.311  0.00  0.00    +0.043 A 
ATOM     24  C   UNL     1      -8.655  -9.556  16.452  0.00  0.00    +0.116 A 
ATOM     31  H   UNL     1      -7.912  -9.350  12.700  0.00  0.00    +0.149 HD
BRANCH  21  15
ATOM     15  C   UNL     1      -5.158 -10.274  17.578  0.00  0.00    +0.038 C 
ATOM     16  C   UNL     1      -5.553 -10.746  18.982  0.00  0.00    +0.010 C 
ATOM     17  C   UNL     1      -4.217 -11.392  17.108  0.00  0.00    +0.010 C 
ATOM     18  C   UNL     1      -5.719 -12.252  18.839  0.00  0.00    +0.001 C 
ATOM     19  C   UNL     1      -4.681 -12.674  17.803  0.00  0.00    +0.001 C 
ENDBRANCH  21  15
ENDBRANCH  11   4
BRANCH  12   5
ATOM      3  O   UNL     1      -7.590 -10.188   7.100  0.00  0.00    -0.252 OA
ATOM      5  N   UNL     1      -6.038  -8.862   8.186  0.00  0.00    -0.292 N 
ATOM      8  N   UNL     1      -7.345  -7.918   6.549  0.00  0.00    -0.269 N 
ATOM     22  C   UNL     1      -7.055  -9.092   7.250  0.00  0.00    +0.304 C 
ATOM     32  H   UNL     1      -5.693  -7.913   8.298  0.00  0.00    +0.151 HD
ATOM     33  H   UNL     1      -6.805  -7.094   6.798  0.00  0.00    +0.156 HD
BRANCH   8  25
ATOM     25  C   UNL     1      -8.305  -7.734   5.526  0.00  0.00    +0.035 A 
ATOM     26  C   UNL     1      -9.553  -7.230   5.851  0.00  0.00    +0.023 A 
ATOM     27  C   UNL     1      -7.975  -8.058   4.219  0.00  0.00    +0.023 A 
ATOM     28  C   UNL     1     -10.500  -7.047   4.843  0.00  0.00    +0.002 A 
ATOM     29  C   UNL     1      -8.922  -7.875   3.212  0.00  0.00    +0.002 A 
ATOM     30  C   UNL     1     -10.183  -7.369   3.524  0.00  0.00    +0.000 A 
ENDBRANCH   8  25
ENDBRANCH  12   5
TORSDOF 4
ENDMDL
MODEL 10
REMARK VINA RESULT:      -6.5     41.977     44.543
REMARK  Name = 11943018
REMARK  4 active torsions:
REMARK  status: ('A' for Active; 'I' for Inactive)
REMARK    1  A    between atoms: N_4  and  C_11
REMARK    2  A    between atoms: N_5  and  C_12
REMARK    3  A    between atoms: N_8  and  C_25
REMARK    4  A    between atoms: C_15  and  C_21
REMARK                            x       y       z     vdW  Elec       q    Type
REMARK                         _______ _______ _______ _____ _____    ______ ____
ROOT
ATOM      1  O   UNL     1      21.516  -9.748   0.197  0.00  0.00    -0.370 OA
ATOM      2  O   UNL     1      19.713  -8.951   2.616  0.00  0.00    -0.370 OA
ATOM      9  C   UNL     1      19.447  -9.599   1.361  0.00  0.00    +0.171 C 
ATOM     10  C   UNL     1      20.332  -8.944   0.319  0.00  0.00    +0.171 C 
ATOM     11  C   UNL     1      19.921 -11.032   1.400  0.00  0.00    +0.130 C 
ATOM     12  C   UNL     1      20.669  -7.597   0.918  0.00  0.00    +0.131 C 
ATOM     13  C   UNL     1      21.388 -10.908   1.033  0.00  0.00    +0.185 C 
ATOM     14  C   UNL     1      20.659  -7.892   2.407  0.00  0.00    +0.185 C 
ENDROOT
BRANCH  11   4
ATOM      4  N   UNL     1      19.221 -11.813   0.403  0.00  0.00    -0.306 N 
ATOM      6  N   UNL     1      17.365 -12.138   1.803  0.00  0.00    -0.219 NA
ATOM      7  N   UNL     1      17.417 -13.068  -0.420  0.00  0.00    -0.223 NA
ATOM     20  C   UNL     1      17.964 -12.356   0.602  0.00  0.00    +0.216 A 
ATOM     21  C   UNL     1      16.141 -12.682   1.962  0.00  0.00    +0.049 A 
ATOM     23  C   UNL     1      15.498 -13.421   0.989  0.00  0.00    +0.043 A 
ATOM     24  C   UNL     1      16.191 -13.584  -0.193  0.00  0.00    +0.116 A 
ATOM     31  H   UNL     1      19.634 -11.937  -0.514  0.00  0.00    +0.149 HD
BRANCH  21  15
ATOM     15  C   UNL     1      15.458 -12.448   3.298  0.00  0.00    +0.038 C 
ATOM     16  C   UNL     1      14.853 -13.739   3.863  0.00  0.00    +0.010 C 
ATOM     17  C   UNL     1      16.340 -11.963   4.456  0.00  0.00    +0.010 C 
ATOM     18  C   UNL     1      15.996 -14.380   4.638  0.00  0.00    +0.001 C 
ATOM     19  C   UNL     1      16.798 -13.215   5.209  0.00  0.00    +0.001 C 
ENDBRANCH  21  15
ENDBRANCH  11   4
BRANCH  12   5
ATOM      3  O   UNL     1      20.499  -6.120  -1.531  0.00  0.00    -0.252 OA
ATOM      5  N   UNL     1      19.676  -6.609   0.574  0.00  0.00    -0.292 N 
ATOM      8  N   UNL     1      18.589  -5.036  -0.701  0.00  0.00    -0.269 N 
ATOM     22  C   UNL     1      19.664  -5.929  -0.650  0.00  0.00    +0.304 C 
ATOM     32  H   UNL     1      18.913  -6.445   1.223  0.00  0.00    +0.151 HD
ATOM     33  H   UNL     1      17.989  -5.000   0.120  0.00  0.00    +0.156 HD
BRANCH   8  25
ATOM     25  C   UNL     1      18.230  -4.168  -1.758  0.00  0.00    +0.035 A 
ATOM     26  C   UNL     1      17.193  -4.524  -2.605  0.00  0.00    +0.023 A 
ATOM     27  C   UNL     1      18.922  -2.979  -1.925  0.00  0.00    +0.023 A 
ATOM     28  C   UNL     1      16.838  -3.669  -3.648  0.00  0.00    +0.002 A 
ATOM     29  C   UNL     1      18.567  -2.124  -2.968  0.00  0.00    +0.002 A 
ATOM     30  C   UNL     1      17.525  -2.469  -3.829  0.00  0.00    +0.000 A 
ENDBRANCH   8  25
ENDBRANCH  12   5
TORSDOF 4
ENDMDL
