MODEL 1
REMARK VINA RESULT:      -6.8      0.000      0.000
REMARK  Name = 28961532
REMARK  7 active torsions:
REMARK  status: ('A' for Active; 'I' for Inactive)
REMARK    1  A    between atoms: O_4  and  C_11
REMARK    2  A    between atoms: O_5  and  C_18
REMARK    3  A    between atoms: N_7  and  C_9
REMARK    4  A    between atoms: N_8  and  C_17
REMARK    5  A    between atoms: C_10  and  C_17
REMARK    6  A    between atoms: C_12  and  C_18
REMARK    7  A    between atoms: C_19  and  C_20
REMARK                            x       y       z     vdW  Elec       q    Type
REMARK                         _______ _______ _______ _____ _____    ______ ____
ROOT
ATOM      3  O   UNL     1      12.296   8.794  19.521  0.00  0.00    -0.365 OA
ATOM      9  C   UNL     1      11.352  10.052  21.309  0.00  0.00    +0.118 C 
ATOM     10  C   UNL     1      12.244  10.133  20.062  0.00  0.00    +0.155 C 
ATOM     11  C   UNL     1      11.502   8.602  21.743  0.00  0.00    +0.165 C 
ATOM     12  C   UNL     1      11.563   7.907  20.387  0.00  0.00    +0.174 C 
ENDROOT
BRANCH   9   7
ATOM      7  N   UNL     1      11.607  11.039  22.346  0.00  0.00    -0.295 NA
ATOM     13  C   UNL     1      10.870  10.758  23.578  0.00  0.00    +0.085 C 
ATOM     14  C   UNL     1      11.187  12.385  21.952  0.00  0.00    +0.085 C 
ATOM     15  C   UNL     1      10.969  12.070  24.343  0.00  0.00    +0.017 C 
ATOM     16  C   UNL     1      11.173  13.139  23.274  0.00  0.00    +0.017 C 
ENDBRANCH   9   7
BRANCH  11   4
ATOM      4  O   UNL     1      12.712   8.395  22.460  0.00  0.00    -0.388 OA
ATOM     26  H   UNL     1      13.046   7.513  22.224  0.00  0.00    +0.210 HD
ENDBRANCH  11   4
BRANCH  10  17
ATOM     17  C   UNL     1      13.682  10.590  20.279  0.00  0.00    +0.137 C 
BRANCH  17   8
ATOM      6  O   UNL     1      15.466   9.403  22.191  0.00  0.00    -0.270 OA
ATOM      8  N   UNL     1      14.605   9.520  20.039  0.00  0.00    -0.309 N 
ATOM     19  C   UNL     1      15.437   9.003  21.029  0.00  0.00    +0.244 C 
ATOM     27  H   UNL     1      14.681   9.193  19.083  0.00  0.00    +0.149 HD
BRANCH  19  20
ATOM      1 CL   UNL     1      19.898   6.448  21.750  0.00  0.00    -0.081 Cl
ATOM      2  F   UNL     1      18.899   4.876  19.444  0.00  0.00    -0.204 F 
ATOM     20  C   UNL     1      16.356   7.913  20.613  0.00  0.00    +0.038 A 
ATOM     21  C   UNL     1      17.556   7.714  21.295  0.00  0.00    +0.036 A 
ATOM     22  C   UNL     1      16.018   7.089  19.540  0.00  0.00    +0.016 A 
ATOM     23  C   UNL     1      18.419   6.690  20.904  0.00  0.00    +0.077 A 
ATOM     24  C   UNL     1      16.881   6.065  19.148  0.00  0.00    +0.040 A 
ATOM     25  C   UNL     1      18.081   5.865  19.831  0.00  0.00    +0.142 A 
ENDBRANCH  19  20
ENDBRANCH  17   8
ENDBRANCH  10  17
BRANCH  12  18
ATOM     18  C   UNL     1      12.225   6.542  20.382  0.00  0.00    +0.190 C 
BRANCH  18   5
ATOM      5  O   UNL     1      11.817   5.831  21.540  0.00  0.00    -0.392 OA
ATOM     28  H   UNL     1      10.898   6.091  21.726  0.00  0.00    +0.210 HD
ENDBRANCH  18   5
ENDBRANCH  12  18
TORSDOF 7
ENDMDL
MODEL 2
REMARK VINA RESULT:      -6.6      4.050      7.291
REMARK  Name = 28961532
REMARK  7 active torsions:
REMARK  status: ('A' for Active; 'I' for Inactive)
REMARK    1  A    between atoms: O_4  and  C_11
REMARK    2  A    between atoms: O_5  and  C_18
REMARK    3  A    between atoms: N_7  and  C_9
REMARK    4  A    between atoms: N_8  and  C_17
REMARK    5  A    between atoms: C_10  and  C_17
REMARK    6  A    between atoms: C_12  and  C_18
REMARK    7  A    between atoms: C_19  and  C_20
REMARK                            x       y       z     vdW  Elec       q    Type
REMARK                         _______ _______ _______ _____ _____    ______ ____
ROOT
ATOM      3  O   UNL     1      12.370   7.921  21.628  0.00  0.00    -0.365 OA
ATOM      9  C   UNL     1      14.277   6.896  20.637  0.00  0.00    +0.118 C 
ATOM     10  C   UNL     1      13.758   7.618  21.888  0.00  0.00    +0.155 C 
ATOM     11  C   UNL     1      13.361   7.414  19.539  0.00  0.00    +0.165 C 
ATOM     12  C   UNL     1      12.037   7.498  20.292  0.00  0.00    +0.174 C 
ENDROOT
BRANCH   9   7
ATOM      7  N   UNL     1      15.701   7.019  20.367  0.00  0.00    -0.295 NA
ATOM     13  C   UNL     1      16.113   6.261  19.186  0.00  0.00    +0.085 C 
ATOM     14  C   UNL     1      16.524   6.498  21.459  0.00  0.00    +0.085 C 
ATOM     15  C   UNL     1      17.627   6.213  19.323  0.00  0.00    +0.017 C 
ATOM     16  C   UNL     1      17.897   6.364  20.817  0.00  0.00    +0.017 C 
ENDBRANCH   9   7
BRANCH  11   4
ATOM      4  O   UNL     1      13.759   8.704  19.093  0.00  0.00    -0.388 OA
ATOM     26  H   UNL     1      14.712   8.792  19.261  0.00  0.00    +0.210 HD
ENDBRANCH  11   4
BRANCH  10  17
ATOM     17  C   UNL     1      14.446   8.929  22.255  0.00  0.00    +0.137 C 
BRANCH  17   8
ATOM      6  O   UNL     1      13.613  11.127  20.605  0.00  0.00    -0.270 OA
ATOM      8  N   UNL     1      13.487   9.938  22.593  0.00  0.00    -0.309 N 
ATOM     19  C   UNL     1      13.141  10.973  21.728  0.00  0.00    +0.244 C 
ATOM     27  H   UNL     1      13.112   9.909  23.535  0.00  0.00    +0.149 HD
BRANCH  19  20
ATOM      1 CL   UNL     1      10.588  12.999  25.769  0.00  0.00    -0.081 Cl
ATOM      2  F   UNL     1       9.390  14.686  23.647  0.00  0.00    -0.204 F 
ATOM     20  C   UNL     1      12.149  11.954  22.240  0.00  0.00    +0.038 A 
ATOM     21  C   UNL     1      11.865  12.011  23.605  0.00  0.00    +0.036 A 
ATOM     22  C   UNL     1      11.502  12.817  21.356  0.00  0.00    +0.016 A 
ATOM     23  C   UNL     1      10.933  12.932  24.084  0.00  0.00    +0.077 A 
ATOM     24  C   UNL     1      10.571  13.738  21.836  0.00  0.00    +0.040 A 
ATOM     25  C   UNL     1      10.286  13.795  23.201  0.00  0.00    +0.142 A 
ENDBRANCH  19  20
ENDBRANCH  17   8
ENDBRANCH  10  17
BRANCH  12  18
ATOM     18  C   UNL     1      11.012   8.449  19.706  0.00  0.00    +0.190 C 
BRANCH  18   5
ATOM      5  O   UNL     1      10.972   8.270  18.299  0.00  0.00    -0.392 OA
ATOM     28  H   UNL     1      10.268   7.626  18.113  0.00  0.00    +0.210 HD
ENDBRANCH  18   5
ENDBRANCH  12  18
TORSDOF 7
ENDMDL
MODEL 3
REMARK VINA RESULT:      -6.1     30.750     31.953
REMARK  Name = 28961532
REMARK  7 active torsions:
REMARK  status: ('A' for Active; 'I' for Inactive)
REMARK    1  A    between atoms: O_4  and  C_11
REMARK    2  A    between atoms: O_5  and  C_18
REMARK    3  A    between atoms: N_7  and  C_9
REMARK    4  A    between atoms: N_8  and  C_17
REMARK    5  A    between atoms: C_10  and  C_17
REMARK    6  A    between atoms: C_12  and  C_18
REMARK    7  A    between atoms: C_19  and  C_20
REMARK                            x       y       z     vdW  Elec       q    Type
REMARK                         _______ _______ _______ _____ _____    ______ ____
ROOT
ATOM      3  O   UNL     1     -15.596   0.414  29.356  0.00  0.00    -0.365 OA
ATOM      9  C   UNL     1     -15.118   2.111  30.956  0.00  0.00    +0.118 C 
ATOM     10  C   UNL     1     -15.976   1.755  29.735  0.00  0.00    +0.155 C 
ATOM     11  C   UNL     1     -13.889   1.232  30.779  0.00  0.00    +0.165 C 
ATOM     12  C   UNL     1     -14.527  -0.033  30.213  0.00  0.00    +0.174 C 
ENDROOT
BRANCH   9   7
ATOM      7  N   UNL     1     -14.844   3.525  31.161  0.00  0.00    -0.295 NA
ATOM     13  C   UNL     1     -13.882   3.757  32.237  0.00  0.00    +0.085 C 
ATOM     14  C   UNL     1     -16.039   4.275  31.551  0.00  0.00    +0.085 C 
ATOM     15  C   UNL     1     -14.046   5.242  32.526  0.00  0.00    +0.017 C 
ATOM     16  C   UNL     1     -15.464   5.581  32.079  0.00  0.00    +0.017 C 
ENDBRANCH   9   7
BRANCH  11   4
ATOM      4  O   UNL     1     -12.980   1.790  29.839  0.00  0.00    -0.388 OA
ATOM     26  H   UNL     1     -13.455   2.477  29.342  0.00  0.00    +0.210 HD
ENDBRANCH  11   4
BRANCH  10  17
ATOM     17  C   UNL     1     -15.810   2.638  28.503  0.00  0.00    +0.137 C 
BRANCH  17   8
ATOM      6  O   UNL     1     -15.975   3.764  25.866  0.00  0.00    -0.270 OA
ATOM      8  N   UNL     1     -16.426   2.042  27.355  0.00  0.00    -0.309 N 
ATOM     19  C   UNL     1     -16.461   2.662  26.108  0.00  0.00    +0.244 C 
ATOM     27  H   UNL     1     -16.909   1.163  27.505  0.00  0.00    +0.149 HD
BRANCH  19  20
ATOM      1 CL   UNL     1     -18.455   2.659  21.315  0.00  0.00    -0.081 Cl
ATOM      2  F   UNL     1     -19.109  -0.143  22.027  0.00  0.00    -0.204 F 
ATOM     20  C   UNL     1     -17.162   1.924  25.026  0.00  0.00    +0.038 A 
ATOM     21  C   UNL     1     -17.448   2.561  23.818  0.00  0.00    +0.036 A 
ATOM     22  C   UNL     1     -17.534   0.593  25.217  0.00  0.00    +0.016 A 
ATOM     23  C   UNL     1     -18.106   1.867  22.803  0.00  0.00    +0.077 A 
ATOM     24  C   UNL     1     -18.192  -0.100  24.202  0.00  0.00    +0.040 A 
ATOM     25  C   UNL     1     -18.478   0.537  22.994  0.00  0.00    +0.142 A 
ENDBRANCH  19  20
ENDBRANCH  17   8
ENDBRANCH  10  17
BRANCH  12  18
ATOM     18  C   UNL     1     -13.598  -0.937  29.425  0.00  0.00    +0.190 C 
BRANCH  18   5
ATOM      5  O   UNL     1     -12.379  -1.073  30.138  0.00  0.00    -0.392 OA
ATOM     28  H   UNL     1     -11.848  -1.740  29.670  0.00  0.00    +0.210 HD
ENDBRANCH  18   5
ENDBRANCH  12  18
TORSDOF 7
ENDMDL
MODEL 4
REMARK VINA RESULT:      -6.0     26.414     28.354
REMARK  Name = 28961532
REMARK  7 active torsions:
REMARK  status: ('A' for Active; 'I' for Inactive)
REMARK    1  A    between atoms: O_4  and  C_11
REMARK    2  A    between atoms: O_5  and  C_18
REMARK    3  A    between atoms: N_7  and  C_9
REMARK    4  A    between atoms: N_8  and  C_17
REMARK    5  A    between atoms: C_10  and  C_17
REMARK    6  A    between atoms: C_12  and  C_18
REMARK    7  A    between atoms: C_19  and  C_20
REMARK                            x       y       z     vdW  Elec       q    Type
REMARK                         _______ _______ _______ _____ _____    ______ ____
ROOT
ATOM      3  O   UNL     1      -3.327 -12.425  14.951  0.00  0.00    -0.365 OA
ATOM      9  C   UNL     1      -4.345 -11.975  17.055  0.00  0.00    +0.118 C 
ATOM     10  C   UNL     1      -4.500 -12.739  15.734  0.00  0.00    +0.155 C 
ATOM     11  C   UNL     1      -3.454 -10.804  16.671  0.00  0.00    +0.165 C 
ATOM     12  C   UNL     1      -2.517 -11.478  15.673  0.00  0.00    +0.174 C 
ENDROOT
BRANCH   9   7
ATOM      7  N   UNL     1      -5.577 -11.618  17.740  0.00  0.00    -0.295 NA
ATOM     13  C   UNL     1      -5.350 -10.705  18.860  0.00  0.00    +0.085 C 
ATOM     14  C   UNL     1      -6.247 -12.779  18.328  0.00  0.00    +0.085 C 
ATOM     15  C   UNL     1      -6.656 -10.783  19.636  0.00  0.00    +0.017 C 
ATOM     16  C   UNL     1      -7.244 -12.148  19.289  0.00  0.00    +0.017 C 
ENDBRANCH   9   7
BRANCH  11   4
ATOM      4  O   UNL     1      -4.195  -9.772  16.034  0.00  0.00    -0.388 OA
ATOM     26  H   UNL     1      -5.131  -9.899  16.261  0.00  0.00    +0.210 HD
ENDBRANCH  11   4
BRANCH  10  17
ATOM     17  C   UNL     1      -5.717 -12.394  14.883  0.00  0.00    +0.137 C 
BRANCH  17   8
ATOM      6  O   UNL     1      -6.440  -9.733  14.082  0.00  0.00    -0.270 OA
ATOM      8  N   UNL     1      -5.330 -11.729  13.675  0.00  0.00    -0.309 N 
ATOM     19  C   UNL     1      -5.728 -10.431  13.364  0.00  0.00    +0.244 C 
ATOM     27  H   UNL     1      -4.801 -12.277  13.005  0.00  0.00    +0.149 HD
BRANCH  19  20
ATOM      1 CL   UNL     1      -6.843  -7.959   8.937  0.00  0.00    -0.081 Cl
ATOM      2  F   UNL     1      -3.957  -8.409   8.434  0.00  0.00    -0.204 F 
ATOM     20  C   UNL     1      -5.264  -9.895  12.059  0.00  0.00    +0.038 A 
ATOM     21  C   UNL     1      -6.164  -9.253  11.208  0.00  0.00    +0.036 A 
ATOM     22  C   UNL     1      -3.928 -10.033  11.684  0.00  0.00    +0.016 A 
ATOM     23  C   UNL     1      -5.728  -8.750   9.983  0.00  0.00    +0.077 A 
ATOM     24  C   UNL     1      -3.491  -9.530  10.459  0.00  0.00    +0.040 A 
ATOM     25  C   UNL     1      -4.392  -8.888   9.608  0.00  0.00    +0.142 A 
ENDBRANCH  19  20
ENDBRANCH  17   8
ENDBRANCH  10  17
BRANCH  12  18
ATOM     18  C   UNL     1      -1.834 -10.548  14.688  0.00  0.00    +0.190 C 
BRANCH  18   5
ATOM      5  O   UNL     1      -1.369  -9.403  15.386  0.00  0.00    -0.392 OA
ATOM     28  H   UNL     1      -1.041  -9.709  16.248  0.00  0.00    +0.210 HD
ENDBRANCH  18   5
ENDBRANCH  12  18
TORSDOF 7
ENDMDL
MODEL 5
REMARK VINA RESULT:      -5.9      4.456      8.732
REMARK  Name = 28961532
REMARK  7 active torsions:
REMARK  status: ('A' for Active; 'I' for Inactive)
REMARK    1  A    between atoms: O_4  and  C_11
REMARK    2  A    between atoms: O_5  and  C_18
REMARK    3  A    between atoms: N_7  and  C_9
REMARK    4  A    between atoms: N_8  and  C_17
REMARK    5  A    between atoms: C_10  and  C_17
REMARK    6  A    between atoms: C_12  and  C_18
REMARK    7  A    between atoms: C_19  and  C_20
REMARK                            x       y       z     vdW  Elec       q    Type
REMARK                         _______ _______ _______ _____ _____    ______ ____
ROOT
ATOM      3  O   UNL     1      20.047   7.905  20.830  0.00  0.00    -0.365 OA
ATOM      9  C   UNL     1      21.480   6.252  21.769  0.00  0.00    +0.118 C 
ATOM     10  C   UNL     1      20.564   6.579  20.581  0.00  0.00    +0.155 C 
ATOM     11  C   UNL     1      20.912   7.114  22.886  0.00  0.00    +0.165 C 
ATOM     12  C   UNL     1      20.527   8.367  22.107  0.00  0.00    +0.174 C 
ENDROOT
BRANCH   9   7
ATOM      7  N   UNL     1      21.636   4.842  22.091  0.00  0.00    -0.295 NA
ATOM     13  C   UNL     1      22.377   4.632  23.333  0.00  0.00    +0.085 C 
ATOM     14  C   UNL     1      22.392   4.116  21.070  0.00  0.00    +0.085 C 
ATOM     15  C   UNL     1      22.749   3.158  23.265  0.00  0.00    +0.017 C 
ATOM     16  C   UNL     1      22.762   2.820  21.777  0.00  0.00    +0.017 C 
ENDBRANCH   9   7
BRANCH  11   4
ATOM      4  O   UNL     1      19.760   6.519  23.469  0.00  0.00    -0.388 OA
ATOM     26  H   UNL     1      19.401   5.883  22.828  0.00  0.00    +0.210 HD
ENDBRANCH  11   4
BRANCH  10  17
ATOM     17  C   UNL     1      19.367   5.660  20.367  0.00  0.00    +0.137 C 
BRANCH  17   8
ATOM      6  O   UNL     1      17.021   5.599  18.713  0.00  0.00    -0.270 OA
ATOM      8  N   UNL     1      18.136   6.352  20.603  0.00  0.00    -0.309 N 
ATOM     19  C   UNL     1      17.043   6.266  19.744  0.00  0.00    +0.244 C 
ATOM     27  H   UNL     1      18.113   6.977  21.401  0.00  0.00    +0.149 HD
BRANCH  19  20
ATOM      1 CL   UNL     1      13.296   9.565  18.319  0.00  0.00    -0.081 Cl
ATOM      2  F   UNL     1      12.528   9.286  21.169  0.00  0.00    -0.204 F 
ATOM     20  C   UNL     1      15.849   7.067  20.116  0.00  0.00    +0.038 A 
ATOM     21  C   UNL     1      15.206   7.850  19.157  0.00  0.00    +0.036 A 
ATOM     22  C   UNL     1      15.370   7.036  21.426  0.00  0.00    +0.016 A 
ATOM     23  C   UNL     1      14.085   8.601  19.508  0.00  0.00    +0.077 A 
ATOM     24  C   UNL     1      14.248   7.787  21.776  0.00  0.00    +0.040 A 
ATOM     25  C   UNL     1      13.606   8.571  20.817  0.00  0.00    +0.142 A 
ENDBRANCH  19  20
ENDBRANCH  17   8
ENDBRANCH  10  17
BRANCH  12  18
ATOM     18  C   UNL     1      19.467   9.238  22.755  0.00  0.00    +0.190 C 
BRANCH  18   5
ATOM      5  O   UNL     1      18.186   8.752  22.387  0.00  0.00    -0.392 OA
ATOM     28  H   UNL     1      18.258   8.421  21.475  0.00  0.00    +0.210 HD
ENDBRANCH  18   5
ENDBRANCH  12  18
TORSDOF 7
ENDMDL
MODEL 6
REMARK VINA RESULT:      -5.8     28.149     30.442
REMARK  Name = 28961532
REMARK  7 active torsions:
REMARK  status: ('A' for Active; 'I' for Inactive)
REMARK    1  A    between atoms: O_4  and  C_11
REMARK    2  A    between atoms: O_5  and  C_18
REMARK    3  A    between atoms: N_7  and  C_9
REMARK    4  A    between atoms: N_8  and  C_17
REMARK    5  A    between atoms: C_10  and  C_17
REMARK    6  A    between atoms: C_12  and  C_18
REMARK    7  A    between atoms: C_19  and  C_20
REMARK                            x       y       z     vdW  Elec       q    Type
REMARK                         _______ _______ _______ _____ _____    ______ ____
ROOT
ATOM      3  O   UNL     1     -17.542   3.420  23.954  0.00  0.00    -0.365 OA
ATOM      9  C   UNL     1     -17.242   2.813  26.237  0.00  0.00    +0.118 C 
ATOM     10  C   UNL     1     -16.750   3.742  25.119  0.00  0.00    +0.155 C 
ATOM     11  C   UNL     1     -17.796   1.621  25.471  0.00  0.00    +0.165 C 
ATOM     12  C   UNL     1     -18.420   2.323  24.270  0.00  0.00    +0.174 C 
ENDROOT
BRANCH   9   7
ATOM      7  N   UNL     1     -16.277   2.488  27.275  0.00  0.00    -0.295 NA
ATOM     13  C   UNL     1     -16.734   1.406  28.145  0.00  0.00    +0.085 C 
ATOM     14  C   UNL     1     -16.023   3.615  28.174  0.00  0.00    +0.085 C 
ATOM     15  C   UNL     1     -15.794   1.505  29.337  0.00  0.00    +0.017 C 
ATOM     16  C   UNL     1     -15.330   2.958  29.358  0.00  0.00    +0.017 C 
ENDBRANCH   9   7
BRANCH  11   4
ATOM      4  O   UNL     1     -16.760   0.745  25.049  0.00  0.00    -0.388 OA
ATOM     26  H   UNL     1     -17.170  -0.103  24.808  0.00  0.00    +0.210 HD
ENDBRANCH  11   4
BRANCH  10  17
ATOM     17  C   UNL     1     -15.284   3.614  24.719  0.00  0.00    +0.137 C 
BRANCH  17   8
ATOM      6  O   UNL     1     -15.149   4.309  21.936  0.00  0.00    -0.270 OA
ATOM      8  N   UNL     1     -14.791   4.840  24.166  0.00  0.00    -0.309 N 
ATOM     19  C   UNL     1     -14.762   5.095  22.797  0.00  0.00    +0.244 C 
ATOM     27  H   UNL     1     -14.390   5.503  24.820  0.00  0.00    +0.149 HD
BRANCH  19  20
ATOM      1 CL   UNL     1     -11.224   7.729  20.059  0.00  0.00    -0.081 Cl
ATOM      2  F   UNL     1     -12.632  10.053  21.244  0.00  0.00    -0.204 F 
ATOM     20  C   UNL     1     -14.195   6.404  22.384  0.00  0.00    +0.038 A 
ATOM     21  C   UNL     1     -13.103   6.449  21.517  0.00  0.00    +0.036 A 
ATOM     22  C   UNL     1     -14.755   7.588  22.863  0.00  0.00    +0.016 A 
ATOM     23  C   UNL     1     -12.571   7.679  21.130  0.00  0.00    +0.077 A 
ATOM     24  C   UNL     1     -14.223   8.818  22.476  0.00  0.00    +0.040 A 
ATOM     25  C   UNL     1     -13.131   8.864  21.608  0.00  0.00    +0.142 A 
ENDBRANCH  19  20
ENDBRANCH  17   8
ENDBRANCH  10  17
BRANCH  12  18
ATOM     18  C   UNL     1     -18.609   1.461  23.036  0.00  0.00    +0.190 C 
BRANCH  18   5
ATOM      5  O   UNL     1     -17.381   1.398  22.328  0.00  0.00    -0.392 OA
ATOM     28  H   UNL     1     -16.680   1.248  22.986  0.00  0.00    +0.210 HD
ENDBRANCH  18   5
ENDBRANCH  12  18
TORSDOF 7
ENDMDL
MODEL 7
REMARK VINA RESULT:      -5.7     26.609     28.418
REMARK  Name = 28961532
REMARK  7 active torsions:
REMARK  status: ('A' for Active; 'I' for Inactive)
REMARK    1  A    between atoms: O_4  and  C_11
REMARK    2  A    between atoms: O_5  and  C_18
REMARK    3  A    between atoms: N_7  and  C_9
REMARK    4  A    between atoms: N_8  and  C_17
REMARK    5  A    between atoms: C_10  and  C_17
REMARK    6  A    between atoms: C_12  and  C_18
REMARK    7  A    between atoms: C_19  and  C_20
REMARK                            x       y       z     vdW  Elec       q    Type
REMARK                         _______ _______ _______ _____ _____    ______ ____
ROOT
ATOM      3  O   UNL     1      -2.074 -12.787  13.671  0.00  0.00    -0.365 OA
ATOM      9  C   UNL     1      -3.282 -11.828  11.857  0.00  0.00    +0.118 C 
ATOM     10  C   UNL     1      -2.081 -11.638  12.794  0.00  0.00    +0.155 C 
ATOM     11  C   UNL     1      -4.220 -12.701  12.676  0.00  0.00    +0.165 C 
ATOM     12  C   UNL     1      -3.218 -13.611  13.377  0.00  0.00    +0.174 C 
ENDROOT
BRANCH   9   7
ATOM      7  N   UNL     1      -3.876 -10.613  11.320  0.00  0.00    -0.295 NA
ATOM     13  C   UNL     1      -5.029 -10.887  10.463  0.00  0.00    +0.085 C 
ATOM     14  C   UNL     1      -2.945  -9.863  10.475  0.00  0.00    +0.085 C 
ATOM     15  C   UNL     1      -5.230  -9.570   9.729  0.00  0.00    +0.017 C 
ATOM     16  C   UNL     1      -3.860  -8.899   9.734  0.00  0.00    +0.017 C 
ENDBRANCH   9   7
BRANCH  11   4
ATOM      4  O   UNL     1      -4.945 -11.936  13.630  0.00  0.00    -0.388 OA
ATOM     26  H   UNL     1      -5.800 -12.376  13.772  0.00  0.00    +0.210 HD
ENDBRANCH  11   4
BRANCH  10  17
ATOM     17  C   UNL     1      -2.092 -10.395  13.677  0.00  0.00    +0.137 C 
BRANCH  17   8
ATOM      6  O   UNL     1      -1.669 -10.710  16.499  0.00  0.00    -0.270 OA
ATOM      8  N   UNL     1      -3.102 -10.490  14.688  0.00  0.00    -0.309 N 
ATOM     19  C   UNL     1      -2.806 -10.642  16.041  0.00  0.00    +0.244 C 
ATOM     27  H   UNL     1      -4.064 -10.512  14.368  0.00  0.00    +0.149 HD
BRANCH  19  20
ATOM      1 CL   UNL     1      -7.674  -9.272  17.214  0.00  0.00    -0.081 Cl
ATOM      2  F   UNL     1      -7.191 -11.067  19.524  0.00  0.00    -0.204 F 
ATOM     20  C   UNL     1      -3.968 -10.752  16.959  0.00  0.00    +0.038 A 
ATOM     21  C   UNL     1      -5.140 -10.044  16.690  0.00  0.00    +0.036 A 
ATOM     22  C   UNL     1      -3.888 -11.561  18.092  0.00  0.00    +0.016 A 
ATOM     23  C   UNL     1      -6.231 -10.147  17.553  0.00  0.00    +0.077 A 
ATOM     24  C   UNL     1      -4.978 -11.664  18.955  0.00  0.00    +0.040 A 
ATOM     25  C   UNL     1      -6.151 -10.956  18.686  0.00  0.00    +0.142 A 
ENDBRANCH  19  20
ENDBRANCH  17   8
ENDBRANCH  10  17
BRANCH  12  18
ATOM     18  C   UNL     1      -3.709 -14.261  14.657  0.00  0.00    +0.190 C 
BRANCH  18   5
ATOM      5  O   UNL     1      -2.716 -15.160  15.125  0.00  0.00    -0.392 OA
ATOM     28  H   UNL     1      -2.765 -15.157  16.096  0.00  0.00    +0.210 HD
ENDBRANCH  18   5
ENDBRANCH  12  18
TORSDOF 7
ENDMDL
MODEL 8
REMARK VINA RESULT:      -5.6     27.848     29.000
REMARK  Name = 28961532
REMARK  7 active torsions:
REMARK  status: ('A' for Active; 'I' for Inactive)
REMARK    1  A    between atoms: O_4  and  C_11
REMARK    2  A    between atoms: O_5  and  C_18
REMARK    3  A    between atoms: N_7  and  C_9
REMARK    4  A    between atoms: N_8  and  C_17
REMARK    5  A    between atoms: C_10  and  C_17
REMARK    6  A    between atoms: C_12  and  C_18
REMARK    7  A    between atoms: C_19  and  C_20
REMARK                            x       y       z     vdW  Elec       q    Type
REMARK                         _______ _______ _______ _____ _____    ______ ____
ROOT
ATOM      3  O   UNL     1      -5.968 -11.643  17.419  0.00  0.00    -0.365 OA
ATOM      9  C   UNL     1      -8.114 -11.404  18.421  0.00  0.00    +0.118 C 
ATOM     10  C   UNL     1      -7.297 -11.147  17.147  0.00  0.00    +0.155 C 
ATOM     11  C   UNL     1      -7.053 -11.419  19.511  0.00  0.00    +0.165 C 
ATOM     12  C   UNL     1      -5.908 -12.112  18.780  0.00  0.00    +0.174 C 
ENDROOT
BRANCH   9   7
ATOM      7  N   UNL     1      -9.235 -10.507  18.658  0.00  0.00    -0.295 NA
ATOM     13  C   UNL     1      -9.926 -10.798  19.914  0.00  0.00    +0.085 C 
ATOM     14  C   UNL     1     -10.265 -10.614  17.624  0.00  0.00    +0.085 C 
ATOM     15  C   UNL     1     -11.236 -10.039  19.766  0.00  0.00    +0.017 C 
ATOM     16  C   UNL     1     -11.461  -9.921  18.261  0.00  0.00    +0.017 C 
ENDBRANCH   9   7
BRANCH  11   4
ATOM      4  O   UNL     1      -6.675 -10.102  19.888  0.00  0.00    -0.388 OA
ATOM     26  H   UNL     1      -7.460  -9.535  19.807  0.00  0.00    +0.210 HD
ENDBRANCH  11   4
BRANCH  10  17
ATOM     17  C   UNL     1      -7.157  -9.694  16.707  0.00  0.00    +0.137 C 
BRANCH  17   8
ATOM      6  O   UNL     1      -7.981 -10.318  14.028  0.00  0.00    -0.270 OA
ATOM      8  N   UNL     1      -6.361  -9.588  15.521  0.00  0.00    -0.309 N 
ATOM     19  C   UNL     1      -6.843  -9.914  14.256  0.00  0.00    +0.244 C 
ATOM     27  H   UNL     1      -5.389  -9.328  15.649  0.00  0.00    +0.149 HD
BRANCH  19  20
ATOM      1 CL   UNL     1      -2.290 -11.215  12.128  0.00  0.00    -0.081 Cl
ATOM      2  F   UNL     1      -3.224  -9.381   9.995  0.00  0.00    -0.204 F 
ATOM     20  C   UNL     1      -5.883  -9.776  13.131  0.00  0.00    +0.038 A 
ATOM     21  C   UNL     1      -4.677 -10.477  13.152  0.00  0.00    +0.036 A 
ATOM     22  C   UNL     1      -6.187  -8.945  12.053  0.00  0.00    +0.016 A 
ATOM     23  C   UNL     1      -3.776 -10.347  12.096  0.00  0.00    +0.077 A 
ATOM     24  C   UNL     1      -5.286  -8.814  10.996  0.00  0.00    +0.040 A 
ATOM     25  C   UNL     1      -4.079  -9.516  11.018  0.00  0.00    +0.142 A 
ENDBRANCH  19  20
ENDBRANCH  17   8
ENDBRANCH  10  17
BRANCH  12  18
ATOM     18  C   UNL     1      -4.523 -11.851  19.340  0.00  0.00    +0.190 C 
BRANCH  18   5
ATOM      5  O   UNL     1      -3.678 -12.938  18.998  0.00  0.00    -0.392 OA
ATOM     28  H   UNL     1      -4.221 -13.579  18.508  0.00  0.00    +0.210 HD
ENDBRANCH  18   5
ENDBRANCH  12  18
TORSDOF 7
ENDMDL
MODEL 9
REMARK VINA RESULT:      -5.6      1.982      3.803
REMARK  Name = 28961532
REMARK  7 active torsions:
REMARK  status: ('A' for Active; 'I' for Inactive)
REMARK    1  A    between atoms: O_4  and  C_11
REMARK    2  A    between atoms: O_5  and  C_18
REMARK    3  A    between atoms: N_7  and  C_9
REMARK    4  A    between atoms: N_8  and  C_17
REMARK    5  A    between atoms: C_10  and  C_17
REMARK    6  A    between atoms: C_12  and  C_18
REMARK    7  A    between atoms: C_19  and  C_20
REMARK                            x       y       z     vdW  Elec       q    Type
REMARK                         _______ _______ _______ _____ _____    ______ ____
ROOT
ATOM      3  O   UNL     1      12.866  11.445  23.839  0.00  0.00    -0.365 OA
ATOM      9  C   UNL     1      12.192   9.773  22.285  0.00  0.00    +0.118 C 
ATOM     10  C   UNL     1      13.373  10.308  23.106  0.00  0.00    +0.155 C 
ATOM     11  C   UNL     1      11.311  11.000  22.111  0.00  0.00    +0.165 C 
ATOM     12  C   UNL     1      11.493  11.672  23.468  0.00  0.00    +0.174 C 
ENDROOT
BRANCH   9   7
ATOM      7  N   UNL     1      12.528   9.071  21.056  0.00  0.00    -0.295 NA
ATOM     13  C   UNL     1      11.435   9.090  20.085  0.00  0.00    +0.085 C 
ATOM     14  C   UNL     1      12.811   7.653  21.281  0.00  0.00    +0.085 C 
ATOM     15  C   UNL     1      11.841   8.011  19.092  0.00  0.00    +0.017 C 
ATOM     16  C   UNL     1      12.742   7.065  19.879  0.00  0.00    +0.017 C 
ENDBRANCH   9   7
BRANCH  11   4
ATOM      4  O   UNL     1      11.792  11.844  21.073  0.00  0.00    -0.388 OA
ATOM     26  H   UNL     1      11.435  12.734  21.227  0.00  0.00    +0.210 HD
ENDBRANCH  11   4
BRANCH  10  17
ATOM     17  C   UNL     1      14.591  10.783  22.321  0.00  0.00    +0.137 C 
BRANCH  17   8
ATOM      6  O   UNL     1      15.580  10.092  19.715  0.00  0.00    -0.270 OA
ATOM      8  N   UNL     1      15.455   9.687  21.996  0.00  0.00    -0.309 N 
ATOM     19  C   UNL     1      15.888   9.424  20.699  0.00  0.00    +0.244 C 
ATOM     27  H   UNL     1      15.688   9.054  22.753  0.00  0.00    +0.149 HD
BRANCH  19  20
ATOM      1 CL   UNL     1      20.204   6.859  22.019  0.00  0.00    -0.081 Cl
ATOM      2  F   UNL     1      19.170   4.916  20.032  0.00  0.00    -0.204 F 
ATOM     20  C   UNL     1      16.759   8.234  20.525  0.00  0.00    +0.038 A 
ATOM     21  C   UNL     1      17.936   8.116  21.266  0.00  0.00    +0.036 A 
ATOM     22  C   UNL     1      16.401   7.233  19.622  0.00  0.00    +0.016 A 
ATOM     23  C   UNL     1      18.753   6.998  21.102  0.00  0.00    +0.077 A 
ATOM     24  C   UNL     1      17.218   6.115  19.459  0.00  0.00    +0.040 A 
ATOM     25  C   UNL     1      18.395   5.997  20.199  0.00  0.00    +0.142 A 
ENDBRANCH  19  20
ENDBRANCH  17   8
ENDBRANCH  10  17
BRANCH  12  18
ATOM     18  C   UNL     1      11.205  13.161  23.503  0.00  0.00    +0.190 C 
BRANCH  18   5
ATOM      5  O   UNL     1       9.943  13.398  22.899  0.00  0.00    -0.392 OA
ATOM     28  H   UNL     1       9.760  12.643  22.314  0.00  0.00    +0.210 HD
ENDBRANCH  18   5
ENDBRANCH  12  18
TORSDOF 7
ENDMDL
MODEL 10
REMARK VINA RESULT:      -5.4     27.505     29.176
REMARK  Name = 28961532
REMARK  7 active torsions:
REMARK  status: ('A' for Active; 'I' for Inactive)
REMARK    1  A    between atoms: O_4  and  C_11
REMARK    2  A    between atoms: O_5  and  C_18
REMARK    3  A    between atoms: N_7  and  C_9
REMARK    4  A    between atoms: N_8  and  C_17
REMARK    5  A    between atoms: C_10  and  C_17
REMARK    6  A    between atoms: C_12  and  C_18
REMARK    7  A    between atoms: C_19  and  C_20
REMARK                            x       y       z     vdW  Elec       q    Type
REMARK                         _______ _______ _______ _____ _____    ______ ____
ROOT
ATOM      3  O   UNL     1      -2.411 -13.045  14.646  0.00  0.00    -0.365 OA
ATOM      9  C   UNL     1      -2.813 -12.182  12.464  0.00  0.00    +0.118 C 
ATOM     10  C   UNL     1      -2.237 -11.853  13.848  0.00  0.00    +0.155 C 
ATOM     11  C   UNL     1      -3.833 -13.269  12.767  0.00  0.00    +0.165 C 
ATOM     12  C   UNL     1      -3.109 -14.036  13.868  0.00  0.00    +0.174 C 
ENDROOT
BRANCH   9   7
ATOM      7  N   UNL     1      -3.317 -11.057  11.692  0.00  0.00    -0.295 NA
ATOM     13  C   UNL     1      -3.885 -11.468  10.410  0.00  0.00    +0.085 C 
ATOM     14  C   UNL     1      -2.266 -10.097  11.352  0.00  0.00    +0.085 C 
ATOM     15  C   UNL     1      -3.977 -10.158   9.640  0.00  0.00    +0.017 C 
ATOM     16  C   UNL     1      -2.910  -9.259  10.257  0.00  0.00    +0.017 C 
ENDBRANCH   9   7
BRANCH  11   4
ATOM      4  O   UNL     1      -5.047 -12.721  13.263  0.00  0.00    -0.388 OA
ATOM     26  H   UNL     1      -5.774 -13.081  12.728  0.00  0.00    +0.210 HD
ENDBRANCH  11   4
BRANCH  10  17
ATOM     17  C   UNL     1      -2.892 -10.703  14.604  0.00  0.00    +0.137 C 
BRANCH  17   8
ATOM      6  O   UNL     1      -5.414  -9.632  15.464  0.00  0.00    -0.270 OA
ATOM      8  N   UNL     1      -3.706 -11.188  15.678  0.00  0.00    -0.309 N 
ATOM     19  C   UNL     1      -4.922 -10.606  16.029  0.00  0.00    +0.244 C 
ATOM     27  H   UNL     1      -3.323 -11.947  16.231  0.00  0.00    +0.149 HD
BRANCH  19  20
ATOM      1 CL   UNL     1      -8.247 -14.173  17.810  0.00  0.00    -0.081 Cl
ATOM      2  F   UNL     1      -7.603 -12.889  20.403  0.00  0.00    -0.204 F 
ATOM     20  C   UNL     1      -5.633 -11.212  17.183  0.00  0.00    +0.038 A 
ATOM     21  C   UNL     1      -6.505 -12.283  16.981  0.00  0.00    +0.036 A 
ATOM     22  C   UNL     1      -5.430 -10.712  18.469  0.00  0.00    +0.016 A 
ATOM     23  C   UNL     1      -7.173 -12.852  18.065  0.00  0.00    +0.077 A 
ATOM     24  C   UNL     1      -6.097 -11.281  19.553  0.00  0.00    +0.040 A 
ATOM     25  C   UNL     1      -6.969 -12.351  19.351  0.00  0.00    +0.142 A 
ENDBRANCH  19  20
ENDBRANCH  17   8
ENDBRANCH  10  17
BRANCH  12  18
ATOM     18  C   UNL     1      -3.996 -14.858  14.784  0.00  0.00    +0.190 C 
BRANCH  18   5
ATOM      5  O   UNL     1      -3.919 -14.325  16.096  0.00  0.00    -0.392 OA
ATOM     28  H   UNL     1      -4.728 -14.598  16.563  0.00  0.00    +0.210 HD
ENDBRANCH  18   5
ENDBRANCH  12  18
TORSDOF 7
ENDMDL
