MODEL 1
REMARK VINA RESULT:      -8.5      0.000      0.000
REMARK  Name = 11911512
REMARK  8 active torsions:
REMARK  status: ('A' for Active; 'I' for Inactive)
REMARK    1  A    between atoms: O_5  and  C_32
REMARK    2  A    between atoms: O_5  and  C_37
REMARK    3  A    between atoms: O_6  and  C_36
REMARK    4  A    between atoms: O_6  and  C_38
REMARK    5  A    between atoms: N_8  and  C_14
REMARK    6  A    between atoms: C_22  and  C_28
REMARK    7  A    between atoms: C_24  and  C_30
REMARK    8  A    between atoms: C_27  and  C_31
REMARK                            x       y       z     vdW  Elec       q    Type
REMARK                         _______ _______ _______ _____ _____    ______ ____
ROOT
ATOM      1  O   UNL     1      17.353   5.967  18.958  0.00  0.00    -0.273 OA
ATOM      2  O   UNL     1      20.835   8.389  21.999  0.00  0.00    -0.270 OA
ATOM      7  N   UNL     1      18.724   7.613  21.422  0.00  0.00    -0.286 N 
ATOM      9  N   UNL     1      19.349   5.224  19.791  0.00  0.00    -0.283 N 
ATOM     14  C   UNL     1      15.897   8.119  20.909  0.00  0.00    +0.113 C 
ATOM     15  C   UNL     1      17.832   6.469  21.269  0.00  0.00    +0.164 C 
ATOM     16  C   UNL     1      16.347   6.776  21.499  0.00  0.00    +0.059 C 
ATOM     17  C   UNL     1      16.826   9.235  21.397  0.00  0.00    +0.046 C 
ATOM     18  C   UNL     1      18.260   8.933  20.986  0.00  0.00    +0.111 C 
ATOM     19  C   UNL     1      18.145   5.896  19.899  0.00  0.00    +0.238 C 
ATOM     20  C   UNL     1      20.070   7.455  21.755  0.00  0.00    +0.249 C 
ATOM     21  C   UNL     1      20.650   6.085  21.751  0.00  0.00    +0.059 A 
ATOM     23  C   UNL     1      20.374   5.126  20.760  0.00  0.00    +0.046 A 
ATOM     25  C   UNL     1      21.675   5.845  22.682  0.00  0.00    +0.023 A 
ATOM     26  C   UNL     1      21.177   3.976  20.685  0.00  0.00    +0.024 A 
ATOM     27  C   UNL     1      22.429   4.674  22.623  0.00  0.00    -0.014 A 
ATOM     29  C   UNL     1      22.190   3.746  21.616  0.00  0.00    +0.010 A 
ATOM     39  H   UNL     1      19.462   4.653  18.957  0.00  0.00    +0.155 HD
ENDROOT
BRANCH  27  31
ATOM     31  C   UNL     1      23.476   4.436  23.593  0.00  0.00    +0.024 A 
ATOM     32  C   UNL     1      23.304   3.510  24.623  0.00  0.00    +0.131 A 
ATOM     33  C   UNL     1      24.673   5.147  23.491  0.00  0.00    +0.016 A 
ATOM     34  C   UNL     1      24.326   3.294  25.548  0.00  0.00    +0.091 A 
ATOM     35  C   UNL     1      25.695   4.932  24.415  0.00  0.00    +0.046 A 
ATOM     36  C   UNL     1      25.521   4.006  25.443  0.00  0.00    +0.124 A 
BRANCH  32   5
ATOM      5  O   UNL     1      22.146   2.801  24.749  0.00  0.00    -0.494 OA
ATOM     37  C   UNL     1      22.266   1.399  24.970  0.00  0.00    +0.277 C 
ENDBRANCH  32   5
BRANCH  36   6
ATOM      6  O   UNL     1      26.519   3.796  26.345  0.00  0.00    -0.495 OA
ATOM     38  C   UNL     1      27.016   2.463  26.466  0.00  0.00    +0.277 C 
ENDBRANCH  36   6
ENDBRANCH  27  31
BRANCH  14   8
ATOM      8  N   UNL     1      14.482   8.402  21.178  0.00  0.00    -0.236 N 
ATOM     10  N   UNL     1      14.137   9.134  22.246  0.00  0.00    -0.064 NA
ATOM     11  N   UNL     1      12.812   9.226  22.242  0.00  0.00    -0.124 NA
ATOM     22  C   UNL     1      13.401   8.005  20.462  0.00  0.00    +0.156 A 
ATOM     24  C   UNL     1      12.345   8.539  21.156  0.00  0.00    +0.179 A 
BRANCH  22  28
ATOM      3  O   UNL     1      14.266   7.354  18.359  0.00  0.00    -0.269 OA
ATOM     12  N   UNL     1      12.451   6.214  19.136  0.00  0.00    -0.324 N 
ATOM     28  C   UNL     1      13.420   7.215  19.273  0.00  0.00    +0.262 C 
ATOM     40  H   UNL     1      11.747   6.046  19.847  0.00  0.00    +0.145 HD
ATOM     41  H   UNL     1      12.428   5.621  18.313  0.00  0.00    +0.145 HD
ENDBRANCH  22  28
BRANCH  24  30
ATOM      4  O   UNL     1      10.499   8.490  19.681  0.00  0.00    -0.269 OA
ATOM     13  N   UNL     1      10.062   8.224  21.902  0.00  0.00    -0.324 N 
ATOM     30  C   UNL     1      10.954   8.431  20.845  0.00  0.00    +0.264 C 
ATOM     42  H   UNL     1      10.376   8.159  22.866  0.00  0.00    +0.145 HD
ATOM     43  H   UNL     1       9.066   8.133  21.733  0.00  0.00    +0.145 HD
ENDBRANCH  24  30
ENDBRANCH  14   8
TORSDOF 6
ENDMDL
MODEL 2
REMARK VINA RESULT:      -7.4     15.364     20.489
REMARK  Name = 11911512
REMARK  8 active torsions:
REMARK  status: ('A' for Active; 'I' for Inactive)
REMARK    1  A    between atoms: O_5  and  C_32
REMARK    2  A    between atoms: O_5  and  C_37
REMARK    3  A    between atoms: O_6  and  C_36
REMARK    4  A    between atoms: O_6  and  C_38
REMARK    5  A    between atoms: N_8  and  C_14
REMARK    6  A    between atoms: C_22  and  C_28
REMARK    7  A    between atoms: C_24  and  C_30
REMARK    8  A    between atoms: C_27  and  C_31
REMARK                            x       y       z     vdW  Elec       q    Type
REMARK                         _______ _______ _______ _____ _____    ______ ____
ROOT
ATOM      1  O   UNL     1       8.663   7.665   2.364  0.00  0.00    -0.273 OA
ATOM      2  O   UNL     1       9.390   6.498   7.399  0.00  0.00    -0.270 OA
ATOM      7  N   UNL     1       9.956   6.550   5.147  0.00  0.00    -0.286 N 
ATOM      9  N   UNL     1       8.611   9.014   4.210  0.00  0.00    -0.283 N 
ATOM     14  C   UNL     1      10.702   5.156   2.695  0.00  0.00    +0.113 C 
ATOM     15  C   UNL     1      10.401   7.343   4.007  0.00  0.00    +0.164 C 
ATOM     16  C   UNL     1      11.225   6.572   2.969  0.00  0.00    +0.059 C 
ATOM     17  C   UNL     1      10.538   4.401   4.017  0.00  0.00    +0.046 C 
ATOM     18  C   UNL     1       9.577   5.151   4.928  0.00  0.00    +0.111 C 
ATOM     19  C   UNL     1       9.144   7.988   3.452  0.00  0.00    +0.238 C 
ATOM     20  C   UNL     1       9.666   7.134   6.381  0.00  0.00    +0.249 C 
ATOM     21  C   UNL     1       9.613   8.618   6.472  0.00  0.00    +0.059 A 
ATOM     23  C   UNL     1       9.016   9.437   5.497  0.00  0.00    +0.046 A 
ATOM     25  C   UNL     1      10.007   9.176   7.701  0.00  0.00    +0.023 A 
ATOM     26  C   UNL     1       8.766  10.785   5.803  0.00  0.00    +0.024 A 
ATOM     27  C   UNL     1       9.797  10.528   7.967  0.00  0.00    -0.014 A 
ATOM     29  C   UNL     1       9.164  11.329   7.024  0.00  0.00    +0.010 A 
ATOM     39  H   UNL     1       7.916   9.591   3.745  0.00  0.00    +0.155 HD
ENDROOT
BRANCH  27  31
ATOM     31  C   UNL     1      10.213  11.091   9.233  0.00  0.00    +0.024 A 
ATOM     32  C   UNL     1      11.545  11.447   9.457  0.00  0.00    +0.131 A 
ATOM     33  C   UNL     1       9.266  11.277  10.241  0.00  0.00    +0.016 A 
ATOM     34  C   UNL     1      11.927  11.989  10.684  0.00  0.00    +0.091 A 
ATOM     35  C   UNL     1       9.647  11.819  11.468  0.00  0.00    +0.046 A 
ATOM     36  C   UNL     1      10.978  12.174  11.690  0.00  0.00    +0.124 A 
BRANCH  32   5
ATOM      5  O   UNL     1      12.493  11.276   8.492  0.00  0.00    -0.494 OA
ATOM     37  C   UNL     1      13.041  12.454   7.907  0.00  0.00    +0.277 C 
ENDBRANCH  32   5
BRANCH  36   6
ATOM      6  O   UNL     1      11.350  12.703  12.888  0.00  0.00    -0.495 OA
ATOM     38  C   UNL     1      12.730  12.610  13.238  0.00  0.00    +0.277 C 
ENDBRANCH  36   6
ENDBRANCH  27  31
BRANCH  14   8
ATOM      8  N   UNL     1      11.532   4.430   1.727  0.00  0.00    -0.236 N 
ATOM     10  N   UNL     1      12.521   3.635   2.157  0.00  0.00    -0.064 NA
ATOM     11  N   UNL     1      13.099   3.116   1.079  0.00  0.00    -0.124 NA
ATOM     22  C   UNL     1      11.444   4.447   0.373  0.00  0.00    +0.156 A 
ATOM     24  C   UNL     1      12.451   3.604  -0.022  0.00  0.00    +0.179 A 
BRANCH  22  28
ATOM      3  O   UNL     1       9.413   4.722  -0.807  0.00  0.00    -0.269 OA
ATOM     12  N   UNL     1      10.808   6.522  -0.705  0.00  0.00    -0.324 N 
ATOM     28  C   UNL     1      10.503   5.190  -0.402  0.00  0.00    +0.262 C 
ATOM     40  H   UNL     1      11.670   6.959  -0.395  0.00  0.00    +0.145 HD
ATOM     41  H   UNL     1      10.168   7.093  -1.246  0.00  0.00    +0.145 HD
ENDBRANCH  22  28
BRANCH  24  30
ATOM      4  O   UNL     1      12.241   2.358  -2.019  0.00  0.00    -0.269 OA
ATOM     13  N   UNL     1      13.859   3.962  -1.961  0.00  0.00    -0.324 N 
ATOM     30  C   UNL     1      12.817   3.250  -1.359  0.00  0.00    +0.264 C 
ATOM     42  H   UNL     1      14.356   4.703  -1.475  0.00  0.00    +0.145 HD
ATOM     43  H   UNL     1      14.152   3.755  -2.910  0.00  0.00    +0.145 HD
ENDBRANCH  24  30
ENDBRANCH  14   8
TORSDOF 6
ENDMDL
MODEL 3
REMARK VINA RESULT:      -7.3     30.153     35.027
REMARK  Name = 11911512
REMARK  8 active torsions:
REMARK  status: ('A' for Active; 'I' for Inactive)
REMARK    1  A    between atoms: O_5  and  C_32
REMARK    2  A    between atoms: O_5  and  C_37
REMARK    3  A    between atoms: O_6  and  C_36
REMARK    4  A    between atoms: O_6  and  C_38
REMARK    5  A    between atoms: N_8  and  C_14
REMARK    6  A    between atoms: C_22  and  C_28
REMARK    7  A    between atoms: C_24  and  C_30
REMARK    8  A    between atoms: C_27  and  C_31
REMARK                            x       y       z     vdW  Elec       q    Type
REMARK                         _______ _______ _______ _____ _____    ______ ____
ROOT
ATOM      1  O   UNL     1     -11.265 -11.155  15.953  0.00  0.00    -0.273 OA
ATOM      2  O   UNL     1     -11.628  -5.954  16.182  0.00  0.00    -0.270 OA
ATOM      7  N   UNL     1     -10.510  -7.979  15.973  0.00  0.00    -0.286 N 
ATOM      9  N   UNL     1     -12.566  -9.716  14.743  0.00  0.00    -0.283 N 
ATOM     14  C   UNL     1      -8.444  -9.831  16.874  0.00  0.00    +0.113 C 
ATOM     15  C   UNL     1     -10.212  -9.141  15.143  0.00  0.00    +0.164 C 
ATOM     16  C   UNL     1      -8.836  -9.773  15.392  0.00  0.00    +0.059 C 
ATOM     17  C   UNL     1      -8.593  -8.442  17.503  0.00  0.00    +0.046 C 
ATOM     18  C   UNL     1     -10.027  -7.957  17.357  0.00  0.00    +0.111 C 
ATOM     19  C   UNL     1     -11.379 -10.089  15.346  0.00  0.00    +0.238 C 
ATOM     20  C   UNL     1     -11.422  -7.002  15.568  0.00  0.00    +0.249 C 
ATOM     21  C   UNL     1     -12.254  -7.259  14.363  0.00  0.00    +0.059 A 
ATOM     23  C   UNL     1     -12.855  -8.500  14.082  0.00  0.00    +0.046 A 
ATOM     25  C   UNL     1     -12.603  -6.131  13.600  0.00  0.00    +0.023 A 
ATOM     26  C   UNL     1     -13.842  -8.566  13.085  0.00  0.00    +0.024 A 
ATOM     27  C   UNL     1     -13.548  -6.228  12.580  0.00  0.00    -0.014 A 
ATOM     29  C   UNL     1     -14.178  -7.442  12.332  0.00  0.00    +0.010 A 
ATOM     39  H   UNL     1     -13.277 -10.441  14.683  0.00  0.00    +0.155 HD
ENDROOT
BRANCH  27  31
ATOM     31  C   UNL     1     -13.892  -5.060  11.798  0.00  0.00    +0.024 A 
ATOM     32  C   UNL     1     -13.176  -4.732  10.646  0.00  0.00    +0.131 A 
ATOM     33  C   UNL     1     -14.957  -4.255  12.208  0.00  0.00    +0.016 A 
ATOM     34  C   UNL     1     -13.524  -3.601   9.905  0.00  0.00    +0.091 A 
ATOM     35  C   UNL     1     -15.305  -3.126  11.467  0.00  0.00    +0.046 A 
ATOM     36  C   UNL     1     -14.588  -2.799  10.316  0.00  0.00    +0.124 A 
BRANCH  32   5
ATOM      5  O   UNL     1     -12.131  -5.497  10.221  0.00  0.00    -0.494 OA
ATOM     37  C   UNL     1     -11.158  -4.864   9.394  0.00  0.00    +0.277 C 
ENDBRANCH  32   5
BRANCH  36   6
ATOM      6  O   UNL     1     -14.928  -1.696   9.594  0.00  0.00    -0.495 OA
ATOM     38  C   UNL     1     -15.245  -1.895   8.216  0.00  0.00    +0.277 C 
ENDBRANCH  36   6
ENDBRANCH  27  31
BRANCH  14   8
ATOM      8  N   UNL     1      -7.108 -10.405  17.077  0.00  0.00    -0.236 N 
ATOM     10  N   UNL     1      -6.115 -10.104  16.229  0.00  0.00    -0.064 NA
ATOM     11  N   UNL     1      -5.036 -10.756  16.647  0.00  0.00    -0.124 NA
ATOM     22  C   UNL     1      -6.704 -11.251  18.056  0.00  0.00    +0.156 A 
ATOM     24  C   UNL     1      -5.380 -11.465  17.765  0.00  0.00    +0.179 A 
BRANCH  22  28
ATOM      3  O   UNL     1      -7.951 -11.068  20.057  0.00  0.00    -0.269 OA
ATOM     12  N   UNL     1      -7.850 -13.124  19.079  0.00  0.00    -0.324 N 
ATOM     28  C   UNL     1      -7.512 -11.767  19.114  0.00  0.00    +0.262 C 
ATOM     40  H   UNL     1      -7.534 -13.738  18.334  0.00  0.00    +0.145 HD
ATOM     41  H   UNL     1      -8.429 -13.536  19.803  0.00  0.00    +0.145 HD
ENDBRANCH  22  28
BRANCH  24  30
ATOM      4  O   UNL     1      -3.659 -11.846  19.340  0.00  0.00    -0.269 OA
ATOM     13  N   UNL     1      -4.457 -13.660  18.213  0.00  0.00    -0.324 N 
ATOM     30  C   UNL     1      -4.453 -12.287  18.479  0.00  0.00    +0.264 C 
ATOM     42  H   UNL     1      -5.087 -14.074  17.532  0.00  0.00    +0.145 HD
ATOM     43  H   UNL     1      -3.825 -14.287  18.698  0.00  0.00    +0.145 HD
ENDBRANCH  24  30
ENDBRANCH  14   8
TORSDOF 6
ENDMDL
MODEL 4
REMARK VINA RESULT:      -7.2      3.542     10.856
REMARK  Name = 11911512
REMARK  8 active torsions:
REMARK  status: ('A' for Active; 'I' for Inactive)
REMARK    1  A    between atoms: O_5  and  C_32
REMARK    2  A    between atoms: O_5  and  C_37
REMARK    3  A    between atoms: O_6  and  C_36
REMARK    4  A    between atoms: O_6  and  C_38
REMARK    5  A    between atoms: N_8  and  C_14
REMARK    6  A    between atoms: C_22  and  C_28
REMARK    7  A    between atoms: C_24  and  C_30
REMARK    8  A    between atoms: C_27  and  C_31
REMARK                            x       y       z     vdW  Elec       q    Type
REMARK                         _______ _______ _______ _____ _____    ______ ____
ROOT
ATOM      1  O   UNL     1      22.770   7.405  21.397  0.00  0.00    -0.273 OA
ATOM      2  O   UNL     1      18.039   5.990  19.709  0.00  0.00    -0.270 OA
ATOM      7  N   UNL     1      19.934   5.827  21.041  0.00  0.00    -0.286 N 
ATOM      9  N   UNL     1      20.854   8.636  21.184  0.00  0.00    -0.283 N 
ATOM     14  C   UNL     1      22.190   4.275  22.049  0.00  0.00    +0.113 C 
ATOM     15  C   UNL     1      20.717   6.377  22.141  0.00  0.00    +0.164 C 
ATOM     16  C   UNL     1      21.533   5.345  22.930  0.00  0.00    +0.059 C 
ATOM     17  C   UNL     1      21.137   3.641  21.134  0.00  0.00    +0.046 C 
ATOM     18  C   UNL     1      20.490   4.712  20.268  0.00  0.00    +0.111 C 
ATOM     19  C   UNL     1      21.547   7.489  21.526  0.00  0.00    +0.238 C 
ATOM     20  C   UNL     1      18.789   6.466  20.561  0.00  0.00    +0.249 C 
ATOM     21  C   UNL     1      18.483   7.838  21.047  0.00  0.00    +0.059 A 
ATOM     23  C   UNL     1      19.455   8.841  21.213  0.00  0.00    +0.046 A 
ATOM     25  C   UNL     1      17.120   8.171  21.140  0.00  0.00    +0.023 A 
ATOM     26  C   UNL     1      19.037  10.168  21.401  0.00  0.00    +0.024 A 
ATOM     27  C   UNL     1      16.725   9.486  21.378  0.00  0.00    -0.014 A 
ATOM     29  C   UNL     1      17.682  10.487  21.494  0.00  0.00    +0.010 A 
ATOM     39  H   UNL     1      21.425   9.454  20.986  0.00  0.00    +0.155 HD
ENDROOT
BRANCH  27  31
ATOM     31  C   UNL     1      15.319   9.813  21.477  0.00  0.00    +0.024 A 
ATOM     32  C   UNL     1      14.483   9.729  20.362  0.00  0.00    +0.131 A 
ATOM     33  C   UNL     1      14.799  10.218  22.707  0.00  0.00    +0.016 A 
ATOM     34  C   UNL     1      13.129  10.049  20.478  0.00  0.00    +0.091 A 
ATOM     35  C   UNL     1      13.446  10.537  22.824  0.00  0.00    +0.046 A 
ATOM     36  C   UNL     1      12.612  10.453  21.709  0.00  0.00    +0.124 A 
BRANCH  32   5
ATOM      5  O   UNL     1      14.961   9.339  19.147  0.00  0.00    -0.494 OA
ATOM     37  C   UNL     1      14.424   8.140  18.595  0.00  0.00    +0.277 C 
ENDBRANCH  32   5
BRANCH  36   6
ATOM      6  O   UNL     1      11.291  10.764  21.823  0.00  0.00    -0.495 OA
ATOM     38  C   UNL     1      10.965  11.969  22.516  0.00  0.00    +0.277 C 
ENDBRANCH  36   6
ENDBRANCH  27  31
BRANCH  14   8
ATOM      8  N   UNL     1      22.930   3.281  22.835  0.00  0.00    -0.236 N 
ATOM     10  N   UNL     1      22.543   2.992  24.084  0.00  0.00    -0.064 NA
ATOM     11  N   UNL     1      23.383   2.075  24.550  0.00  0.00    -0.124 NA
ATOM     22  C   UNL     1      24.021   2.567  22.461  0.00  0.00    +0.156 A 
ATOM     24  C   UNL     1      24.296   1.804  23.568  0.00  0.00    +0.179 A 
BRANCH  22  28
ATOM      3  O   UNL     1      25.818   3.148  21.038  0.00  0.00    -0.269 OA
ATOM     12  N   UNL     1      24.043   2.078  20.089  0.00  0.00    -0.324 N 
ATOM     28  C   UNL     1      24.685   2.636  21.200  0.00  0.00    +0.262 C 
ATOM     40  H   UNL     1      23.130   1.640  20.160  0.00  0.00    +0.145 HD
ATOM     41  H   UNL     1      24.478   2.095  19.172  0.00  0.00    +0.145 HD
ENDBRANCH  22  28
BRANCH  24  30
ATOM      4  O   UNL     1      25.165  -0.357  23.971  0.00  0.00    -0.269 OA
ATOM     13  N   UNL     1      26.669   1.314  23.593  0.00  0.00    -0.324 N 
ATOM     30  C   UNL     1      25.355   0.856  23.733  0.00  0.00    +0.264 C 
ATOM     42  H   UNL     1      26.881   2.287  23.390  0.00  0.00    +0.145 HD
ATOM     43  H   UNL     1      27.455   0.681  23.692  0.00  0.00    +0.145 HD
ENDBRANCH  24  30
ENDBRANCH  14   8
TORSDOF 6
ENDMDL
MODEL 5
REMARK VINA RESULT:      -7.2      3.346     11.064
REMARK  Name = 11911512
REMARK  8 active torsions:
REMARK  status: ('A' for Active; 'I' for Inactive)
REMARK    1  A    between atoms: O_5  and  C_32
REMARK    2  A    between atoms: O_5  and  C_37
REMARK    3  A    between atoms: O_6  and  C_36
REMARK    4  A    between atoms: O_6  and  C_38
REMARK    5  A    between atoms: N_8  and  C_14
REMARK    6  A    between atoms: C_22  and  C_28
REMARK    7  A    between atoms: C_24  and  C_30
REMARK    8  A    between atoms: C_27  and  C_31
REMARK                            x       y       z     vdW  Elec       q    Type
REMARK                         _______ _______ _______ _____ _____    ______ ____
ROOT
ATOM      1  O   UNL     1      22.713   7.764  21.768  0.00  0.00    -0.273 OA
ATOM      2  O   UNL     1      18.863   4.971  19.620  0.00  0.00    -0.270 OA
ATOM      7  N   UNL     1      20.542   5.401  21.166  0.00  0.00    -0.286 N 
ATOM      9  N   UNL     1      20.560   8.358  21.279  0.00  0.00    -0.283 N 
ATOM     14  C   UNL     1      23.014   4.611  22.498  0.00  0.00    +0.113 C 
ATOM     15  C   UNL     1      20.984   6.174  22.321  0.00  0.00    +0.164 C 
ATOM     16  C   UNL     1      21.965   5.444  23.246  0.00  0.00    +0.059 C 
ATOM     17  C   UNL     1      22.319   3.680  21.501  0.00  0.00    +0.046 C 
ATOM     18  C   UNL     1      21.495   4.496  20.516  0.00  0.00    +0.111 C 
ATOM     19  C   UNL     1      21.515   7.477  21.752  0.00  0.00    +0.238 C 
ATOM     20  C   UNL     1      19.327   5.661  20.528  0.00  0.00    +0.249 C 
ATOM     21  C   UNL     1      18.569   6.882  20.910  0.00  0.00    +0.059 A 
ATOM     23  C   UNL     1      19.171   8.133  21.137  0.00  0.00    +0.046 A 
ATOM     25  C   UNL     1      17.169   6.791  20.830  0.00  0.00    +0.023 A 
ATOM     26  C   UNL     1      18.357   9.275  21.212  0.00  0.00    +0.024 A 
ATOM     27  C   UNL     1      16.374   7.929  20.957  0.00  0.00    -0.014 A 
ATOM     29  C   UNL     1      16.968   9.172  21.134  0.00  0.00    +0.010 A 
ATOM     39  H   UNL     1      20.882   9.308  21.108  0.00  0.00    +0.155 HD
ENDROOT
BRANCH  27  31
ATOM     31  C   UNL     1      14.933   7.819  20.879  0.00  0.00    +0.024 A 
ATOM     32  C   UNL     1      14.306   7.434  19.693  0.00  0.00    +0.131 A 
ATOM     33  C   UNL     1      14.166   8.103  22.010  0.00  0.00    +0.016 A 
ATOM     34  C   UNL     1      12.915   7.333  19.637  0.00  0.00    +0.091 A 
ATOM     35  C   UNL     1      12.776   8.002  21.955  0.00  0.00    +0.046 A 
ATOM     36  C   UNL     1      12.151   7.618  20.769  0.00  0.00    +0.124 A 
BRANCH  32   5
ATOM      5  O   UNL     1      15.029   7.152  18.572  0.00  0.00    -0.494 OA
ATOM     37  C   UNL     1      14.463   7.540  17.322  0.00  0.00    +0.277 C 
ENDBRANCH  32   5
BRANCH  36   6
ATOM      6  O   UNL     1      10.794   7.519  20.716  0.00  0.00    -0.495 OA
ATOM     38  C   UNL     1      10.104   7.381  21.957  0.00  0.00    +0.277 C 
ENDBRANCH  36   6
ENDBRANCH  27  31
BRANCH  14   8
ATOM      8  N   UNL     1      23.914   3.895  23.410  0.00  0.00    -0.236 N 
ATOM     10  N   UNL     1      23.513   3.607  24.656  0.00  0.00    -0.064 NA
ATOM     11  N   UNL     1      24.516   2.968  25.249  0.00  0.00    -0.124 NA
ATOM     22  C   UNL     1      25.173   3.455  23.165  0.00  0.00    +0.156 A 
ATOM     24  C   UNL     1      25.541   2.867  24.349  0.00  0.00    +0.179 A 
BRANCH  22  28
ATOM      3  O   UNL     1      26.511   4.642  21.619  0.00  0.00    -0.269 OA
ATOM     12  N   UNL     1      25.937   2.505  21.072  0.00  0.00    -0.324 N 
ATOM     28  C   UNL     1      25.896   3.600  21.943  0.00  0.00    +0.262 C 
ATOM     40  H   UNL     1      25.469   1.630  21.285  0.00  0.00    +0.145 HD
ATOM     41  H   UNL     1      26.445   2.556  20.195  0.00  0.00    +0.145 HD
ENDBRANCH  22  28
BRANCH  24  30
ATOM      4  O   UNL     1      27.721   2.802  25.259  0.00  0.00    -0.269 OA
ATOM     13  N   UNL     1      26.944   0.893  24.286  0.00  0.00    -0.324 N 
ATOM     30  C   UNL     1      26.784   2.232  24.658  0.00  0.00    +0.264 C 
ATOM     42  H   UNL     1      26.213   0.378  23.804  0.00  0.00    +0.145 HD
ATOM     43  H   UNL     1      27.803   0.395  24.489  0.00  0.00    +0.145 HD
ENDBRANCH  24  30
ENDBRANCH  14   8
TORSDOF 6
ENDMDL
MODEL 6
REMARK VINA RESULT:      -7.0     15.853     19.905
REMARK  Name = 11911512
REMARK  8 active torsions:
REMARK  status: ('A' for Active; 'I' for Inactive)
REMARK    1  A    between atoms: O_5  and  C_32
REMARK    2  A    between atoms: O_5  and  C_37
REMARK    3  A    between atoms: O_6  and  C_36
REMARK    4  A    between atoms: O_6  and  C_38
REMARK    5  A    between atoms: N_8  and  C_14
REMARK    6  A    between atoms: C_22  and  C_28
REMARK    7  A    between atoms: C_24  and  C_30
REMARK    8  A    between atoms: C_27  and  C_31
REMARK                            x       y       z     vdW  Elec       q    Type
REMARK                         _______ _______ _______ _____ _____    ______ ____
ROOT
ATOM      1  O   UNL     1       8.649   7.633   8.434  0.00  0.00    -0.273 OA
ATOM      2  O   UNL     1       9.665   8.971   3.493  0.00  0.00    -0.270 OA
ATOM      7  N   UNL     1       9.977   9.021   5.793  0.00  0.00    -0.286 N 
ATOM      9  N   UNL     1       9.086   6.320   6.614  0.00  0.00    -0.283 N 
ATOM     14  C   UNL     1      10.136  10.519   8.291  0.00  0.00    +0.113 C 
ATOM     15  C   UNL     1      10.450   8.329   6.987  0.00  0.00    +0.164 C 
ATOM     16  C   UNL     1      10.973   9.248   8.098  0.00  0.00    +0.059 C 
ATOM     17  C   UNL     1       9.964  11.234   6.948  0.00  0.00    +0.046 C 
ATOM     18  C   UNL     1       9.289  10.306   5.949  0.00  0.00    +0.111 C 
ATOM     19  C   UNL     1       9.304   7.429   7.411  0.00  0.00    +0.238 C 
ATOM     20  C   UNL     1       9.955   8.399   4.544  0.00  0.00    +0.249 C 
ATOM     21  C   UNL     1      10.226   6.938   4.470  0.00  0.00    +0.059 A 
ATOM     23  C   UNL     1       9.711   6.003   5.386  0.00  0.00    +0.046 A 
ATOM     25  C   UNL     1      10.862   6.486   3.301  0.00  0.00    +0.023 A 
ATOM     26  C   UNL     1       9.786   4.635   5.074  0.00  0.00    +0.024 A 
ATOM     27  C   UNL     1      10.972   5.123   3.034  0.00  0.00    -0.014 A 
ATOM     29  C   UNL     1      10.422   4.198   3.913  0.00  0.00    +0.010 A 
ATOM     39  H   UNL     1       8.481   5.605   7.009  0.00  0.00    +0.155 HD
ENDROOT
BRANCH  27  31
ATOM     31  C   UNL     1      11.635   4.671   1.829  0.00  0.00    +0.024 A 
ATOM     32  C   UNL     1      11.075   4.904   0.572  0.00  0.00    +0.131 A 
ATOM     33  C   UNL     1      12.851   3.994   1.934  0.00  0.00    +0.016 A 
ATOM     34  C   UNL     1      11.731   4.462  -0.578  0.00  0.00    +0.091 A 
ATOM     35  C   UNL     1      13.506   3.552   0.785  0.00  0.00    +0.046 A 
ATOM     36  C   UNL     1      12.946   3.785  -0.471  0.00  0.00    +0.124 A 
BRANCH  32   5
ATOM      5  O   UNL     1       9.889   5.562   0.438  0.00  0.00    -0.494 OA
ATOM     37  C   UNL     1       9.898   6.763  -0.328  0.00  0.00    +0.277 C 
ENDBRANCH  32   5
BRANCH  36   6
ATOM      6  O   UNL     1      13.585   3.353  -1.592  0.00  0.00    -0.495 OA
ATOM     38  C   UNL     1      13.950   4.343  -2.554  0.00  0.00    +0.277 C 
ENDBRANCH  36   6
ENDBRANCH  27  31
BRANCH  14   8
ATOM      8  N   UNL     1      10.683  11.396   9.334  0.00  0.00    -0.236 N 
ATOM     10  N   UNL     1      12.003  11.422   9.562  0.00  0.00    -0.064 NA
ATOM     11  N   UNL     1      12.210  12.289  10.547  0.00  0.00    -0.124 NA
ATOM     22  C   UNL     1      10.007  12.236  10.157  0.00  0.00    +0.156 A 
ATOM     24  C   UNL     1      10.998  12.796  10.923  0.00  0.00    +0.179 A 
BRANCH  22  28
ATOM      3  O   UNL     1       7.963  13.007   9.250  0.00  0.00    -0.269 OA
ATOM     12  N   UNL     1       7.877  11.974  11.281  0.00  0.00    -0.324 N 
ATOM     28  C   UNL     1       8.595  12.445  10.176  0.00  0.00    +0.262 C 
ATOM     40  H   UNL     1       8.332  11.500  12.055  0.00  0.00    +0.145 HD
ATOM     41  H   UNL     1       6.871  12.090  11.337  0.00  0.00    +0.145 HD
ENDBRANCH  22  28
BRANCH  24  30
ATOM      4  O   UNL     1      10.513  14.950  11.766  0.00  0.00    -0.269 OA
ATOM     13  N   UNL     1      11.074  13.343  13.282  0.00  0.00    -0.324 N 
ATOM     30  C   UNL     1      10.851  13.763  11.967  0.00  0.00    +0.264 C 
ATOM     42  H   UNL     1      11.341  12.389  13.505  0.00  0.00    +0.145 HD
ATOM     43  H   UNL     1      10.975  13.988  14.059  0.00  0.00    +0.145 HD
ENDBRANCH  24  30
ENDBRANCH  14   8
TORSDOF 6
ENDMDL
MODEL 7
REMARK VINA RESULT:      -7.0     29.581     32.864
REMARK  Name = 11911512
REMARK  8 active torsions:
REMARK  status: ('A' for Active; 'I' for Inactive)
REMARK    1  A    between atoms: O_5  and  C_32
REMARK    2  A    between atoms: O_5  and  C_37
REMARK    3  A    between atoms: O_6  and  C_36
REMARK    4  A    between atoms: O_6  and  C_38
REMARK    5  A    between atoms: N_8  and  C_14
REMARK    6  A    between atoms: C_22  and  C_28
REMARK    7  A    between atoms: C_24  and  C_30
REMARK    8  A    between atoms: C_27  and  C_31
REMARK                            x       y       z     vdW  Elec       q    Type
REMARK                         _______ _______ _______ _____ _____    ______ ____
ROOT
ATOM      1  O   UNL     1      -3.374 -10.619  15.579  0.00  0.00    -0.273 OA
ATOM      2  O   UNL     1      -5.546 -13.628  11.909  0.00  0.00    -0.270 OA
ATOM      7  N   UNL     1      -5.547 -12.301  13.814  0.00  0.00    -0.286 N 
ATOM      9  N   UNL     1      -3.296 -10.449  13.300  0.00  0.00    -0.283 N 
ATOM     14  C   UNL     1      -6.140 -11.947  16.649  0.00  0.00    +0.113 C 
ATOM     15  C   UNL     1      -5.441 -10.961  14.383  0.00  0.00    +0.164 C 
ATOM     16  C   UNL     1      -6.219 -10.753  15.688  0.00  0.00    +0.059 C 
ATOM     17  C   UNL     1      -6.532 -13.231  15.911  0.00  0.00    +0.046 C 
ATOM     18  C   UNL     1      -5.607 -13.450  14.723  0.00  0.00    +0.111 C 
ATOM     19  C   UNL     1      -3.952 -10.688  14.493  0.00  0.00    +0.238 C 
ATOM     20  C   UNL     1      -5.364 -12.537  12.451  0.00  0.00    +0.249 C 
ATOM     21  C   UNL     1      -4.851 -11.432  11.599  0.00  0.00    +0.059 A 
ATOM     23  C   UNL     1      -3.817 -10.562  11.990  0.00  0.00    +0.046 A 
ATOM     25  C   UNL     1      -5.304 -11.416  10.268  0.00  0.00    +0.023 A 
ATOM     26  C   UNL     1      -3.215  -9.743  11.021  0.00  0.00    +0.024 A 
ATOM     27  C   UNL     1      -4.728 -10.559   9.332  0.00  0.00    -0.014 A 
ATOM     29  C   UNL     1      -3.674  -9.733   9.704  0.00  0.00    +0.010 A 
ATOM     39  H   UNL     1      -2.365 -10.049  13.381  0.00  0.00    +0.155 HD
ENDROOT
BRANCH  27  31
ATOM     31  C   UNL     1      -5.209 -10.548   7.967  0.00  0.00    +0.024 A 
ATOM     32  C   UNL     1      -6.170  -9.624   7.552  0.00  0.00    +0.131 A 
ATOM     33  C   UNL     1      -4.701 -11.478   7.057  0.00  0.00    +0.016 A 
ATOM     34  C   UNL     1      -6.621  -9.629   6.231  0.00  0.00    +0.091 A 
ATOM     35  C   UNL     1      -5.151 -11.483   5.738  0.00  0.00    +0.046 A 
ATOM     36  C   UNL     1      -6.111 -10.559   5.325  0.00  0.00    +0.124 A 
BRANCH  32   5
ATOM      5  O   UNL     1      -6.686  -8.705   8.417  0.00  0.00    -0.494 OA
ATOM     37  C   UNL     1      -8.045  -8.877   8.808  0.00  0.00    +0.277 C 
ENDBRANCH  32   5
BRANCH  36   6
ATOM      6  O   UNL     1      -6.550 -10.564   4.036  0.00  0.00    -0.495 OA
ATOM     38  C   UNL     1      -6.600 -11.827   3.372  0.00  0.00    +0.277 C 
ENDBRANCH  36   6
ENDBRANCH  27  31
BRANCH  14   8
ATOM      8  N   UNL     1      -6.924 -11.734  17.871  0.00  0.00    -0.236 N 
ATOM     10  N   UNL     1      -6.300 -11.520  19.038  0.00  0.00    -0.064 NA
ATOM     11  N   UNL     1      -7.243 -11.364  19.960  0.00  0.00    -0.124 NA
ATOM     22  C   UNL     1      -8.274 -11.722  18.005  0.00  0.00    +0.156 A 
ATOM     24  C   UNL     1      -8.459 -11.485  19.344  0.00  0.00    +0.179 A 
BRANCH  22  28
ATOM      3  O   UNL     1      -9.531 -11.036  16.124  0.00  0.00    -0.269 OA
ATOM     12  N   UNL     1      -9.838 -13.172  16.859  0.00  0.00    -0.324 N 
ATOM     28  C   UNL     1      -9.228 -11.917  16.962  0.00  0.00    +0.262 C 
ATOM     40  H   UNL     1      -9.624 -13.929  17.501  0.00  0.00    +0.145 HD
ATOM     41  H   UNL     1     -10.517 -13.363  16.129  0.00  0.00    +0.145 HD
ENDBRANCH  22  28
BRANCH  24  30
ATOM      4  O   UNL     1     -10.381 -12.357  20.408  0.00  0.00    -0.269 OA
ATOM     13  N   UNL     1     -10.156 -10.089  20.363  0.00  0.00    -0.324 N 
ATOM     30  C   UNL     1      -9.699 -11.372  20.046  0.00  0.00    +0.264 C 
ATOM     42  H   UNL     1      -9.639  -9.254  20.102  0.00  0.00    +0.145 HD
ATOM     43  H   UNL     1     -11.026  -9.955  20.867  0.00  0.00    +0.145 HD
ENDBRANCH  24  30
ENDBRANCH  14   8
TORSDOF 6
ENDMDL
MODEL 8
REMARK VINA RESULT:      -7.0     19.451     24.120
REMARK  Name = 11911512
REMARK  8 active torsions:
REMARK  status: ('A' for Active; 'I' for Inactive)
REMARK    1  A    between atoms: O_5  and  C_32
REMARK    2  A    between atoms: O_5  and  C_37
REMARK    3  A    between atoms: O_6  and  C_36
REMARK    4  A    between atoms: O_6  and  C_38
REMARK    5  A    between atoms: N_8  and  C_14
REMARK    6  A    between atoms: C_22  and  C_28
REMARK    7  A    between atoms: C_24  and  C_30
REMARK    8  A    between atoms: C_27  and  C_31
REMARK                            x       y       z     vdW  Elec       q    Type
REMARK                         _______ _______ _______ _____ _____    ______ ____
ROOT
ATOM      1  O   UNL     1       6.314  10.823  -0.633  0.00  0.00    -0.273 OA
ATOM      2  O   UNL     1       5.893  10.551   4.562  0.00  0.00    -0.270 OA
ATOM      7  N   UNL     1       5.158  10.294   2.375  0.00  0.00    -0.286 N 
ATOM      9  N   UNL     1       7.684   9.829   0.905  0.00  0.00    -0.283 N 
ATOM     14  C   UNL     1       3.196  10.844   0.286  0.00  0.00    +0.113 C 
ATOM     15  C   UNL     1       5.253   9.552   1.122  0.00  0.00    +0.164 C 
ATOM     16  C   UNL     1       3.959   9.513   0.298  0.00  0.00    +0.059 C 
ATOM     17  C   UNL     1       2.982  11.330   1.722  0.00  0.00    +0.046 C 
ATOM     18  C   UNL     1       4.324  11.499   2.419  0.00  0.00    +0.111 C 
ATOM     19  C   UNL     1       6.440  10.149   0.391  0.00  0.00    +0.238 C 
ATOM     20  C   UNL     1       6.003  10.028   3.453  0.00  0.00    +0.249 C 
ATOM     21  C   UNL     1       7.155   9.110   3.245  0.00  0.00    +0.059 A 
ATOM     23  C   UNL     1       7.971   9.131   2.100  0.00  0.00    +0.046 A 
ATOM     25  C   UNL     1       7.539   8.338   4.356  0.00  0.00    +0.023 A 
ATOM     26  C   UNL     1       9.188   8.430   2.120  0.00  0.00    +0.024 A 
ATOM     27  C   UNL     1       8.726   7.609   4.339  0.00  0.00    -0.014 A 
ATOM     29  C   UNL     1       9.558   7.666   3.227  0.00  0.00    +0.010 A 
ATOM     39  H   UNL     1       8.476  10.033   0.301  0.00  0.00    +0.155 HD
ENDROOT
BRANCH  27  31
ATOM     31  C   UNL     1       9.106   6.814   5.487  0.00  0.00    +0.024 A 
ATOM     32  C   UNL     1       9.220   7.392   6.753  0.00  0.00    +0.131 A 
ATOM     33  C   UNL     1       9.360   5.452   5.319  0.00  0.00    +0.016 A 
ATOM     34  C   UNL     1       9.586   6.608   7.848  0.00  0.00    +0.091 A 
ATOM     35  C   UNL     1       9.726   4.669   6.413  0.00  0.00    +0.046 A 
ATOM     36  C   UNL     1       9.839   5.247   7.678  0.00  0.00    +0.124 A 
BRANCH  32   5
ATOM      5  O   UNL     1       8.979   8.719   6.948  0.00  0.00    -0.494 OA
ATOM     37  C   UNL     1       9.751   9.376   7.950  0.00  0.00    +0.277 C 
ENDBRANCH  32   5
BRANCH  36   6
ATOM      6  O   UNL     1      10.197   4.483   8.746  0.00  0.00    -0.495 OA
ATOM     38  C   UNL     1       9.345   4.527   9.890  0.00  0.00    +0.277 C 
ENDBRANCH  36   6
ENDBRANCH  27  31
BRANCH  14   8
ATOM      8  N   UNL     1       1.946  10.764  -0.479  0.00  0.00    -0.236 N 
ATOM     10  N   UNL     1       0.816  10.374   0.126  0.00  0.00    -0.064 NA
ATOM     11  N   UNL     1      -0.143  10.392  -0.793  0.00  0.00    -0.124 NA
ATOM     22  C   UNL     1       1.752  11.042  -1.792  0.00  0.00    +0.156 A 
ATOM     24  C   UNL     1       0.414  10.798  -1.975  0.00  0.00    +0.179 A 
BRANCH  22  28
ATOM      3  O   UNL     1       2.976  12.686  -2.970  0.00  0.00    -0.269 OA
ATOM     12  N   UNL     1       3.518  10.507  -3.361  0.00  0.00    -0.324 N 
ATOM     28  C   UNL     1       2.745  11.481  -2.718  0.00  0.00    +0.262 C 
ATOM     40  H   UNL     1       3.385   9.515  -3.189  0.00  0.00    +0.145 HD
ATOM     41  H   UNL     1       4.242  10.768  -4.021  0.00  0.00    +0.145 HD
ENDBRANCH  22  28
BRANCH  24  30
ATOM      4  O   UNL     1      -0.191  10.181  -4.174  0.00  0.00    -0.269 OA
ATOM     13  N   UNL     1      -1.308  11.936  -3.243  0.00  0.00    -0.324 N 
ATOM     30  C   UNL     1      -0.339  10.930  -3.183  0.00  0.00    +0.264 C 
ATOM     42  H   UNL     1      -1.478  12.567  -2.464  0.00  0.00    +0.145 HD
ATOM     43  H   UNL     1      -1.874  12.066  -4.074  0.00  0.00    +0.145 HD
ENDBRANCH  24  30
ENDBRANCH  14   8
TORSDOF 6
ENDMDL
MODEL 9
REMARK VINA RESULT:      -6.9     30.580     35.737
REMARK  Name = 11911512
REMARK  8 active torsions:
REMARK  status: ('A' for Active; 'I' for Inactive)
REMARK    1  A    between atoms: O_5  and  C_32
REMARK    2  A    between atoms: O_5  and  C_37
REMARK    3  A    between atoms: O_6  and  C_36
REMARK    4  A    between atoms: O_6  and  C_38
REMARK    5  A    between atoms: N_8  and  C_14
REMARK    6  A    between atoms: C_22  and  C_28
REMARK    7  A    between atoms: C_24  and  C_30
REMARK    8  A    between atoms: C_27  and  C_31
REMARK                            x       y       z     vdW  Elec       q    Type
REMARK                         _______ _______ _______ _____ _____    ______ ____
ROOT
ATOM      1  O   UNL     1     -10.275  -6.761   3.371  0.00  0.00    -0.273 OA
ATOM      2  O   UNL     1      -8.588 -11.039   5.839  0.00  0.00    -0.270 OA
ATOM      7  N   UNL     1      -8.692  -9.527   4.079  0.00  0.00    -0.286 N 
ATOM      9  N   UNL     1      -9.365  -6.995   5.456  0.00  0.00    -0.283 N 
ATOM     14  C   UNL     1      -9.161  -8.962   1.256  0.00  0.00    +0.113 C 
ATOM     15  C   UNL     1      -8.351  -8.203   3.572  0.00  0.00    +0.164 C 
ATOM     16  C   UNL     1      -8.150  -8.128   2.053  0.00  0.00    +0.059 C 
ATOM     17  C   UNL     1      -9.184 -10.397   1.792  0.00  0.00    +0.046 C 
ATOM     18  C   UNL     1      -9.552 -10.394   3.268  0.00  0.00    +0.111 C 
ATOM     19  C   UNL     1      -9.431  -7.279   4.104  0.00  0.00    +0.238 C 
ATOM     20  C   UNL     1      -8.417  -9.903   5.395  0.00  0.00    +0.249 C 
ATOM     21  C   UNL     1      -7.955  -8.862   6.352  0.00  0.00    +0.059 A 
ATOM     23  C   UNL     1      -8.500  -7.567   6.417  0.00  0.00    +0.046 A 
ATOM     25  C   UNL     1      -7.073  -9.295   7.358  0.00  0.00    +0.023 A 
ATOM     26  C   UNL     1      -8.201  -6.759   7.526  0.00  0.00    +0.024 A 
ATOM     27  C   UNL     1      -6.747  -8.459   8.424  0.00  0.00    -0.014 A 
ATOM     29  C   UNL     1      -7.322  -7.197   8.517  0.00  0.00    +0.010 A 
ATOM     39  H   UNL     1      -9.935  -6.215   5.771  0.00  0.00    +0.155 HD
ENDROOT
BRANCH  27  31
ATOM     31  C   UNL     1      -5.832  -8.915   9.449  0.00  0.00    +0.024 A 
ATOM     32  C   UNL     1      -6.294  -9.264  10.719  0.00  0.00    +0.131 A 
ATOM     33  C   UNL     1      -4.471  -9.004   9.156  0.00  0.00    +0.016 A 
ATOM     34  C   UNL     1      -5.397  -9.702  11.694  0.00  0.00    +0.091 A 
ATOM     35  C   UNL     1      -3.573  -9.442  10.129  0.00  0.00    +0.046 A 
ATOM     36  C   UNL     1      -4.036  -9.791  11.398  0.00  0.00    +0.124 A 
BRANCH  32   5
ATOM      5  O   UNL     1      -7.618  -9.186  11.036  0.00  0.00    -0.494 OA
ATOM     37  C   UNL     1      -8.324 -10.416  11.176  0.00  0.00    +0.277 C 
ENDBRANCH  32   5
BRANCH  36   6
ATOM      6  O   UNL     1      -3.160 -10.218  12.349  0.00  0.00    -0.495 OA
ATOM     38  C   UNL     1      -1.787 -10.311  11.971  0.00  0.00    +0.277 C 
ENDBRANCH  36   6
ENDBRANCH  27  31
BRANCH  14   8
ATOM      8  N   UNL     1      -8.919  -8.901  -0.191  0.00  0.00    -0.236 N 
ATOM     10  N   UNL     1      -7.664  -8.884  -0.659  0.00  0.00    -0.064 NA
ATOM     11  N   UNL     1      -7.745  -8.824  -1.984  0.00  0.00    -0.124 NA
ATOM     22  C   UNL     1      -9.837  -8.853  -1.188  0.00  0.00    +0.156 A 
ATOM     24  C   UNL     1      -9.069  -8.804  -2.325  0.00  0.00    +0.179 A 
BRANCH  22  28
ATOM      3  O   UNL     1     -11.921  -7.840  -0.719  0.00  0.00    -0.269 OA
ATOM     12  N   UNL     1     -11.940 -10.053  -1.268  0.00  0.00    -0.324 N 
ATOM     28  C   UNL     1     -11.256  -8.855  -1.032  0.00  0.00    +0.262 C 
ATOM     40  H   UNL     1     -11.457 -10.904  -1.536  0.00  0.00    +0.145 HD
ATOM     41  H   UNL     1     -12.949 -10.102  -1.178  0.00  0.00    +0.145 HD
ENDBRANCH  22  28
BRANCH  24  30
ATOM      4  O   UNL     1      -9.784  -7.670  -4.272  0.00  0.00    -0.269 OA
ATOM     13  N   UNL     1      -9.649  -9.943  -4.382  0.00  0.00    -0.324 N 
ATOM     30  C   UNL     1      -9.521  -8.741  -3.680  0.00  0.00    +0.264 C 
ATOM     42  H   UNL     1      -9.441 -10.841  -3.955  0.00  0.00    +0.145 HD
ATOM     43  H   UNL     1      -9.959  -9.952  -5.348  0.00  0.00    +0.145 HD
ENDBRANCH  24  30
ENDBRANCH  14   8
TORSDOF 6
ENDMDL
MODEL 10
REMARK VINA RESULT:      -6.9      3.326     10.800
REMARK  Name = 11911512
REMARK  8 active torsions:
REMARK  status: ('A' for Active; 'I' for Inactive)
REMARK    1  A    between atoms: O_5  and  C_32
REMARK    2  A    between atoms: O_5  and  C_37
REMARK    3  A    between atoms: O_6  and  C_36
REMARK    4  A    between atoms: O_6  and  C_38
REMARK    5  A    between atoms: N_8  and  C_14
REMARK    6  A    between atoms: C_22  and  C_28
REMARK    7  A    between atoms: C_24  and  C_30
REMARK    8  A    between atoms: C_27  and  C_31
REMARK                            x       y       z     vdW  Elec       q    Type
REMARK                         _______ _______ _______ _____ _____    ______ ____
ROOT
ATOM      1  O   UNL     1      23.119   7.708  21.884  0.00  0.00    -0.273 OA
ATOM      2  O   UNL     1      19.380   4.714  19.811  0.00  0.00    -0.270 OA
ATOM      7  N   UNL     1      21.025   5.259  21.356  0.00  0.00    -0.286 N 
ATOM      9  N   UNL     1      20.956   8.217  21.344  0.00  0.00    -0.283 N 
ATOM     14  C   UNL     1      23.502   4.599  22.750  0.00  0.00    +0.113 C 
ATOM     15  C   UNL     1      21.429   6.093  22.483  0.00  0.00    +0.164 C 
ATOM     16  C   UNL     1      22.419   5.432  23.450  0.00  0.00    +0.059 C 
ATOM     17  C   UNL     1      22.847   3.607  21.785  0.00  0.00    +0.046 C 
ATOM     18  C   UNL     1      22.013   4.356  20.757  0.00  0.00    +0.111 C 
ATOM     19  C   UNL     1      21.930   7.386  21.865  0.00  0.00    +0.238 C 
ATOM     20  C   UNL     1      19.812   5.455  20.694  0.00  0.00    +0.249 C 
ATOM     21  C   UNL     1      19.014   6.669  21.015  0.00  0.00    +0.059 A 
ATOM     23  C   UNL     1      19.576   7.945  21.196  0.00  0.00    +0.046 A 
ATOM     25  C   UNL     1      17.618   6.533  20.922  0.00  0.00    +0.023 A 
ATOM     26  C   UNL     1      18.728   9.065  21.212  0.00  0.00    +0.024 A 
ATOM     27  C   UNL     1      16.789   7.651  20.992  0.00  0.00    -0.014 A 
ATOM     29  C   UNL     1      17.344   8.918  21.123  0.00  0.00    +0.010 A 
ATOM     39  H   UNL     1      21.252   9.168  21.137  0.00  0.00    +0.155 HD
ENDROOT
BRANCH  27  31
ATOM     31  C   UNL     1      15.353   7.495  20.901  0.00  0.00    +0.024 A 
ATOM     32  C   UNL     1      14.749   7.095  19.708  0.00  0.00    +0.131 A 
ATOM     33  C   UNL     1      14.568   7.751  22.027  0.00  0.00    +0.016 A 
ATOM     34  C   UNL     1      13.362   6.950  19.641  0.00  0.00    +0.091 A 
ATOM     35  C   UNL     1      13.182   7.606  21.960  0.00  0.00    +0.046 A 
ATOM     36  C   UNL     1      12.580   7.206  20.767  0.00  0.00    +0.124 A 
BRANCH  32   5
ATOM      5  O   UNL     1      15.489   6.839  18.592  0.00  0.00    -0.494 OA
ATOM     37  C   UNL     1      14.938   7.248  17.343  0.00  0.00    +0.277 C 
ENDBRANCH  32   5
BRANCH  36   6
ATOM      6  O   UNL     1      11.227   7.064  20.703  0.00  0.00    -0.495 OA
ATOM     38  C   UNL     1      10.499   7.219  21.920  0.00  0.00    +0.277 C 
ENDBRANCH  36   6
ENDBRANCH  27  31
BRANCH  14   8
ATOM      8  N   UNL     1      24.410   3.949  23.703  0.00  0.00    -0.236 N 
ATOM     10  N   UNL     1      25.736   4.057  23.543  0.00  0.00    -0.064 NA
ATOM     11  N   UNL     1      26.303   3.378  24.534  0.00  0.00    -0.124 NA
ATOM     22  C   UNL     1      24.086   3.206  24.790  0.00  0.00    +0.156 A 
ATOM     24  C   UNL     1      25.306   2.850  25.307  0.00  0.00    +0.179 A 
BRANCH  22  28
ATOM      3  O   UNL     1      21.997   2.106  24.647  0.00  0.00    -0.269 OA
ATOM     12  N   UNL     1      22.322   3.497  26.424  0.00  0.00    -0.324 N 
ATOM     28  C   UNL     1      22.767   2.898  25.240  0.00  0.00    +0.262 C 
ATOM     40  H   UNL     1      22.904   4.137  26.955  0.00  0.00    +0.145 HD
ATOM     41  H   UNL     1      21.396   3.303  26.790  0.00  0.00    +0.145 HD
ENDBRANCH  22  28
BRANCH  24  30
ATOM      4  O   UNL     1      25.226   2.391  27.624  0.00  0.00    -0.269 OA
ATOM     13  N   UNL     1      26.201   0.823  26.287  0.00  0.00    -0.324 N 
ATOM     30  C   UNL     1      25.562   2.054  26.467  0.00  0.00    +0.264 C 
ATOM     42  H   UNL     1      26.488   0.495  25.370  0.00  0.00    +0.145 HD
ATOM     43  H   UNL     1      26.399   0.218  27.077  0.00  0.00    +0.145 HD
ENDBRANCH  24  30
ENDBRANCH  14   8
TORSDOF 6
ENDMDL
