MODEL 1
REMARK VINA RESULT:      -6.9      0.000      0.000
REMARK  Name = 11883287
REMARK  8 active torsions:
REMARK  status: ('A' for Active; 'I' for Inactive)
REMARK    1  A    between atoms: S_1  and  N_9
REMARK    2  A    between atoms: S_1  and  C_19
REMARK    3  A    between atoms: O_4  and  C_15
REMARK    4  A    between atoms: O_4  and  C_18
REMARK    5  A    between atoms: N_9  and  C_14
REMARK    6  A    between atoms: N_11  and  C_25
REMARK    7  A    between atoms: C_18  and  C_20
REMARK    8  A    between atoms: C_26  and  C_27
REMARK                            x       y       z     vdW  Elec       q    Type
REMARK                         _______ _______ _______ _____ _____    ______ ____
ROOT
ATOM      9  N   UNL     1      18.396   6.882  21.765  0.00  0.00    -0.182 NA
ATOM     28  H   UNL     1      17.893   6.260  22.409  0.00  0.00    +0.148 HD
ENDROOT
BRANCH   9  14
ATOM      2  O   UNL     1      15.698   6.176  20.348  0.00  0.00    -0.370 OA
ATOM      3  O   UNL     1      15.933   9.242  20.361  0.00  0.00    -0.370 OA
ATOM     12  C   UNL     1      16.415   8.238  21.279  0.00  0.00    +0.170 C 
ATOM     13  C   UNL     1      15.355   7.155  21.342  0.00  0.00    +0.179 C 
ATOM     14  C   UNL     1      17.615   7.538  20.690  0.00  0.00    +0.133 C 
ATOM     15  C   UNL     1      14.097   7.906  20.976  0.00  0.00    +0.176 C 
ATOM     16  C   UNL     1      16.987   6.485  19.796  0.00  0.00    +0.183 C 
ATOM     17  C   UNL     1      14.603   8.895  19.950  0.00  0.00    +0.194 C 
BRANCH  15   4
ATOM      4  O   UNL     1      13.078   7.080  20.460  0.00  0.00    -0.362 OA
BRANCH   4  18
ATOM     18  C   UNL     1      12.075   6.799  21.434  0.00  0.00    +0.255 C 
BRANCH  18  20
ATOM      7  O   UNL     1      10.677   8.216  20.063  0.00  0.00    -0.274 OA
ATOM     10  N   UNL     1       9.817   7.365  22.021  0.00  0.00    -0.327 N 
ATOM     20  C   UNL     1      10.806   7.539  21.078  0.00  0.00    +0.236 C 
ATOM     29  H   UNL     1       9.952   6.799  22.851  0.00  0.00    +0.145 HD
ATOM     30  H   UNL     1       8.909   7.805  21.911  0.00  0.00    +0.145 HD
ENDBRANCH  18  20
ENDBRANCH   4  18
ENDBRANCH  15   4
ENDBRANCH   9  14
BRANCH   9   1
ATOM      1  S   UNL     1      19.947   7.454  22.151  0.00  0.00    +0.059 S 
ATOM      5  O   UNL     1      19.948   7.966  23.509  0.00  0.00    -0.153 OA
ATOM      6  O   UNL     1      20.425   8.281  21.059  0.00  0.00    -0.153 OA
BRANCH   1  19
ATOM     19  C   UNL     1      20.901   5.966  22.128  0.00  0.00    +0.105 A 
ATOM     21  C   UNL     1      20.717   5.061  21.098  0.00  0.00    +0.030 A 
ATOM     22  C   UNL     1      21.816   5.736  23.141  0.00  0.00    +0.030 A 
ATOM     23  C   UNL     1      21.470   3.887  21.081  0.00  0.00    +0.025 A 
ATOM     24  C   UNL     1      22.570   4.563  23.123  0.00  0.00    +0.025 A 
ATOM     25  C   UNL     1      22.397   3.638  22.093  0.00  0.00    +0.033 A 
BRANCH  25  11
ATOM      8  O   UNL     1      24.486   2.689  20.144  0.00  0.00    -0.276 OA
ATOM     11  N   UNL     1      23.152   2.465  22.074  0.00  0.00    -0.286 N 
ATOM     26  C   UNL     1      24.115   2.071  21.136  0.00  0.00    +0.214 C 
ATOM     27  C   UNL     1      24.706   0.726  21.472  0.00  0.00    +0.109 C 
ATOM     31  H   UNL     1      22.972   1.821  22.842  0.00  0.00    +0.155 HD
ENDBRANCH  25  11
ENDBRANCH   1  19
ENDBRANCH   9   1
TORSDOF 7
ENDMDL
MODEL 2
REMARK VINA RESULT:      -6.9      3.497     10.104
REMARK  Name = 11883287
REMARK  8 active torsions:
REMARK  status: ('A' for Active; 'I' for Inactive)
REMARK    1  A    between atoms: S_1  and  N_9
REMARK    2  A    between atoms: S_1  and  C_19
REMARK    3  A    between atoms: O_4  and  C_15
REMARK    4  A    between atoms: O_4  and  C_18
REMARK    5  A    between atoms: N_9  and  C_14
REMARK    6  A    between atoms: N_11  and  C_25
REMARK    7  A    between atoms: C_18  and  C_20
REMARK    8  A    between atoms: C_26  and  C_27
REMARK                            x       y       z     vdW  Elec       q    Type
REMARK                         _______ _______ _______ _____ _____    ______ ____
ROOT
ATOM      9  N   UNL     1      13.657   7.868  19.347  0.00  0.00    -0.182 NA
ATOM     28  H   UNL     1      14.070   8.005  18.417  0.00  0.00    +0.148 HD
ENDROOT
BRANCH   9  14
ATOM      2  O   UNL     1      15.819   6.265  20.940  0.00  0.00    -0.370 OA
ATOM      3  O   UNL     1      16.594   9.236  21.113  0.00  0.00    -0.370 OA
ATOM     12  C   UNL     1      15.909   8.479  20.092  0.00  0.00    +0.170 C 
ATOM     13  C   UNL     1      16.562   7.111  20.048  0.00  0.00    +0.179 C 
ATOM     14  C   UNL     1      14.493   8.193  20.527  0.00  0.00    +0.133 C 
ATOM     15  C   UNL     1      17.951   7.393  20.570  0.00  0.00    +0.176 C 
ATOM     16  C   UNL     1      14.651   6.962  21.399  0.00  0.00    +0.183 C 
ATOM     17  C   UNL     1      17.689   8.457  21.613  0.00  0.00    +0.194 C 
BRANCH  15   4
ATOM      4  O   UNL     1      18.587   6.260  21.115  0.00  0.00    -0.362 OA
BRANCH   4  18
ATOM     18  C   UNL     1      19.890   6.566  21.608  0.00  0.00    +0.255 C 
BRANCH  18  20
ATOM      7  O   UNL     1      21.845   6.930  20.234  0.00  0.00    -0.274 OA
ATOM     10  N   UNL     1      20.710   4.937  20.046  0.00  0.00    -0.327 N 
ATOM     20  C   UNL     1      20.923   6.193  20.570  0.00  0.00    +0.236 C 
ATOM     29  H   UNL     1      19.938   4.349  20.342  0.00  0.00    +0.145 HD
ATOM     30  H   UNL     1      21.328   4.555  19.338  0.00  0.00    +0.145 HD
ENDBRANCH  18  20
ENDBRANCH   4  18
ENDBRANCH  15   4
ENDBRANCH   9  14
BRANCH   9   1
ATOM      1  S   UNL     1      11.980   7.677  19.528  0.00  0.00    +0.059 S 
ATOM      5  O   UNL     1      11.703   6.384  20.127  0.00  0.00    -0.153 OA
ATOM      6  O   UNL     1      11.330   8.062  18.290  0.00  0.00    -0.153 OA
BRANCH   1  19
ATOM     19  C   UNL     1      11.597   8.924  20.722  0.00  0.00    +0.105 A 
ATOM     21  C   UNL     1      10.907   8.573  21.868  0.00  0.00    +0.030 A 
ATOM     22  C   UNL     1      11.996  10.228  20.486  0.00  0.00    +0.030 A 
ATOM     23  C   UNL     1      10.605   9.557  22.809  0.00  0.00    +0.025 A 
ATOM     24  C   UNL     1      11.695  11.212  21.428  0.00  0.00    +0.025 A 
ATOM     25  C   UNL     1      10.999  10.877  22.589  0.00  0.00    +0.033 A 
BRANCH  25  11
ATOM      8  O   UNL     1      12.117  11.350  25.344  0.00  0.00    -0.276 OA
ATOM     11  N   UNL     1      10.699  11.861  23.531  0.00  0.00    -0.286 N 
ATOM     26  C   UNL     1      11.252  12.034  24.807  0.00  0.00    +0.214 C 
ATOM     27  C   UNL     1      10.655  13.222  25.519  0.00  0.00    +0.109 C 
ATOM     31  H   UNL     1       9.987  12.530  23.247  0.00  0.00    +0.155 HD
ENDBRANCH  25  11
ENDBRANCH   1  19
ENDBRANCH   9   1
TORSDOF 7
ENDMDL
MODEL 3
REMARK VINA RESULT:      -6.7     18.954     21.253
REMARK  Name = 11883287
REMARK  8 active torsions:
REMARK  status: ('A' for Active; 'I' for Inactive)
REMARK    1  A    between atoms: S_1  and  N_9
REMARK    2  A    between atoms: S_1  and  C_19
REMARK    3  A    between atoms: O_4  and  C_15
REMARK    4  A    between atoms: O_4  and  C_18
REMARK    5  A    between atoms: N_9  and  C_14
REMARK    6  A    between atoms: N_11  and  C_25
REMARK    7  A    between atoms: C_18  and  C_20
REMARK    8  A    between atoms: C_26  and  C_27
REMARK                            x       y       z     vdW  Elec       q    Type
REMARK                         _______ _______ _______ _____ _____    ______ ____
ROOT
ATOM      9  N   UNL     1      11.456   6.420   2.217  0.00  0.00    -0.182 NA
ATOM     28  H   UNL     1      10.759   6.845   1.593  0.00  0.00    +0.148 HD
ENDROOT
BRANCH   9  14
ATOM      2  O   UNL     1      10.258   4.047   0.569  0.00  0.00    -0.370 OA
ATOM      3  O   UNL     1      13.311   3.942   0.211  0.00  0.00    -0.370 OA
ATOM     12  C   UNL     1      12.406   5.045   0.427  0.00  0.00    +0.170 C 
ATOM     13  C   UNL     1      11.137   4.729  -0.340  0.00  0.00    +0.179 C 
ATOM     14  C   UNL     1      11.963   5.072   1.869  0.00  0.00    +0.133 C 
ATOM     15  C   UNL     1      11.633   3.812  -1.433  0.00  0.00    +0.176 C 
ATOM     16  C   UNL     1      10.822   4.073   1.889  0.00  0.00    +0.183 C 
ATOM     17  C   UNL     1      12.717   3.031  -0.724  0.00  0.00    +0.194 C 
BRANCH  15   4
ATOM      4  O   UNL     1      10.631   2.973  -1.960  0.00  0.00    -0.362 OA
BRANCH   4  18
ATOM     18  C   UNL     1      10.150   3.442  -3.217  0.00  0.00    +0.255 C 
BRANCH  18  20
ATOM      7  O   UNL     1       8.986   1.330  -3.373  0.00  0.00    -0.274 OA
ATOM     10  N   UNL     1       9.369   2.532  -5.297  0.00  0.00    -0.327 N 
ATOM     20  C   UNL     1       9.442   2.319  -3.939  0.00  0.00    +0.236 C 
ATOM     29  H   UNL     1       9.756   3.359  -5.739  0.00  0.00    +0.145 HD
ATOM     30  H   UNL     1       8.920   1.857  -5.908  0.00  0.00    +0.145 HD
ENDBRANCH  18  20
ENDBRANCH   4  18
ENDBRANCH  15   4
ENDBRANCH   9  14
BRANCH   9   1
ATOM      1  S   UNL     1      12.288   7.368   3.353  0.00  0.00    +0.059 S 
ATOM      5  O   UNL     1      12.047   8.772   3.081  0.00  0.00    -0.153 OA
ATOM      6  O   UNL     1      13.646   6.870   3.471  0.00  0.00    -0.153 OA
BRANCH   1  19
ATOM     19  C   UNL     1      11.454   6.953   4.856  0.00  0.00    +0.105 A 
ATOM     21  C   UNL     1      10.135   6.539   4.805  0.00  0.00    +0.030 A 
ATOM     22  C   UNL     1      12.138   7.049   6.055  0.00  0.00    +0.030 A 
ATOM     23  C   UNL     1       9.477   6.212   5.990  0.00  0.00    +0.025 A 
ATOM     24  C   UNL     1      11.481   6.721   7.241  0.00  0.00    +0.025 A 
ATOM     25  C   UNL     1      10.150   6.303   7.209  0.00  0.00    +0.033 A 
BRANCH  25  11
ATOM      8  O   UNL     1      10.158   3.749   8.804  0.00  0.00    -0.276 OA
ATOM     11  N   UNL     1       9.493   5.974   8.395  0.00  0.00    -0.286 N 
ATOM     26  C   UNL     1       9.531   4.762   9.097  0.00  0.00    +0.214 C 
ATOM     27  C   UNL     1       8.677   4.808  10.339  0.00  0.00    +0.109 C 
ATOM     31  H   UNL     1       8.916   6.713   8.790  0.00  0.00    +0.155 HD
ENDBRANCH  25  11
ENDBRANCH   1  19
ENDBRANCH   9   1
TORSDOF 7
ENDMDL
MODEL 4
REMARK VINA RESULT:      -6.6     28.318     30.328
REMARK  Name = 11883287
REMARK  8 active torsions:
REMARK  status: ('A' for Active; 'I' for Inactive)
REMARK    1  A    between atoms: S_1  and  N_9
REMARK    2  A    between atoms: S_1  and  C_19
REMARK    3  A    between atoms: O_4  and  C_15
REMARK    4  A    between atoms: O_4  and  C_18
REMARK    5  A    between atoms: N_9  and  C_14
REMARK    6  A    between atoms: N_11  and  C_25
REMARK    7  A    between atoms: C_18  and  C_20
REMARK    8  A    between atoms: C_26  and  C_27
REMARK                            x       y       z     vdW  Elec       q    Type
REMARK                         _______ _______ _______ _____ _____    ______ ____
ROOT
ATOM      9  N   UNL     1      -3.385 -10.239  13.539  0.00  0.00    -0.182 NA
ATOM     28  H   UNL     1      -3.686  -9.258  13.584  0.00  0.00    +0.148 HD
ENDROOT
BRANCH   9  14
ATOM      2  O   UNL     1      -4.248 -10.437  16.539  0.00  0.00    -0.370 OA
ATOM      3  O   UNL     1      -6.451 -11.794  14.877  0.00  0.00    -0.370 OA
ATOM     12  C   UNL     1      -5.555 -10.704  14.576  0.00  0.00    +0.170 C 
ATOM     13  C   UNL     1      -5.393  -9.903  15.853  0.00  0.00    +0.179 C 
ATOM     14  C   UNL     1      -4.170 -11.237  14.303  0.00  0.00    +0.133 C 
ATOM     15  C   UNL     1      -6.676 -10.200  16.592  0.00  0.00    +0.176 C 
ATOM     16  C   UNL     1      -3.588 -11.392  15.695  0.00  0.00    +0.183 C 
ATOM     17  C   UNL     1      -6.930 -11.644  16.220  0.00  0.00    +0.194 C 
BRANCH  15   4
ATOM      4  O   UNL     1      -6.577 -10.020  17.987  0.00  0.00    -0.362 OA
BRANCH   4  18
ATOM     18  C   UNL     1      -6.809 -11.234  18.698  0.00  0.00    +0.255 C 
BRANCH  18  20
ATOM      7  O   UNL     1      -5.913 -11.229  20.943  0.00  0.00    -0.274 OA
ATOM     10  N   UNL     1      -4.537 -11.826  19.197  0.00  0.00    -0.327 N 
ATOM     20  C   UNL     1      -5.734 -11.420  19.743  0.00  0.00    +0.236 C 
ATOM     29  H   UNL     1      -4.417 -11.975  18.202  0.00  0.00    +0.145 HD
ATOM     30  H   UNL     1      -3.725 -11.990  19.784  0.00  0.00    +0.145 HD
ENDBRANCH  18  20
ENDBRANCH   4  18
ENDBRANCH  15   4
ENDBRANCH   9  14
BRANCH   9   1
ATOM      1  S   UNL     1      -2.304 -10.756  12.336  0.00  0.00    +0.059 S 
ATOM      5  O   UNL     1      -2.126 -12.193  12.432  0.00  0.00    -0.153 OA
ATOM      6  O   UNL     1      -1.151  -9.876  12.335  0.00  0.00    -0.153 OA
BRANCH   1  19
ATOM     19  C   UNL     1      -3.214 -10.416  10.859  0.00  0.00    +0.105 A 
ATOM     21  C   UNL     1      -3.851 -11.455  10.203  0.00  0.00    +0.030 A 
ATOM     22  C   UNL     1      -3.271  -9.117  10.386  0.00  0.00    +0.030 A 
ATOM     23  C   UNL     1      -4.568 -11.187   9.038  0.00  0.00    +0.025 A 
ATOM     24  C   UNL     1      -3.989  -8.848   9.220  0.00  0.00    +0.025 A 
ATOM     25  C   UNL     1      -4.637  -9.883   8.546  0.00  0.00    +0.033 A 
BRANCH  25  11
ATOM      8  O   UNL     1      -7.584  -9.425   8.130  0.00  0.00    -0.276 OA
ATOM     11  N   UNL     1      -5.356  -9.614   7.381  0.00  0.00    -0.286 N 
ATOM     26  C   UNL     1      -6.736  -9.410   7.244  0.00  0.00    +0.214 C 
ATOM     27  C   UNL     1      -7.122  -9.147   5.810  0.00  0.00    +0.109 C 
ATOM     31  H   UNL     1      -4.800  -9.563   6.530  0.00  0.00    +0.155 HD
ENDBRANCH  25  11
ENDBRANCH   1  19
ENDBRANCH   9   1
TORSDOF 7
ENDMDL
MODEL 5
REMARK VINA RESULT:      -6.5     28.730     30.527
REMARK  Name = 11883287
REMARK  8 active torsions:
REMARK  status: ('A' for Active; 'I' for Inactive)
REMARK    1  A    between atoms: S_1  and  N_9
REMARK    2  A    between atoms: S_1  and  C_19
REMARK    3  A    between atoms: O_4  and  C_15
REMARK    4  A    between atoms: O_4  and  C_18
REMARK    5  A    between atoms: N_9  and  C_14
REMARK    6  A    between atoms: N_11  and  C_25
REMARK    7  A    between atoms: C_18  and  C_20
REMARK    8  A    between atoms: C_26  and  C_27
REMARK                            x       y       z     vdW  Elec       q    Type
REMARK                         _______ _______ _______ _____ _____    ______ ____
ROOT
ATOM      9  N   UNL     1      -4.169 -11.403  13.643  0.00  0.00    -0.182 NA
ATOM     28  H   UNL     1      -4.742 -12.247  13.525  0.00  0.00    +0.148 HD
ENDROOT
BRANCH   9  14
ATOM      2  O   UNL     1      -6.128 -11.353  16.080  0.00  0.00    -0.370 OA
ATOM      3  O   UNL     1      -3.272 -11.314  17.220  0.00  0.00    -0.370 OA
ATOM     12  C   UNL     1      -3.818 -11.894  16.016  0.00  0.00    +0.170 C 
ATOM     13  C   UNL     1      -5.200 -12.411  16.367  0.00  0.00    +0.179 C 
ATOM     14  C   UNL     1      -4.082 -10.812  14.999  0.00  0.00    +0.133 C 
ATOM     15  C   UNL     1      -5.087 -12.670  17.850  0.00  0.00    +0.176 C 
ATOM     16  C   UNL     1      -5.441 -10.282  15.415  0.00  0.00    +0.183 C 
ATOM     17  C   UNL     1      -4.185 -11.544  18.302  0.00  0.00    +0.194 C 
BRANCH  15   4
ATOM      4  O   UNL     1      -6.328 -12.658  18.519  0.00  0.00    -0.362 OA
BRANCH   4  18
ATOM     18  C   UNL     1      -6.378 -11.653  19.530  0.00  0.00    +0.255 C 
BRANCH  18  20
ATOM      7  O   UNL     1      -8.676 -11.030  19.944  0.00  0.00    -0.274 OA
ATOM     10  N   UNL     1      -7.442  -9.794  18.445  0.00  0.00    -0.327 N 
ATOM     20  C   UNL     1      -7.624 -10.817  19.349  0.00  0.00    +0.236 C 
ATOM     29  H   UNL     1      -6.561  -9.642  17.967  0.00  0.00    +0.145 HD
ATOM     30  H   UNL     1      -8.197  -9.152  18.226  0.00  0.00    +0.145 HD
ENDBRANCH  18  20
ENDBRANCH   4  18
ENDBRANCH  15   4
ENDBRANCH   9  14
BRANCH   9   1
ATOM      1  S   UNL     1      -3.051 -10.946  12.450  0.00  0.00    +0.059 S 
ATOM      5  O   UNL     1      -2.601 -12.124  11.732  0.00  0.00    -0.153 OA
ATOM      6  O   UNL     1      -2.085 -10.037  13.038  0.00  0.00    -0.153 OA
BRANCH   1  19
ATOM     19  C   UNL     1      -4.057  -9.991  11.354  0.00  0.00    +0.105 A 
ATOM     21  C   UNL     1      -5.331  -9.626  11.751  0.00  0.00    +0.030 A 
ATOM     22  C   UNL     1      -3.549  -9.625  10.119  0.00  0.00    +0.030 A 
ATOM     23  C   UNL     1      -6.124  -8.873  10.886  0.00  0.00    +0.025 A 
ATOM     24  C   UNL     1      -4.343  -8.871   9.254  0.00  0.00    +0.025 A 
ATOM     25  C   UNL     1      -5.630  -8.495   9.637  0.00  0.00    +0.033 A 
BRANCH  25  11
ATOM      8  O   UNL     1      -7.923  -9.317   7.867  0.00  0.00    -0.276 OA
ATOM     11  N   UNL     1      -6.423  -7.740   8.773  0.00  0.00    -0.286 N 
ATOM     26  C   UNL     1      -7.482  -8.177   7.966  0.00  0.00    +0.214 C 
ATOM     27  C   UNL     1      -8.086  -7.045   7.174  0.00  0.00    +0.109 C 
ATOM     31  H   UNL     1      -6.195  -6.749   8.730  0.00  0.00    +0.155 HD
ENDBRANCH  25  11
ENDBRANCH   1  19
ENDBRANCH   9   1
TORSDOF 7
ENDMDL
MODEL 6
REMARK VINA RESULT:      -6.3     31.071     34.768
REMARK  Name = 11883287
REMARK  8 active torsions:
REMARK  status: ('A' for Active; 'I' for Inactive)
REMARK    1  A    between atoms: S_1  and  N_9
REMARK    2  A    between atoms: S_1  and  C_19
REMARK    3  A    between atoms: O_4  and  C_15
REMARK    4  A    between atoms: O_4  and  C_18
REMARK    5  A    between atoms: N_9  and  C_14
REMARK    6  A    between atoms: N_11  and  C_25
REMARK    7  A    between atoms: C_18  and  C_20
REMARK    8  A    between atoms: C_26  and  C_27
REMARK                            x       y       z     vdW  Elec       q    Type
REMARK                         _______ _______ _______ _____ _____    ______ ____
ROOT
ATOM      9  N   UNL     1     -17.179   2.847  25.696  0.00  0.00    -0.182 NA
ATOM     28  H   UNL     1     -16.394   2.199  25.560  0.00  0.00    +0.148 HD
ENDROOT
BRANCH   9  14
ATOM      2  O   UNL     1     -16.810   1.589  28.536  0.00  0.00    -0.370 OA
ATOM      3  O   UNL     1     -16.359   4.617  28.827  0.00  0.00    -0.370 OA
ATOM     12  C   UNL     1     -16.121   3.711  27.728  0.00  0.00    +0.170 C 
ATOM     13  C   UNL     1     -15.645   2.404  28.332  0.00  0.00    +0.179 C 
ATOM     14  C   UNL     1     -17.428   3.352  27.067  0.00  0.00    +0.133 C 
ATOM     15  C   UNL     1     -15.038   2.849  29.642  0.00  0.00    +0.176 C 
ATOM     16  C   UNL     1     -17.950   2.227  27.941  0.00  0.00    +0.183 C 
ATOM     17  C   UNL     1     -15.953   3.983  30.048  0.00  0.00    +0.194 C 
BRANCH  15   4
ATOM      4  O   UNL     1     -14.990   1.831  30.615  0.00  0.00    -0.362 OA
BRANCH   4  18
ATOM     18  C   UNL     1     -13.765   1.103  30.565  0.00  0.00    +0.255 C 
BRANCH  18  20
ATOM      7  O   UNL     1     -15.155  -0.827  30.136  0.00  0.00    -0.274 OA
ATOM     10  N   UNL     1     -12.897  -0.969  29.717  0.00  0.00    -0.327 N 
ATOM     20  C   UNL     1     -14.039  -0.317  30.127  0.00  0.00    +0.236 C 
ATOM     29  H   UNL     1     -11.986  -0.522  29.720  0.00  0.00    +0.145 HD
ATOM     30  H   UNL     1     -12.932  -1.930  29.395  0.00  0.00    +0.145 HD
ENDBRANCH  18  20
ENDBRANCH   4  18
ENDBRANCH  15   4
ENDBRANCH   9  14
BRANCH   9   1
ATOM      1  S   UNL     1     -17.898   3.622  24.367  0.00  0.00    +0.059 S 
ATOM      5  O   UNL     1     -18.707   4.732  24.835  0.00  0.00    -0.153 OA
ATOM      6  O   UNL     1     -18.473   2.615  23.495  0.00  0.00    -0.153 OA
BRANCH   1  19
ATOM     19  C   UNL     1     -16.491   4.288  23.529  0.00  0.00    +0.105 A 
ATOM     21  C   UNL     1     -15.259   4.270  24.157  0.00  0.00    +0.030 A 
ATOM     22  C   UNL     1     -16.650   4.814  22.259  0.00  0.00    +0.030 A 
ATOM     23  C   UNL     1     -14.150   4.796  23.495  0.00  0.00    +0.025 A 
ATOM     24  C   UNL     1     -15.540   5.339  21.596  0.00  0.00    +0.025 A 
ATOM     25  C   UNL     1     -14.290   5.331  22.215  0.00  0.00    +0.033 A 
BRANCH  25  11
ATOM      8  O   UNL     1     -13.569   8.180  21.560  0.00  0.00    -0.276 OA
ATOM     11  N   UNL     1     -13.180   5.855  21.552  0.00  0.00    -0.286 N 
ATOM     26  C   UNL     1     -12.895   7.198  21.271  0.00  0.00    +0.214 C 
ATOM     27  C   UNL     1     -11.589   7.349  20.533  0.00  0.00    +0.109 C 
ATOM     31  H   UNL     1     -12.499   5.168  21.236  0.00  0.00    +0.155 HD
ENDBRANCH  25  11
ENDBRANCH   1  19
ENDBRANCH   9   1
TORSDOF 7
ENDMDL
MODEL 7
REMARK VINA RESULT:      -6.2     29.745     33.406
REMARK  Name = 11883287
REMARK  8 active torsions:
REMARK  status: ('A' for Active; 'I' for Inactive)
REMARK    1  A    between atoms: S_1  and  N_9
REMARK    2  A    between atoms: S_1  and  C_19
REMARK    3  A    between atoms: O_4  and  C_15
REMARK    4  A    between atoms: O_4  and  C_18
REMARK    5  A    between atoms: N_9  and  C_14
REMARK    6  A    between atoms: N_11  and  C_25
REMARK    7  A    between atoms: C_18  and  C_20
REMARK    8  A    between atoms: C_26  and  C_27
REMARK                            x       y       z     vdW  Elec       q    Type
REMARK                         _______ _______ _______ _____ _____    ______ ____
ROOT
ATOM      9  N   UNL     1     -13.529   6.578  32.530  0.00  0.00    -0.182 NA
ATOM     28  H   UNL     1     -12.573   6.255  32.338  0.00  0.00    +0.148 HD
ENDROOT
BRANCH   9  14
ATOM      2  O   UNL     1     -14.927   4.190  31.073  0.00  0.00    -0.370 OA
ATOM      3  O   UNL     1     -14.666   3.408  34.036  0.00  0.00    -0.370 OA
ATOM     12  C   UNL     1     -13.848   4.240  33.186  0.00  0.00    +0.170 C 
ATOM     13  C   UNL     1     -13.847   3.598  31.812  0.00  0.00    +0.179 C 
ATOM     14  C   UNL     1     -14.525   5.570  32.964  0.00  0.00    +0.133 C 
ATOM     15  C   UNL     1     -14.115   2.145  32.129  0.00  0.00    +0.176 C 
ATOM     16  C   UNL     1     -15.486   5.275  31.828  0.00  0.00    +0.183 C 
ATOM     17  C   UNL     1     -15.069   2.246  33.298  0.00  0.00    +0.194 C 
BRANCH  15   4
ATOM      4  O   UNL     1     -14.671   1.428  31.050  0.00  0.00    -0.362 OA
BRANCH   4  18
ATOM     18  C   UNL     1     -13.670   0.956  30.152  0.00  0.00    +0.255 C 
BRANCH  18  20
ATOM      7  O   UNL     1     -13.175  -1.180  29.135  0.00  0.00    -0.274 OA
ATOM     10  N   UNL     1     -15.016  -1.000  30.504  0.00  0.00    -0.327 N 
ATOM     20  C   UNL     1     -13.901  -0.509  29.862  0.00  0.00    +0.236 C 
ATOM     29  H   UNL     1     -15.599  -0.422  31.099  0.00  0.00    +0.145 HD
ATOM     30  H   UNL     1     -15.292  -1.971  30.399  0.00  0.00    +0.145 HD
ENDBRANCH  18  20
ENDBRANCH   4  18
ENDBRANCH  15   4
ENDBRANCH   9  14
BRANCH   9   1
ATOM      1  S   UNL     1     -13.856   8.231  32.738  0.00  0.00    +0.059 S 
ATOM      5  O   UNL     1     -14.742   8.409  33.873  0.00  0.00    -0.153 OA
ATOM      6  O   UNL     1     -14.193   8.807  31.450  0.00  0.00    -0.153 OA
BRANCH   1  19
ATOM     19  C   UNL     1     -12.266   8.863  33.185  0.00  0.00    +0.105 A 
ATOM     21  C   UNL     1     -11.316   9.062  32.198  0.00  0.00    +0.030 A 
ATOM     22  C   UNL     1     -12.002   9.148  34.513  0.00  0.00    +0.030 A 
ATOM     23  C   UNL     1     -10.063   9.560  32.551  0.00  0.00    +0.025 A 
ATOM     24  C   UNL     1     -10.748   9.647  34.866  0.00  0.00    +0.025 A 
ATOM     25  C   UNL     1      -9.778   9.853  33.885  0.00  0.00    +0.033 A 
BRANCH  25  11
ATOM      8  O   UNL     1      -8.599  12.600  33.526  0.00  0.00    -0.276 OA
ATOM     11  N   UNL     1      -8.524  10.354  34.237  0.00  0.00    -0.286 N 
ATOM     26  C   UNL     1      -8.024  11.648  34.043  0.00  0.00    +0.214 C 
ATOM     27  C   UNL     1      -6.617  11.788  34.567  0.00  0.00    +0.109 C 
ATOM     31  H   UNL     1      -7.903   9.687  34.690  0.00  0.00    +0.155 HD
ENDBRANCH  25  11
ENDBRANCH   1  19
ENDBRANCH   9   1
TORSDOF 7
ENDMDL
MODEL 8
REMARK VINA RESULT:      -6.2     27.360     32.343
REMARK  Name = 11883287
REMARK  8 active torsions:
REMARK  status: ('A' for Active; 'I' for Inactive)
REMARK    1  A    between atoms: S_1  and  N_9
REMARK    2  A    between atoms: S_1  and  C_19
REMARK    3  A    between atoms: O_4  and  C_15
REMARK    4  A    between atoms: O_4  and  C_18
REMARK    5  A    between atoms: N_9  and  C_14
REMARK    6  A    between atoms: N_11  and  C_25
REMARK    7  A    between atoms: C_18  and  C_20
REMARK    8  A    between atoms: C_26  and  C_27
REMARK                            x       y       z     vdW  Elec       q    Type
REMARK                         _______ _______ _______ _____ _____    ______ ____
ROOT
ATOM      9  N   UNL     1      -8.998 -10.161  18.712  0.00  0.00    -0.182 NA
ATOM     28  H   UNL     1      -8.518  -9.531  19.367  0.00  0.00    +0.148 HD
ENDROOT
BRANCH   9  14
ATOM      2  O   UNL     1      -6.924 -10.108  16.372  0.00  0.00    -0.370 OA
ATOM      3  O   UNL     1      -6.085 -12.381  18.266  0.00  0.00    -0.370 OA
ATOM     12  C   UNL     1      -6.756 -11.126  18.509  0.00  0.00    +0.170 C 
ATOM     13  C   UNL     1      -6.135 -10.108  17.573  0.00  0.00    +0.179 C 
ATOM     14  C   UNL     1      -8.191 -11.213  18.051  0.00  0.00    +0.133 C 
ATOM     15  C   UNL     1      -4.756 -10.678  17.336  0.00  0.00    +0.176 C 
ATOM     16  C   UNL     1      -8.089 -10.924  16.565  0.00  0.00    +0.183 C 
ATOM     17  C   UNL     1      -5.025 -12.166  17.325  0.00  0.00    +0.194 C 
BRANCH  15   4
ATOM      4  O   UNL     1      -4.163 -10.236  16.136  0.00  0.00    -0.362 OA
BRANCH   4  18
ATOM     18  C   UNL     1      -3.316 -11.230  15.563  0.00  0.00    +0.255 C 
BRANCH  18  20
ATOM      7  O   UNL     1      -1.508 -10.107  14.418  0.00  0.00    -0.274 OA
ATOM     10  N   UNL     1      -1.153 -10.895  16.550  0.00  0.00    -0.327 N 
ATOM     20  C   UNL     1      -1.916 -10.680  15.424  0.00  0.00    +0.236 C 
ATOM     29  H   UNL     1      -1.516 -11.372  17.368  0.00  0.00    +0.145 HD
ATOM     30  H   UNL     1      -0.190 -10.578  16.597  0.00  0.00    +0.145 HD
ENDBRANCH  18  20
ENDBRANCH   4  18
ENDBRANCH  15   4
ENDBRANCH   9  14
BRANCH   9   1
ATOM      1  S   UNL     1     -10.692 -10.263  18.697  0.00  0.00    +0.059 S 
ATOM      5  O   UNL     1     -11.206  -9.968  20.022  0.00  0.00    -0.153 OA
ATOM      6  O   UNL     1     -11.081 -11.484  18.018  0.00  0.00    -0.153 OA
BRANCH   1  19
ATOM     19  C   UNL     1     -11.129  -8.920  17.633  0.00  0.00    +0.105 A 
ATOM     21  C   UNL     1     -12.426  -8.827  17.158  0.00  0.00    +0.030 A 
ATOM     22  C   UNL     1     -10.165  -7.987  17.295  0.00  0.00    +0.030 A 
ATOM     23  C   UNL     1     -12.769  -7.768  16.319  0.00  0.00    +0.025 A 
ATOM     24  C   UNL     1     -10.509  -6.927  16.455  0.00  0.00    +0.025 A 
ATOM     25  C   UNL     1     -11.811  -6.818  15.967  0.00  0.00    +0.033 A 
BRANCH  25  11
ATOM      8  O   UNL     1     -12.284  -6.750  12.994  0.00  0.00    -0.276 OA
ATOM     11  N   UNL     1     -12.155  -5.757  15.129  0.00  0.00    -0.286 N 
ATOM     26  C   UNL     1     -12.362  -5.782  13.743  0.00  0.00    +0.214 C 
ATOM     27  C   UNL     1     -12.721  -4.419  13.207  0.00  0.00    +0.109 C 
ATOM     31  H   UNL     1     -12.267  -4.858  15.591  0.00  0.00    +0.155 HD
ENDBRANCH  25  11
ENDBRANCH   1  19
ENDBRANCH   9   1
TORSDOF 7
ENDMDL
MODEL 9
REMARK VINA RESULT:      -6.1      1.912      2.314
REMARK  Name = 11883287
REMARK  8 active torsions:
REMARK  status: ('A' for Active; 'I' for Inactive)
REMARK    1  A    between atoms: S_1  and  N_9
REMARK    2  A    between atoms: S_1  and  C_19
REMARK    3  A    between atoms: O_4  and  C_15
REMARK    4  A    between atoms: O_4  and  C_18
REMARK    5  A    between atoms: N_9  and  C_14
REMARK    6  A    between atoms: N_11  and  C_25
REMARK    7  A    between atoms: C_18  and  C_20
REMARK    8  A    between atoms: C_26  and  C_27
REMARK                            x       y       z     vdW  Elec       q    Type
REMARK                         _______ _______ _______ _____ _____    ______ ____
ROOT
ATOM      9  N   UNL     1      17.488   8.780  22.166  0.00  0.00    -0.182 NA
ATOM     28  H   UNL     1      17.213   8.510  23.118  0.00  0.00    +0.148 HD
ENDROOT
BRANCH   9  14
ATOM      2  O   UNL     1      14.484   7.915  22.079  0.00  0.00    -0.370 OA
ATOM      3  O   UNL     1      14.714  10.532  20.479  0.00  0.00    -0.370 OA
ATOM     12  C   UNL     1      15.456  10.029  21.611  0.00  0.00    +0.170 C 
ATOM     13  C   UNL     1      14.466   9.292  22.492  0.00  0.00    +0.179 C 
ATOM     14  C   UNL     1      16.414   8.954  21.160  0.00  0.00    +0.133 C 
ATOM     15  C   UNL     1      13.157   9.962  22.149  0.00  0.00    +0.176 C 
ATOM     16  C   UNL     1      15.538   7.715  21.126  0.00  0.00    +0.183 C 
ATOM     17  C   UNL     1      13.322  10.244  20.672  0.00  0.00    +0.194 C 
BRANCH  15   4
ATOM      4  O   UNL     1      12.028   9.161  22.414  0.00  0.00    -0.362 OA
BRANCH   4  18
ATOM     18  C   UNL     1      11.219   8.981  21.254  0.00  0.00    +0.255 C 
BRANCH  18  20
ATOM      7  O   UNL     1      11.501   6.819  20.211  0.00  0.00    -0.274 OA
ATOM     10  N   UNL     1       9.989   7.034  21.932  0.00  0.00    -0.327 N 
ATOM     20  C   UNL     1      10.940   7.509  21.057  0.00  0.00    +0.236 C 
ATOM     29  H   UNL     1       9.540   7.627  22.622  0.00  0.00    +0.145 HD
ATOM     30  H   UNL     1       9.702   6.060  21.913  0.00  0.00    +0.145 HD
ENDBRANCH  18  20
ENDBRANCH   4  18
ENDBRANCH  15   4
ENDBRANCH   9  14
BRANCH   9   1
ATOM      1  S   UNL     1      19.040   9.396  21.857  0.00  0.00    +0.059 S 
ATOM      5  O   UNL     1      19.587   9.961  23.077  0.00  0.00    -0.153 OA
ATOM      6  O   UNL     1      18.996  10.187  20.642  0.00  0.00    -0.153 OA
BRANCH   1  19
ATOM     19  C   UNL     1      19.948   7.925  21.483  0.00  0.00    +0.105 A 
ATOM     21  C   UNL     1      19.288   6.850  20.914  0.00  0.00    +0.030 A 
ATOM     22  C   UNL     1      21.302   7.879  21.766  0.00  0.00    +0.030 A 
ATOM     23  C   UNL     1      20.005   5.691  20.619  0.00  0.00    +0.025 A 
ATOM     24  C   UNL     1      22.019   6.719  21.470  0.00  0.00    +0.025 A 
ATOM     25  C   UNL     1      21.370   5.625  20.897  0.00  0.00    +0.033 A 
BRANCH  25  11
ATOM      8  O   UNL     1      22.146   3.303  22.650  0.00  0.00    -0.276 OA
ATOM     11  N   UNL     1      22.088   4.466  20.600  0.00  0.00    -0.286 N 
ATOM     26  C   UNL     1      22.424   3.412  21.460  0.00  0.00    +0.214 C 
ATOM     27  C   UNL     1      23.210   2.339  20.750  0.00  0.00    +0.109 C 
ATOM     31  H   UNL     1      22.402   4.386  19.635  0.00  0.00    +0.155 HD
ENDBRANCH  25  11
ENDBRANCH   1  19
ENDBRANCH   9   1
TORSDOF 7
ENDMDL
MODEL 10
REMARK VINA RESULT:      -6.1     17.621     19.401
REMARK  Name = 11883287
REMARK  8 active torsions:
REMARK  status: ('A' for Active; 'I' for Inactive)
REMARK    1  A    between atoms: S_1  and  N_9
REMARK    2  A    between atoms: S_1  and  C_19
REMARK    3  A    between atoms: O_4  and  C_15
REMARK    4  A    between atoms: O_4  and  C_18
REMARK    5  A    between atoms: N_9  and  C_14
REMARK    6  A    between atoms: N_11  and  C_25
REMARK    7  A    between atoms: C_18  and  C_20
REMARK    8  A    between atoms: C_26  and  C_27
REMARK                            x       y       z     vdW  Elec       q    Type
REMARK                         _______ _______ _______ _____ _____    ______ ____
ROOT
ATOM      9  N   UNL     1      12.106   5.503   3.278  0.00  0.00    -0.182 NA
ATOM     28  H   UNL     1      13.093   5.616   3.540  0.00  0.00    +0.148 HD
ENDROOT
BRANCH   9  14
ATOM      2  O   UNL     1       9.737   5.245   5.303  0.00  0.00    -0.370 OA
ATOM      3  O   UNL     1      10.881   8.083   5.612  0.00  0.00    -0.370 OA
ATOM     12  C   UNL     1      11.500   6.833   5.243  0.00  0.00    +0.170 C 
ATOM     13  C   UNL     1      10.837   5.752   6.076  0.00  0.00    +0.179 C 
ATOM     14  C   UNL     1      11.131   6.476   3.824  0.00  0.00    +0.133 C 
ATOM     15  C   UNL     1      10.364   6.517   7.289  0.00  0.00    +0.176 C 
ATOM     16  C   UNL     1       9.777   5.811   3.985  0.00  0.00    +0.183 C 
ATOM     17  C   UNL     1       9.966   7.848   6.691  0.00  0.00    +0.194 C 
BRANCH  15   4
ATOM      4  O   UNL     1       9.293   5.896   7.963  0.00  0.00    -0.362 OA
BRANCH   4  18
ATOM     18  C   UNL     1       9.688   4.671   8.577  0.00  0.00    +0.255 C 
BRANCH  18  20
ATOM      7  O   UNL     1       8.134   4.683  10.429  0.00  0.00    -0.274 OA
ATOM     10  N   UNL     1      10.392   4.716  10.872  0.00  0.00    -0.327 N 
ATOM     20  C   UNL     1       9.297   4.690  10.037  0.00  0.00    +0.236 C 
ATOM     29  H   UNL     1      11.343   4.722  10.521  0.00  0.00    +0.145 HD
ATOM     30  H   UNL     1      10.279   4.731  11.881  0.00  0.00    +0.145 HD
ENDBRANCH  18  20
ENDBRANCH   4  18
ENDBRANCH  15   4
ENDBRANCH   9  14
BRANCH   9   1
ATOM      1  S   UNL     1      11.668   4.515   1.969  0.00  0.00    +0.059 S 
ATOM      5  O   UNL     1      10.753   5.236   1.103  0.00  0.00    -0.153 OA
ATOM      6  O   UNL     1      11.314   3.201   2.473  0.00  0.00    -0.153 OA
BRANCH   1  19
ATOM     19  C   UNL     1      13.205   4.341   1.113  0.00  0.00    +0.105 A 
ATOM     21  C   UNL     1      13.314   4.811  -0.184  0.00  0.00    +0.030 A 
ATOM     22  C   UNL     1      14.271   3.737   1.757  0.00  0.00    +0.030 A 
ATOM     23  C   UNL     1      14.527   4.674  -0.858  0.00  0.00    +0.025 A 
ATOM     24  C   UNL     1      15.485   3.601   1.082  0.00  0.00    +0.025 A 
ATOM     25  C   UNL     1      15.612   4.068  -0.226  0.00  0.00    +0.033 A 
BRANCH  25  11
ATOM      8  O   UNL     1      17.137   6.035  -1.921  0.00  0.00    -0.276 OA
ATOM     11  N   UNL     1      16.826   3.933  -0.900  0.00  0.00    -0.286 N 
ATOM     26  C   UNL     1      17.493   4.886  -1.681  0.00  0.00    +0.214 C 
ATOM     27  C   UNL     1      18.784   4.346  -2.241  0.00  0.00    +0.109 C 
ATOM     31  H   UNL     1      17.274   3.024  -0.808  0.00  0.00    +0.155 HD
ENDBRANCH  25  11
ENDBRANCH   1  19
ENDBRANCH   9   1
TORSDOF 7
ENDMDL
