MODEL 1
REMARK VINA RESULT:      -7.2      0.000      0.000
REMARK  Name = 75536822
REMARK  7 active torsions:
REMARK  status: ('A' for Active; 'I' for Inactive)
REMARK    1  A    between atoms: O_2  and  C_8
REMARK    2  A    between atoms: N_4  and  C_7
REMARK    3  A    between atoms: N_4  and  C_12
REMARK    4  A    between atoms: N_5  and  C_11
REMARK    5  A    between atoms: C_9  and  C_11
REMARK    6  A    between atoms: C_12  and  C_13
REMARK    7  A    between atoms: C_14  and  C_17
REMARK                            x       y       z     vdW  Elec       q    Type
REMARK                         _______ _______ _______ _____ _____    ______ ____
ROOT
ATOM      1  O   UNL     1      10.979   8.748  20.263  0.00  0.00    -0.371 OA
ATOM      7  C   UNL     1      12.412   6.933  19.718  0.00  0.00    +0.111 C 
ATOM      8  C   UNL     1      12.090   6.881  21.200  0.00  0.00    +0.164 C 
ATOM      9  C   UNL     1      10.819   7.719  21.254  0.00  0.00    +0.165 C 
ATOM     10  C   UNL     1      12.052   8.371  19.382  0.00  0.00    +0.181 C 
ENDROOT
BRANCH   8   2
ATOM      2  O   UNL     1      11.874   5.564  21.666  0.00  0.00    -0.388 OA
ATOM     26  H   UNL     1      10.942   5.483  21.933  0.00  0.00    +0.210 HD
ENDBRANCH   8   2
BRANCH   7   4
ATOM      4  N   UNL     1      13.795   6.608  19.409  0.00  0.00    -0.305 NA
ATOM     25  H   UNL     1      13.960   6.768  18.415  0.00  0.00    +0.123 HD
BRANCH   4  12
ATOM     12  C   UNL     1      14.714   7.435  20.181  0.00  0.00    +0.116 C 
BRANCH  12  13
ATOM      6  N   UNL     1      18.720   5.869  20.110  0.00  0.00    -0.263 NA
ATOM     13  C   UNL     1      16.116   6.887  20.156  0.00  0.00    -0.031 A 
ATOM     15  C   UNL     1      16.549   6.127  19.075  0.00  0.00    +0.024 A 
ATOM     16  C   UNL     1      16.983   7.139  21.213  0.00  0.00    +0.024 A 
ATOM     18  C   UNL     1      17.849   5.645  19.101  0.00  0.00    +0.111 A 
ATOM     19  C   UNL     1      18.263   6.612  21.143  0.00  0.00    +0.111 A 
ENDBRANCH  12  13
ENDBRANCH   4  12
ENDBRANCH   7   4
BRANCH   9  11
ATOM     11  C   UNL     1      10.572   8.348  22.612  0.00  0.00    +0.138 C 
BRANCH  11   5
ATOM      3  O   UNL     1      12.595  10.350  22.990  0.00  0.00    -0.270 OA
ATOM      5  N   UNL     1      10.402   9.769  22.506  0.00  0.00    -0.309 N 
ATOM     14  C   UNL     1      11.444  10.670  22.706  0.00  0.00    +0.244 C 
ATOM     27  H   UNL     1       9.458  10.103  22.343  0.00  0.00    +0.149 HD
BRANCH  14  17
ATOM     17  C   UNL     1      11.099  12.110  22.585  0.00  0.00    +0.037 A 
ATOM     20  C   UNL     1      10.548  12.789  23.672  0.00  0.00    +0.013 A 
ATOM     21  C   UNL     1      11.325  12.782  21.385  0.00  0.00    +0.013 A 
ATOM     22  C   UNL     1      10.226  14.141  23.558  0.00  0.00    +0.001 A 
ATOM     23  C   UNL     1      11.003  14.134  21.271  0.00  0.00    +0.001 A 
ATOM     24  C   UNL     1      10.453  14.814  22.358  0.00  0.00    +0.000 A 
ENDBRANCH  14  17
ENDBRANCH  11   5
ENDBRANCH   9  11
TORSDOF 7
ENDMDL
MODEL 2
REMARK VINA RESULT:      -6.8      2.337      4.014
REMARK  Name = 75536822
REMARK  7 active torsions:
REMARK  status: ('A' for Active; 'I' for Inactive)
REMARK    1  A    between atoms: O_2  and  C_8
REMARK    2  A    between atoms: N_4  and  C_7
REMARK    3  A    between atoms: N_4  and  C_12
REMARK    4  A    between atoms: N_5  and  C_11
REMARK    5  A    between atoms: C_9  and  C_11
REMARK    6  A    between atoms: C_12  and  C_13
REMARK    7  A    between atoms: C_14  and  C_17
REMARK                            x       y       z     vdW  Elec       q    Type
REMARK                         _______ _______ _______ _____ _____    ______ ____
ROOT
ATOM      1  O   UNL     1      15.796   6.202  19.008  0.00  0.00    -0.371 OA
ATOM      7  C   UNL     1      16.871   6.523  21.102  0.00  0.00    +0.111 C 
ATOM      8  C   UNL     1      15.539   7.251  21.112  0.00  0.00    +0.164 C 
ATOM      9  C   UNL     1      14.801   6.530  19.993  0.00  0.00    +0.165 C 
ATOM     10  C   UNL     1      17.095   6.328  19.611  0.00  0.00    +0.181 C 
ENDROOT
BRANCH   8   2
ATOM      2  O   UNL     1      14.865   7.135  22.350  0.00  0.00    -0.388 OA
ATOM     26  H   UNL     1      15.384   6.551  22.928  0.00  0.00    +0.210 HD
ENDBRANCH   8   2
BRANCH   7   4
ATOM      4  N   UNL     1      17.946   7.261  21.745  0.00  0.00    -0.305 NA
ATOM     25  H   UNL     1      18.165   6.819  22.638  0.00  0.00    +0.123 HD
BRANCH   4  12
ATOM     12  C   UNL     1      19.146   7.271  20.917  0.00  0.00    +0.116 C 
BRANCH  12  13
ATOM      6  N   UNL     1      22.053   4.407  22.277  0.00  0.00    -0.263 NA
ATOM     13  C   UNL     1      20.163   6.269  21.393  0.00  0.00    -0.031 A 
ATOM     15  C   UNL     1      20.511   5.191  20.587  0.00  0.00    +0.024 A 
ATOM     16  C   UNL     1      20.759   6.417  22.640  0.00  0.00    +0.024 A 
ATOM     18  C   UNL     1      21.453   4.296  21.071  0.00  0.00    +0.111 A 
ATOM     19  C   UNL     1      21.689   5.468  23.033  0.00  0.00    +0.111 A 
ENDBRANCH  12  13
ENDBRANCH   4  12
ENDBRANCH   7   4
BRANCH   9  11
ATOM     11  C   UNL     1      13.707   7.368  19.358  0.00  0.00    +0.138 C 
BRANCH  11   5
ATOM      3  O   UNL     1      10.996   8.090  19.972  0.00  0.00    -0.270 OA
ATOM      5  N   UNL     1      13.277   8.417  20.238  0.00  0.00    -0.309 N 
ATOM     14  C   UNL     1      11.935   8.698  20.478  0.00  0.00    +0.244 C 
ATOM     27  H   UNL     1      14.004   9.004  20.634  0.00  0.00    +0.149 HD
BRANCH  14  17
ATOM     17  C   UNL     1      11.656   9.833  21.395  0.00  0.00    +0.037 A 
ATOM     20  C   UNL     1      11.088   9.595  22.647  0.00  0.00    +0.013 A 
ATOM     21  C   UNL     1      11.963  11.136  21.005  0.00  0.00    +0.013 A 
ATOM     22  C   UNL     1      10.827  10.661  23.507  0.00  0.00    +0.001 A 
ATOM     23  C   UNL     1      11.703  12.201  21.866  0.00  0.00    +0.001 A 
ATOM     24  C   UNL     1      11.135  11.965  23.117  0.00  0.00    +0.000 A 
ENDBRANCH  14  17
ENDBRANCH  11   5
ENDBRANCH   9  11
TORSDOF 7
ENDMDL
MODEL 3
REMARK VINA RESULT:      -6.7     26.440     29.198
REMARK  Name = 75536822
REMARK  7 active torsions:
REMARK  status: ('A' for Active; 'I' for Inactive)
REMARK    1  A    between atoms: O_2  and  C_8
REMARK    2  A    between atoms: N_4  and  C_7
REMARK    3  A    between atoms: N_4  and  C_12
REMARK    4  A    between atoms: N_5  and  C_11
REMARK    5  A    between atoms: C_9  and  C_11
REMARK    6  A    between atoms: C_12  and  C_13
REMARK    7  A    between atoms: C_14  and  C_17
REMARK                            x       y       z     vdW  Elec       q    Type
REMARK                         _______ _______ _______ _____ _____    ______ ____
ROOT
ATOM      1  O   UNL     1     -17.497   5.525  24.236  0.00  0.00    -0.371 OA
ATOM      7  C   UNL     1     -15.966   4.245  22.947  0.00  0.00    +0.111 C 
ATOM      8  C   UNL     1     -15.744   3.948  24.419  0.00  0.00    +0.164 C 
ATOM      9  C   UNL     1     -17.074   4.391  25.012  0.00  0.00    +0.165 C 
ATOM     10  C   UNL     1     -16.733   5.556  23.018  0.00  0.00    +0.181 C 
ENDROOT
BRANCH   8   2
ATOM      2  O   UNL     1     -15.485   2.580  24.666  0.00  0.00    -0.388 OA
ATOM     26  H   UNL     1     -16.285   2.182  25.049  0.00  0.00    +0.210 HD
ENDBRANCH   8   2
BRANCH   7   4
ATOM      4  N   UNL     1     -14.735   4.350  22.180  0.00  0.00    -0.305 NA
ATOM     25  H   UNL     1     -14.967   4.452  21.192  0.00  0.00    +0.123 HD
BRANCH   4  12
ATOM     12  C   UNL     1     -13.950   5.503  22.602  0.00  0.00    +0.116 C 
BRANCH  12  13
ATOM      6  N   UNL     1     -12.528   7.786  19.245  0.00  0.00    -0.263 NA
ATOM     13  C   UNL     1     -13.452   6.302  21.427  0.00  0.00    -0.031 A 
ATOM     15  C   UNL     1     -12.090   6.368  21.154  0.00  0.00    +0.024 A 
ATOM     16  C   UNL     1     -14.352   6.977  20.610  0.00  0.00    +0.024 A 
ATOM     18  C   UNL     1     -11.683   7.116  20.061  0.00  0.00    +0.111 A 
ATOM     19  C   UNL     1     -13.844   7.699  19.541  0.00  0.00    +0.111 A 
ENDBRANCH  12  13
ENDBRANCH   4  12
ENDBRANCH   7   4
BRANCH   9  11
ATOM     11  C   UNL     1     -16.979   4.778  26.477  0.00  0.00    +0.138 C 
BRANCH  11   5
ATOM      3  O   UNL     1     -16.299   4.902  29.263  0.00  0.00    -0.270 OA
ATOM      5  N   UNL     1     -16.309   3.766  27.241  0.00  0.00    -0.309 N 
ATOM     14  C   UNL     1     -16.019   3.911  28.594  0.00  0.00    +0.244 C 
ATOM     27  H   UNL     1     -15.986   2.950  26.731  0.00  0.00    +0.149 HD
BRANCH  14  17
ATOM     17  C   UNL     1     -15.297   2.782  29.236  0.00  0.00    +0.037 A 
ATOM     20  C   UNL     1     -15.657   1.467  28.941  0.00  0.00    +0.013 A 
ATOM     21  C   UNL     1     -14.260   3.037  30.132  0.00  0.00    +0.013 A 
ATOM     22  C   UNL     1     -14.978   0.407  29.542  0.00  0.00    +0.001 A 
ATOM     23  C   UNL     1     -13.581   1.977  30.732  0.00  0.00    +0.001 A 
ATOM     24  C   UNL     1     -13.940   0.662  30.438  0.00  0.00    +0.000 A 
ENDBRANCH  14  17
ENDBRANCH  11   5
ENDBRANCH   9  11
TORSDOF 7
ENDMDL
MODEL 4
REMARK VINA RESULT:      -6.5      2.419      3.558
REMARK  Name = 75536822
REMARK  7 active torsions:
REMARK  status: ('A' for Active; 'I' for Inactive)
REMARK    1  A    between atoms: O_2  and  C_8
REMARK    2  A    between atoms: N_4  and  C_7
REMARK    3  A    between atoms: N_4  and  C_12
REMARK    4  A    between atoms: N_5  and  C_11
REMARK    5  A    between atoms: C_9  and  C_11
REMARK    6  A    between atoms: C_12  and  C_13
REMARK    7  A    between atoms: C_14  and  C_17
REMARK                            x       y       z     vdW  Elec       q    Type
REMARK                         _______ _______ _______ _____ _____    ______ ____
ROOT
ATOM      1  O   UNL     1      11.405   6.865  20.472  0.00  0.00    -0.371 OA
ATOM      7  C   UNL     1      13.765   6.987  20.234  0.00  0.00    +0.111 C 
ATOM      8  C   UNL     1      13.327   7.948  21.325  0.00  0.00    +0.164 C 
ATOM      9  C   UNL     1      11.967   7.372  21.694  0.00  0.00    +0.165 C 
ATOM     10  C   UNL     1      12.457   6.752  19.497  0.00  0.00    +0.181 C 
ENDROOT
BRANCH   8   2
ATOM      2  O   UNL     1      14.212   7.960  22.428  0.00  0.00    -0.388 OA
ATOM     26  H   UNL     1      14.333   8.882  22.712  0.00  0.00    +0.210 HD
ENDBRANCH   8   2
BRANCH   7   4
ATOM      4  N   UNL     1      14.812   7.517  19.375  0.00  0.00    -0.305 NA
ATOM     25  H   UNL     1      14.715   7.111  18.444  0.00  0.00    +0.123 HD
BRANCH   4  12
ATOM     12  C   UNL     1      14.722   8.968  19.270  0.00  0.00    +0.116 C 
BRANCH  12  13
ATOM      6  N   UNL     1      13.896  10.234  15.243  0.00  0.00    -0.263 NA
ATOM     13  C   UNL     1      14.433   9.411  17.861  0.00  0.00    -0.031 A 
ATOM     15  C   UNL     1      14.202   8.467  16.866  0.00  0.00    +0.024 A 
ATOM     16  C   UNL     1      14.396  10.765  17.549  0.00  0.00    +0.024 A 
ATOM     18  C   UNL     1      13.941   8.927  15.585  0.00  0.00    +0.111 A 
ATOM     19  C   UNL     1      14.126  11.122  16.237  0.00  0.00    +0.111 A 
ENDBRANCH  12  13
ENDBRANCH   4  12
ENDBRANCH   7   4
BRANCH   9  11
ATOM     11  C   UNL     1      11.028   8.395  22.305  0.00  0.00    +0.138 C 
BRANCH  11   5
ATOM      3  O   UNL     1      11.124  10.911  23.685  0.00  0.00    -0.270 OA
ATOM      5  N   UNL     1      11.212   9.690  21.715  0.00  0.00    -0.309 N 
ATOM     14  C   UNL     1      11.247  10.862  22.465  0.00  0.00    +0.244 C 
ATOM     27  H   UNL     1      11.249   9.727  20.702  0.00  0.00    +0.149 HD
BRANCH  14  17
ATOM     17  C   UNL     1      11.420  12.125  21.701  0.00  0.00    +0.037 A 
ATOM     20  C   UNL     1      12.352  12.191  20.665  0.00  0.00    +0.013 A 
ATOM     21  C   UNL     1      10.649  13.243  22.018  0.00  0.00    +0.013 A 
ATOM     22  C   UNL     1      12.513  13.376  19.948  0.00  0.00    +0.001 A 
ATOM     23  C   UNL     1      10.810  14.427  21.300  0.00  0.00    +0.001 A 
ATOM     24  C   UNL     1      11.742  14.495  20.265  0.00  0.00    +0.000 A 
ENDBRANCH  14  17
ENDBRANCH  11   5
ENDBRANCH   9  11
TORSDOF 7
ENDMDL
MODEL 5
REMARK VINA RESULT:      -6.4     26.586     29.029
REMARK  Name = 75536822
REMARK  7 active torsions:
REMARK  status: ('A' for Active; 'I' for Inactive)
REMARK    1  A    between atoms: O_2  and  C_8
REMARK    2  A    between atoms: N_4  and  C_7
REMARK    3  A    between atoms: N_4  and  C_12
REMARK    4  A    between atoms: N_5  and  C_11
REMARK    5  A    between atoms: C_9  and  C_11
REMARK    6  A    between atoms: C_12  and  C_13
REMARK    7  A    between atoms: C_14  and  C_17
REMARK                            x       y       z     vdW  Elec       q    Type
REMARK                         _______ _______ _______ _____ _____    ______ ____
ROOT
ATOM      1  O   UNL     1      -6.634 -11.248  18.398  0.00  0.00    -0.371 OA
ATOM      7  C   UNL     1      -8.549 -10.027  17.704  0.00  0.00    +0.111 C 
ATOM      8  C   UNL     1      -7.330  -9.490  16.976  0.00  0.00    +0.164 C 
ATOM      9  C   UNL     1      -6.368 -10.663  17.112  0.00  0.00    +0.165 C 
ATOM     10  C   UNL     1      -7.905 -10.765  18.866  0.00  0.00    +0.181 C 
ENDROOT
BRANCH   8   2
ATOM      2  O   UNL     1      -7.596  -9.180  15.623  0.00  0.00    -0.388 OA
ATOM     26  H   UNL     1      -6.915  -9.603  15.073  0.00  0.00    +0.210 HD
ENDBRANCH   8   2
BRANCH   7   4
ATOM      4  N   UNL     1      -9.475  -8.991  18.134  0.00  0.00    -0.305 NA
ATOM     25  H   UNL     1      -9.140  -8.087  17.803  0.00  0.00    +0.123 HD
BRANCH   4  12
ATOM     12  C   UNL     1     -10.811  -9.225  17.598  0.00  0.00    +0.116 C 
BRANCH  12  13
ATOM      6  N   UNL     1     -12.195  -5.902  15.243  0.00  0.00    -0.263 NA
ATOM     13  C   UNL     1     -11.295  -8.062  16.774  0.00  0.00    -0.031 A 
ATOM     15  C   UNL     1     -12.636  -7.970  16.418  0.00  0.00    +0.024 A 
ATOM     16  C   UNL     1     -10.404  -7.076  16.367  0.00  0.00    +0.024 A 
ATOM     18  C   UNL     1     -13.031  -6.880  15.658  0.00  0.00    +0.111 A 
ATOM     19  C   UNL     1     -10.899  -6.026  15.609  0.00  0.00    +0.111 A 
ENDBRANCH  12  13
ENDBRANCH   4  12
ENDBRANCH   7   4
BRANCH   9  11
ATOM     11  C   UNL     1      -4.909 -10.255  17.026  0.00  0.00    +0.138 C 
BRANCH  11   5
ATOM      3  O   UNL     1      -3.505 -12.106  15.339  0.00  0.00    -0.270 OA
ATOM      5  N   UNL     1      -4.507 -10.040  15.665  0.00  0.00    -0.309 N 
ATOM     14  C   UNL     1      -3.827 -10.999  14.920  0.00  0.00    +0.244 C 
ATOM     27  H   UNL     1      -4.681  -9.118  15.280  0.00  0.00    +0.149 HD
BRANCH  14  17
ATOM     17  C   UNL     1      -3.460 -10.613  13.533  0.00  0.00    +0.037 A 
ATOM     20  C   UNL     1      -2.117 -10.558  13.157  0.00  0.00    +0.013 A 
ATOM     21  C   UNL     1      -4.456 -10.305  12.608  0.00  0.00    +0.013 A 
ATOM     22  C   UNL     1      -1.773 -10.197  11.854  0.00  0.00    +0.001 A 
ATOM     23  C   UNL     1      -4.112  -9.944  11.306  0.00  0.00    +0.001 A 
ATOM     24  C   UNL     1      -2.770  -9.889  10.928  0.00  0.00    +0.000 A 
ENDBRANCH  14  17
ENDBRANCH  11   5
ENDBRANCH   9  11
TORSDOF 7
ENDMDL
MODEL 6
REMARK VINA RESULT:      -6.4     27.074     29.916
REMARK  Name = 75536822
REMARK  7 active torsions:
REMARK  status: ('A' for Active; 'I' for Inactive)
REMARK    1  A    between atoms: O_2  and  C_8
REMARK    2  A    between atoms: N_4  and  C_7
REMARK    3  A    between atoms: N_4  and  C_12
REMARK    4  A    between atoms: N_5  and  C_11
REMARK    5  A    between atoms: C_9  and  C_11
REMARK    6  A    between atoms: C_12  and  C_13
REMARK    7  A    between atoms: C_14  and  C_17
REMARK                            x       y       z     vdW  Elec       q    Type
REMARK                         _______ _______ _______ _____ _____    ______ ____
ROOT
ATOM      1  O   UNL     1     -17.546   1.779  25.351  0.00  0.00    -0.371 OA
ATOM      7  C   UNL     1     -16.440   3.181  26.917  0.00  0.00    +0.111 C 
ATOM      8  C   UNL     1     -16.066   3.617  25.512  0.00  0.00    +0.164 C 
ATOM      9  C   UNL     1     -17.211   3.019  24.705  0.00  0.00    +0.165 C 
ATOM     10  C   UNL     1     -16.964   1.777  26.666  0.00  0.00    +0.181 C 
ENDROOT
BRANCH   8   2
ATOM      2  O   UNL     1     -16.004   5.024  25.377  0.00  0.00    -0.388 OA
ATOM     26  H   UNL     1     -16.349   5.262  24.500  0.00  0.00    +0.210 HD
ENDBRANCH   8   2
BRANCH   7   4
ATOM      4  N   UNL     1     -15.328   3.212  27.854  0.00  0.00    -0.305 NA
ATOM     25  H   UNL     1     -14.588   3.801  27.472  0.00  0.00    +0.123 HD
BRANCH   4  12
ATOM     12  C   UNL     1     -15.742   3.750  29.144  0.00  0.00    +0.116 C 
BRANCH  12  13
ATOM      6  N   UNL     1     -14.835   1.054  32.370  0.00  0.00    -0.263 NA
ATOM     13  C   UNL     1     -15.424   2.806  30.273  0.00  0.00    -0.031 A 
ATOM     15  C   UNL     1     -15.224   1.455  30.017  0.00  0.00    +0.024 A 
ATOM     16  C   UNL     1     -15.330   3.283  31.575  0.00  0.00    +0.024 A 
ATOM     18  C   UNL     1     -14.934   0.628  31.091  0.00  0.00    +0.111 A 
ATOM     19  C   UNL     1     -15.036   2.375  32.580  0.00  0.00    +0.111 A 
ENDBRANCH  12  13
ENDBRANCH   4  12
ENDBRANCH   7   4
BRANCH   9  11
ATOM     11  C   UNL     1     -16.850   2.761  23.254  0.00  0.00    +0.138 C 
BRANCH  11   5
ATOM      3  O   UNL     1     -17.130   5.126  21.651  0.00  0.00    -0.270 OA
ATOM      5  N   UNL     1     -15.795   3.630  22.816  0.00  0.00    -0.309 N 
ATOM     14  C   UNL     1     -16.024   4.761  22.038  0.00  0.00    +0.244 C 
ATOM     27  H   UNL     1     -14.848   3.345  23.043  0.00  0.00    +0.149 HD
BRANCH  14  17
ATOM     17  C   UNL     1     -14.822   5.542  21.646  0.00  0.00    +0.037 A 
ATOM     20  C   UNL     1     -13.558   5.140  22.080  0.00  0.00    +0.013 A 
ATOM     21  C   UNL     1     -14.958   6.675  20.845  0.00  0.00    +0.013 A 
ATOM     22  C   UNL     1     -12.430   5.873  21.711  0.00  0.00    +0.001 A 
ATOM     23  C   UNL     1     -13.830   7.407  20.476  0.00  0.00    +0.001 A 
ATOM     24  C   UNL     1     -12.566   7.006  20.908  0.00  0.00    +0.000 A 
ENDBRANCH  14  17
ENDBRANCH  11   5
ENDBRANCH   9  11
TORSDOF 7
ENDMDL
MODEL 7
REMARK VINA RESULT:      -6.4      3.971      6.943
REMARK  Name = 75536822
REMARK  7 active torsions:
REMARK  status: ('A' for Active; 'I' for Inactive)
REMARK    1  A    between atoms: O_2  and  C_8
REMARK    2  A    between atoms: N_4  and  C_7
REMARK    3  A    between atoms: N_4  and  C_12
REMARK    4  A    between atoms: N_5  and  C_11
REMARK    5  A    between atoms: C_9  and  C_11
REMARK    6  A    between atoms: C_12  and  C_13
REMARK    7  A    between atoms: C_14  and  C_17
REMARK                            x       y       z     vdW  Elec       q    Type
REMARK                         _______ _______ _______ _____ _____    ______ ____
ROOT
ATOM      1  O   UNL     1      12.879   8.997  20.125  0.00  0.00    -0.371 OA
ATOM      7  C   UNL     1      12.329   9.383  17.847  0.00  0.00    +0.111 C 
ATOM      8  C   UNL     1      12.635   7.909  18.040  0.00  0.00    +0.164 C 
ATOM      9  C   UNL     1      12.434   7.761  19.542  0.00  0.00    +0.165 C 
ATOM     10  C   UNL     1      12.970   9.987  19.086  0.00  0.00    +0.181 C 
ENDROOT
BRANCH   8   2
ATOM      2  O   UNL     1      11.764   7.071  17.306  0.00  0.00    -0.388 OA
ATOM     26  H   UNL     1      12.228   6.237  17.118  0.00  0.00    +0.210 HD
ENDBRANCH   8   2
BRANCH   7   4
ATOM      4  N   UNL     1      12.859   9.933  16.610  0.00  0.00    -0.305 NA
ATOM     25  H   UNL     1      12.652  10.931  16.574  0.00  0.00    +0.123 HD
BRANCH   4  12
ATOM     12  C   UNL     1      14.303   9.747  16.528  0.00  0.00    +0.116 C 
BRANCH  12  13
ATOM      6  N   UNL     1      16.224  13.011  14.491  0.00  0.00    -0.263 NA
ATOM     13  C   UNL     1      14.976  10.889  15.815  0.00  0.00    -0.031 A 
ATOM     15  C   UNL     1      15.055  12.139  16.419  0.00  0.00    +0.024 A 
ATOM     16  C   UNL     1      15.520  10.699  14.550  0.00  0.00    +0.024 A 
ATOM     18  C   UNL     1      15.684  13.158  15.721  0.00  0.00    +0.111 A 
ATOM     19  C   UNL     1      16.128  11.782  13.935  0.00  0.00    +0.111 A 
ENDBRANCH  12  13
ENDBRANCH   4  12
ENDBRANCH   7   4
BRANCH   9  11
ATOM     11  C   UNL     1      13.210   6.602  20.140  0.00  0.00    +0.138 C 
BRANCH  11   5
ATOM      3  O   UNL     1      15.764   6.123  18.919  0.00  0.00    -0.270 OA
ATOM      5  N   UNL     1      14.488   7.028  20.632  0.00  0.00    -0.309 N 
ATOM     14  C   UNL     1      15.681   6.751  19.971  0.00  0.00    +0.244 C 
ATOM     27  H   UNL     1      14.496   7.491  21.535  0.00  0.00    +0.149 HD
BRANCH  14  17
ATOM     17  C   UNL     1      16.923   7.240  20.624  0.00  0.00    +0.037 A 
ATOM     20  C   UNL     1      17.011   8.566  21.050  0.00  0.00    +0.013 A 
ATOM     21  C   UNL     1      17.999   6.374  20.813  0.00  0.00    +0.013 A 
ATOM     22  C   UNL     1      18.176   9.025  21.664  0.00  0.00    +0.001 A 
ATOM     23  C   UNL     1      19.163   6.833  21.428  0.00  0.00    +0.001 A 
ATOM     24  C   UNL     1      19.253   8.158  21.854  0.00  0.00    +0.000 A 
ENDBRANCH  14  17
ENDBRANCH  11   5
ENDBRANCH   9  11
TORSDOF 7
ENDMDL
MODEL 8
REMARK VINA RESULT:      -6.3     25.672     28.363
REMARK  Name = 75536822
REMARK  7 active torsions:
REMARK  status: ('A' for Active; 'I' for Inactive)
REMARK    1  A    between atoms: O_2  and  C_8
REMARK    2  A    between atoms: N_4  and  C_7
REMARK    3  A    between atoms: N_4  and  C_12
REMARK    4  A    between atoms: N_5  and  C_11
REMARK    5  A    between atoms: C_9  and  C_11
REMARK    6  A    between atoms: C_12  and  C_13
REMARK    7  A    between atoms: C_14  and  C_17
REMARK                            x       y       z     vdW  Elec       q    Type
REMARK                         _______ _______ _______ _____ _____    ______ ____
ROOT
ATOM      1  O   UNL     1     -16.187   4.980  22.190  0.00  0.00    -0.371 OA
ATOM      7  C   UNL     1     -13.835   5.124  21.890  0.00  0.00    +0.111 C 
ATOM      8  C   UNL     1     -14.142   5.060  23.375  0.00  0.00    +0.164 C 
ATOM      9  C   UNL     1     -15.539   4.455  23.361  0.00  0.00    +0.165 C 
ATOM     10  C   UNL     1     -15.184   5.535  21.322  0.00  0.00    +0.181 C 
ENDROOT
BRANCH   8   2
ATOM      2  O   UNL     1     -13.224   4.254  24.087  0.00  0.00    -0.388 OA
ATOM     26  H   UNL     1     -12.324   4.523  23.839  0.00  0.00    +0.210 HD
ENDBRANCH   8   2
BRANCH   7   4
ATOM      4  N   UNL     1     -12.770   6.055  21.552  0.00  0.00    -0.305 NA
ATOM     25  H   UNL     1     -12.206   5.657  20.801  0.00  0.00    +0.123 HD
BRANCH   4  12
ATOM     12  C   UNL     1     -13.311   7.334  21.109  0.00  0.00    +0.116 C 
BRANCH  12  13
ATOM      6  N   UNL     1     -10.583   9.413  18.515  0.00  0.00    -0.263 NA
ATOM     13  C   UNL     1     -12.357   8.061  20.201  0.00  0.00    -0.031 A 
ATOM     15  C   UNL     1     -11.874   7.441  19.055  0.00  0.00    +0.024 A 
ATOM     16  C   UNL     1     -11.954   9.357  20.506  0.00  0.00    +0.024 A 
ATOM     18  C   UNL     1     -10.997   8.154  18.252  0.00  0.00    +0.111 A 
ATOM     19  C   UNL     1     -11.073   9.984  19.639  0.00  0.00    +0.111 A 
ENDBRANCH  12  13
ENDBRANCH   4  12
ENDBRANCH   7   4
BRANCH   9  11
ATOM     11  C   UNL     1     -16.353   4.796  24.595  0.00  0.00    +0.138 C 
BRANCH  11   5
ATOM      3  O   UNL     1     -17.532   4.819  27.213  0.00  0.00    -0.270 OA
ATOM      5  N   UNL     1     -15.992   3.962  25.705  0.00  0.00    -0.309 N 
ATOM     14  C   UNL     1     -16.621   4.042  26.944  0.00  0.00    +0.244 C 
ATOM     27  H   UNL     1     -15.197   3.346  25.571  0.00  0.00    +0.149 HD
BRANCH  14  17
ATOM     17  C   UNL     1     -16.113   3.126  27.998  0.00  0.00    +0.037 A 
ATOM     20  C   UNL     1     -15.308   3.623  29.025  0.00  0.00    +0.013 A 
ATOM     21  C   UNL     1     -16.439   1.772  27.962  0.00  0.00    +0.013 A 
ATOM     22  C   UNL     1     -14.832   2.764  30.014  0.00  0.00    +0.001 A 
ATOM     23  C   UNL     1     -15.963   0.913  28.952  0.00  0.00    +0.001 A 
ATOM     24  C   UNL     1     -15.160   1.408  29.979  0.00  0.00    +0.000 A 
ENDBRANCH  14  17
ENDBRANCH  11   5
ENDBRANCH   9  11
TORSDOF 7
ENDMDL
MODEL 9
REMARK VINA RESULT:      -6.2     26.052     27.828
REMARK  Name = 75536822
REMARK  7 active torsions:
REMARK  status: ('A' for Active; 'I' for Inactive)
REMARK    1  A    between atoms: O_2  and  C_8
REMARK    2  A    between atoms: N_4  and  C_7
REMARK    3  A    between atoms: N_4  and  C_12
REMARK    4  A    between atoms: N_5  and  C_11
REMARK    5  A    between atoms: C_9  and  C_11
REMARK    6  A    between atoms: C_12  and  C_13
REMARK    7  A    between atoms: C_14  and  C_17
REMARK                            x       y       z     vdW  Elec       q    Type
REMARK                         _______ _______ _______ _____ _____    ______ ____
ROOT
ATOM      1  O   UNL     1      -2.103 -10.875  16.624  0.00  0.00    -0.371 OA
ATOM      7  C   UNL     1      -2.549 -10.640  14.302  0.00  0.00    +0.111 C 
ATOM      8  C   UNL     1      -3.860 -10.843  15.040  0.00  0.00    +0.164 C 
ATOM      9  C   UNL     1      -3.465 -10.445  16.456  0.00  0.00    +0.165 C 
ATOM     10  C   UNL     1      -1.546 -11.147  15.326  0.00  0.00    +0.181 C 
ENDROOT
BRANCH   8   2
ATOM      2  O   UNL     1      -4.901 -10.032  14.534  0.00  0.00    -0.388 OA
ATOM     26  H   UNL     1      -4.942  -9.219  15.067  0.00  0.00    +0.210 HD
ENDBRANCH   8   2
BRANCH   7   4
ATOM      4  N   UNL     1      -2.474 -11.351  13.036  0.00  0.00    -0.305 NA
ATOM     25  H   UNL     1      -3.408 -11.670  12.778  0.00  0.00    +0.123 HD
BRANCH   4  12
ATOM     12  C   UNL     1      -1.962 -10.488  11.978  0.00  0.00    +0.116 C 
BRANCH  12  13
ATOM      6  N   UNL     1      -4.755 -10.102   8.731  0.00  0.00    -0.263 NA
ATOM     13  C   UNL     1      -2.940 -10.353  10.842  0.00  0.00    -0.031 A 
ATOM     15  C   UNL     1      -3.622 -11.470  10.372  0.00  0.00    +0.024 A 
ATOM     16  C   UNL     1      -3.164  -9.112  10.258  0.00  0.00    +0.024 A 
ATOM     18  C   UNL     1      -4.511 -11.292   9.324  0.00  0.00    +0.111 A 
ATOM     19  C   UNL     1      -4.074  -9.039   9.215  0.00  0.00    +0.111 A 
ENDBRANCH  12  13
ENDBRANCH   4  12
ENDBRANCH   7   4
BRANCH   9  11
ATOM     11  C   UNL     1      -4.339 -11.078  17.523  0.00  0.00    +0.138 C 
BRANCH  11   5
ATOM      3  O   UNL     1      -6.915 -12.343  17.456  0.00  0.00    -0.270 OA
ATOM      5  N   UNL     1      -5.615 -10.428  17.605  0.00  0.00    -0.309 N 
ATOM     14  C   UNL     1      -6.820 -11.124  17.565  0.00  0.00    +0.244 C 
ATOM     27  H   UNL     1      -5.608  -9.414  17.625  0.00  0.00    +0.149 HD
BRANCH  14  17
ATOM     17  C   UNL     1      -8.055 -10.302  17.635  0.00  0.00    +0.037 A 
ATOM     20  C   UNL     1      -8.148  -9.118  16.902  0.00  0.00    +0.013 A 
ATOM     21  C   UNL     1      -9.121 -10.713  18.434  0.00  0.00    +0.013 A 
ATOM     22  C   UNL     1      -9.309  -8.348  16.967  0.00  0.00    +0.001 A 
ATOM     23  C   UNL     1     -10.282  -9.942  18.499  0.00  0.00    +0.001 A 
ATOM     24  C   UNL     1     -10.376  -8.759  17.766  0.00  0.00    +0.000 A 
ENDBRANCH  14  17
ENDBRANCH  11   5
ENDBRANCH   9  11
TORSDOF 7
ENDMDL
MODEL 10
REMARK VINA RESULT:      -6.1     26.309     29.096
REMARK  Name = 75536822
REMARK  7 active torsions:
REMARK  status: ('A' for Active; 'I' for Inactive)
REMARK    1  A    between atoms: O_2  and  C_8
REMARK    2  A    between atoms: N_4  and  C_7
REMARK    3  A    between atoms: N_4  and  C_12
REMARK    4  A    between atoms: N_5  and  C_11
REMARK    5  A    between atoms: C_9  and  C_11
REMARK    6  A    between atoms: C_12  and  C_13
REMARK    7  A    between atoms: C_14  and  C_17
REMARK                            x       y       z     vdW  Elec       q    Type
REMARK                         _______ _______ _______ _____ _____    ______ ____
ROOT
ATOM      1  O   UNL     1     -17.606   5.357  24.119  0.00  0.00    -0.371 OA
ATOM      7  C   UNL     1     -16.223   4.135  25.614  0.00  0.00    +0.111 C 
ATOM      8  C   UNL     1     -15.642   4.042  24.215  0.00  0.00    +0.164 C 
ATOM      9  C   UNL     1     -16.291   5.247  23.548  0.00  0.00    +0.165 C 
ATOM     10  C   UNL     1     -17.650   4.566  25.319  0.00  0.00    +0.181 C 
ENDROOT
BRANCH   8   2
ATOM      2  O   UNL     1     -14.231   4.129  24.204  0.00  0.00    -0.388 OA
ATOM     26  H   UNL     1     -13.871   3.307  24.577  0.00  0.00    +0.210 HD
ENDBRANCH   8   2
BRANCH   7   4
ATOM      4  N   UNL     1     -16.150   2.889  26.361  0.00  0.00    -0.305 NA
ATOM     25  H   UNL     1     -15.181   2.573  26.387  0.00  0.00    +0.123 HD
BRANCH   4  12
ATOM     12  C   UNL     1     -16.627   3.066  27.727  0.00  0.00    +0.116 C 
BRANCH  12  13
ATOM      6  N   UNL     1     -13.992   1.235  30.591  0.00  0.00    -0.263 NA
ATOM     13  C   UNL     1     -15.705   2.425  28.730  0.00  0.00    -0.031 A 
ATOM     15  C   UNL     1     -14.838   3.210  29.481  0.00  0.00    +0.024 A 
ATOM     16  C   UNL     1     -15.716   1.047  28.907  0.00  0.00    +0.024 A 
ATOM     18  C   UNL     1     -14.009   2.572  30.391  0.00  0.00    +0.111 A 
ATOM     19  C   UNL     1     -14.848   0.505  29.842  0.00  0.00    +0.111 A 
ENDBRANCH  12  13
ENDBRANCH   4  12
ENDBRANCH   7   4
BRANCH   9  11
ATOM     11  C   UNL     1     -16.396   5.113  22.040  0.00  0.00    +0.138 C 
BRANCH  11   5
ATOM      3  O   UNL     1     -15.864   7.808  21.205  0.00  0.00    -0.270 OA
ATOM      5  N   UNL     1     -15.210   5.590  21.390  0.00  0.00    -0.309 N 
ATOM     14  C   UNL     1     -15.036   6.921  21.019  0.00  0.00    +0.244 C 
ATOM     27  H   UNL     1     -14.515   4.893  21.143  0.00  0.00    +0.149 HD
BRANCH  14  17
ATOM     17  C   UNL     1     -13.761   7.250  20.332  0.00  0.00    +0.037 A 
ATOM     20  C   UNL     1     -13.781   7.768  19.037  0.00  0.00    +0.013 A 
ATOM     21  C   UNL     1     -12.545   7.040  20.981  0.00  0.00    +0.013 A 
ATOM     22  C   UNL     1     -12.583   8.078  18.392  0.00  0.00    +0.001 A 
ATOM     23  C   UNL     1     -11.348   7.350  20.336  0.00  0.00    +0.001 A 
ATOM     24  C   UNL     1     -11.366   7.869  19.042  0.00  0.00    +0.000 A 
ENDBRANCH  14  17
ENDBRANCH  11   5
ENDBRANCH   9  11
TORSDOF 7
ENDMDL
