MODEL 1
REMARK VINA RESULT:      -6.4      0.000      0.000
REMARK  Name = 38030443
REMARK  12 active torsions:
REMARK  status: ('A' for Active; 'I' for Inactive)
REMARK    1  A    between atoms: N_2  and  C_13
REMARK    2  A    between atoms: N_2  and  C_19
REMARK    3  A    between atoms: N_2  and  C_20
REMARK    4  A    between atoms: C_6  and  C_10
REMARK    5  A    between atoms: C_7  and  C_13
REMARK    6  A    between atoms: C_9  and  C_14
REMARK    7  A    between atoms: C_10  and  C_15
REMARK    8  A    between atoms: C_10  and  C_16
REMARK    9  A    between atoms: C_11  and  C_17
REMARK   10  A    between atoms: C_14  and  C_18
REMARK   11  A    between atoms: C_19  and  C_22
REMARK   12  A    between atoms: C_21  and  C_23
REMARK                            x       y       z     vdW  Elec       q    Type
REMARK                         _______ _______ _______ _____ _____    ______ ____
ROOT
ATOM      6  C   UNL     1      15.360   8.897  20.711  0.00  0.00    +0.000 C 
ATOM      7  C   UNL     1      14.564   7.768  20.014  0.00  0.00    +0.029 C 
ATOM      8  C   UNL     1      16.527   8.313  21.520  0.00  0.00    +0.012 C 
ATOM      9  C   UNL     1      17.489   7.452  20.674  0.00  0.00    +0.024 C 
ATOM     11  C   UNL     1      16.770   6.586  19.651  0.00  0.00    -0.073 C 
ATOM     12  C   UNL     1      15.460   6.736  19.379  0.00  0.00    -0.023 C 
ATOM     17  C   UNL     1      17.590   5.579  18.893  0.00  0.00    +0.039 C 
ENDROOT
BRANCH   6  10
ATOM     10  C   UNL     1      15.856   9.938  19.698  0.00  0.00    -0.013 C 
ATOM     15  C   UNL     1      14.695  10.446  18.847  0.00  0.00    +0.007 C 
ATOM     16  C   UNL     1      16.546  11.094  20.417  0.00  0.00    +0.007 C 
ENDBRANCH   6  10
BRANCH   7  13
ATOM     13  C   UNL     1      13.603   7.073  20.984  0.00  0.00    +0.093 C 
BRANCH  13   2
ATOM      2  N   UNL     1      12.288   6.924  20.385  0.00  0.00    -0.294 NA
ATOM     20  C   UNL     1      11.325   6.410  21.364  0.00  0.00    +0.105 C 
BRANCH   2  19
ATOM     19  C   UNL     1      11.818   8.200  19.838  0.00  0.00    +0.173 C 
BRANCH  19  22
ATOM     22  C   UNL     1      11.563   9.168  20.908  0.00  0.00    -0.090 C 
ATOM     24  C   UNL     1      11.354   9.965  21.781  0.00  0.00    +0.005 C 
ENDBRANCH  19  22
ENDBRANCH   2  19
ENDBRANCH  13   2
ENDBRANCH   7  13
BRANCH   9  14
ATOM     14  C   UNL     1      18.381   6.640  21.620  0.00  0.00    +0.105 C 
BRANCH  14  18
ATOM      1  O   UNL     1      20.451   5.414  21.213  0.00  0.00    -0.420 OA
ATOM      3  N   UNL     1      20.542   7.577  20.650  0.00  0.00    -0.112 NA
ATOM      4  N   UNL     1      21.772   7.010  20.368  0.00  0.00    -0.107 NA
ATOM     18  C   UNL     1      19.805   6.609  21.140  0.00  0.00    +0.218 A 
ATOM     21  C   UNL     1      21.673   5.748  20.713  0.00  0.00    +0.250 A 
BRANCH  21  23
ATOM      5  N   UNL     1      23.213   2.391  21.139  0.00  0.00    -0.263 NA
ATOM     23  C   UNL     1      22.634   4.686  20.644  0.00  0.00    +0.057 A 
ATOM     25  C   UNL     1      23.875   4.878  20.046  0.00  0.00    +0.016 A 
ATOM     26  C   UNL     1      22.355   3.435  21.171  0.00  0.00    +0.124 A 
ATOM     27  C   UNL     1      24.785   3.828  19.994  0.00  0.00    +0.020 A 
ATOM     28  C   UNL     1      24.410   2.616  20.550  0.00  0.00    +0.111 A 
ENDBRANCH  21  23
ENDBRANCH  14  18
ENDBRANCH   9  14
TORSDOF 8
ENDMDL
MODEL 2
REMARK VINA RESULT:      -6.3     27.464     30.302
REMARK  Name = 38030443
REMARK  12 active torsions:
REMARK  status: ('A' for Active; 'I' for Inactive)
REMARK    1  A    between atoms: N_2  and  C_13
REMARK    2  A    between atoms: N_2  and  C_19
REMARK    3  A    between atoms: N_2  and  C_20
REMARK    4  A    between atoms: C_6  and  C_10
REMARK    5  A    between atoms: C_7  and  C_13
REMARK    6  A    between atoms: C_9  and  C_14
REMARK    7  A    between atoms: C_10  and  C_15
REMARK    8  A    between atoms: C_10  and  C_16
REMARK    9  A    between atoms: C_11  and  C_17
REMARK   10  A    between atoms: C_14  and  C_18
REMARK   11  A    between atoms: C_19  and  C_22
REMARK   12  A    between atoms: C_21  and  C_23
REMARK                            x       y       z     vdW  Elec       q    Type
REMARK                         _______ _______ _______ _____ _____    ______ ____
ROOT
ATOM      6  C   UNL     1      -5.932 -10.408  10.100  0.00  0.00    +0.000 C 
ATOM      7  C   UNL     1      -5.039 -10.043   8.890  0.00  0.00    +0.029 C 
ATOM      8  C   UNL     1      -5.120 -11.167  11.158  0.00  0.00    +0.012 C 
ATOM      9  C   UNL     1      -3.879 -10.392  11.651  0.00  0.00    +0.024 C 
ATOM     11  C   UNL     1      -3.160  -9.648  10.536  0.00  0.00    -0.073 C 
ATOM     12  C   UNL     1      -3.690  -9.514   9.306  0.00  0.00    -0.023 C 
ATOM     17  C   UNL     1      -1.842  -9.005  10.868  0.00  0.00    +0.039 C 
ENDROOT
BRANCH   6  10
ATOM     10  C   UNL     1      -6.597  -9.162  10.700  0.00  0.00    -0.013 C 
ATOM     15  C   UNL     1      -7.305  -8.361   9.612  0.00  0.00    +0.007 C 
ATOM     16  C   UNL     1      -7.575  -9.560  11.802  0.00  0.00    +0.007 C 
ENDBRANCH   6  10
BRANCH   7  13
ATOM     13  C   UNL     1      -4.843 -11.237   7.951  0.00  0.00    +0.093 C 
BRANCH  13   2
ATOM      2  N   UNL     1      -5.078 -10.847   6.570  0.00  0.00    -0.294 NA
ATOM     20  C   UNL     1      -4.453 -11.800   5.648  0.00  0.00    +0.105 C 
BRANCH   2  19
ATOM     19  C   UNL     1      -6.513 -10.745   6.295  0.00  0.00    +0.173 C 
BRANCH  19  22
ATOM     22  C   UNL     1      -6.838  -9.457   5.675  0.00  0.00    -0.090 C 
ATOM     24  C   UNL     1      -7.103  -8.399   5.172  0.00  0.00    +0.005 C 
ENDBRANCH  19  22
ENDBRANCH   2  19
ENDBRANCH  13   2
ENDBRANCH   7  13
BRANCH   9  14
ATOM     14  C   UNL     1      -2.964 -11.361  12.409  0.00  0.00    +0.105 C 
BRANCH  14  18
ATOM      1  O   UNL     1      -4.126 -10.962  14.517  0.00  0.00    -0.420 OA
ATOM      3  N   UNL     1      -1.897 -10.836  14.661  0.00  0.00    -0.112 NA
ATOM      4  N   UNL     1      -2.421 -10.591  15.918  0.00  0.00    -0.107 NA
ATOM     18  C   UNL     1      -2.928 -11.047  13.878  0.00  0.00    +0.218 A 
ATOM     21  C   UNL     1      -3.724 -10.674  15.786  0.00  0.00    +0.250 A 
BRANCH  21  23
ATOM      5  N   UNL     1      -6.943  -9.614  17.314  0.00  0.00    -0.263 NA
ATOM     23  C   UNL     1      -4.769 -10.513  16.754  0.00  0.00    +0.057 A 
ATOM     25  C   UNL     1      -4.662 -11.065  18.026  0.00  0.00    +0.016 A 
ATOM     26  C   UNL     1      -5.920  -9.803  16.451  0.00  0.00    +0.124 A 
ATOM     27  C   UNL     1      -5.694 -10.892  18.942  0.00  0.00    +0.020 A 
ATOM     28  C   UNL     1      -6.802 -10.165  18.541  0.00  0.00    +0.111 A 
ENDBRANCH  21  23
ENDBRANCH  14  18
ENDBRANCH   9  14
TORSDOF 8
ENDMDL
MODEL 3
REMARK VINA RESULT:      -6.1     27.350     29.662
REMARK  Name = 38030443
REMARK  12 active torsions:
REMARK  status: ('A' for Active; 'I' for Inactive)
REMARK    1  A    between atoms: N_2  and  C_13
REMARK    2  A    between atoms: N_2  and  C_19
REMARK    3  A    between atoms: N_2  and  C_20
REMARK    4  A    between atoms: C_6  and  C_10
REMARK    5  A    between atoms: C_7  and  C_13
REMARK    6  A    between atoms: C_9  and  C_14
REMARK    7  A    between atoms: C_10  and  C_15
REMARK    8  A    between atoms: C_10  and  C_16
REMARK    9  A    between atoms: C_11  and  C_17
REMARK   10  A    between atoms: C_14  and  C_18
REMARK   11  A    between atoms: C_19  and  C_22
REMARK   12  A    between atoms: C_21  and  C_23
REMARK                            x       y       z     vdW  Elec       q    Type
REMARK                         _______ _______ _______ _____ _____    ______ ____
ROOT
ATOM      6  C   UNL     1      -3.768 -10.070  11.669  0.00  0.00    +0.000 C 
ATOM      7  C   UNL     1      -4.971 -11.005  11.402  0.00  0.00    +0.029 C 
ATOM      8  C   UNL     1      -2.831 -10.684  12.718  0.00  0.00    +0.012 C 
ATOM      9  C   UNL     1      -2.315 -12.087  12.332  0.00  0.00    +0.024 C 
ATOM     11  C   UNL     1      -3.377 -12.951  11.669  0.00  0.00    -0.073 C 
ATOM     12  C   UNL     1      -4.562 -12.450  11.272  0.00  0.00    -0.023 C 
ATOM     17  C   UNL     1      -3.038 -14.393  11.412  0.00  0.00    +0.039 C 
ENDROOT
BRANCH   6  10
ATOM     10  C   UNL     1      -3.012  -9.747  10.373  0.00  0.00    -0.013 C 
ATOM     15  C   UNL     1      -3.897  -8.936   9.430  0.00  0.00    +0.007 C 
ATOM     16  C   UNL     1      -1.721  -8.996  10.682  0.00  0.00    +0.007 C 
ENDBRANCH   6  10
BRANCH   7  13
ATOM     13  C   UNL     1      -6.037 -10.881  12.495  0.00  0.00    +0.093 C 
BRANCH  13   2
ATOM      2  N   UNL     1      -7.331 -10.559  11.915  0.00  0.00    -0.294 NA
ATOM     20  C   UNL     1      -8.417 -10.945  12.822  0.00  0.00    +0.105 C 
BRANCH   2  19
ATOM     19  C   UNL     1      -7.420  -9.132  11.599  0.00  0.00    +0.173 C 
BRANCH  19  22
ATOM     22  C   UNL     1      -7.570  -8.921  10.157  0.00  0.00    -0.090 C 
ATOM     24  C   UNL     1      -7.698  -8.748   8.976  0.00  0.00    +0.005 C 
ENDBRANCH  19  22
ENDBRANCH   2  19
ENDBRANCH  13   2
ENDBRANCH   7  13
BRANCH   9  14
ATOM     14  C   UNL     1      -1.703 -12.743  13.576  0.00  0.00    +0.105 C 
BRANCH  14  18
ATOM      1  O   UNL     1      -3.205 -11.979  15.340  0.00  0.00    -0.420 OA
ATOM      3  N   UNL     1      -1.136 -11.139  15.471  0.00  0.00    -0.112 NA
ATOM      4  N   UNL     1      -1.873 -10.626  16.523  0.00  0.00    -0.107 NA
ATOM     18  C   UNL     1      -1.954 -11.922  14.809  0.00  0.00    +0.218 A 
ATOM     21  C   UNL     1      -3.074 -11.142  16.407  0.00  0.00    +0.250 A 
BRANCH  21  23
ATOM      5  N   UNL     1      -6.460 -10.032  17.463  0.00  0.00    -0.263 NA
ATOM     23  C   UNL     1      -4.245 -10.968  17.215  0.00  0.00    +0.057 A 
ATOM     25  C   UNL     1      -4.332 -11.528  18.485  0.00  0.00    +0.016 A 
ATOM     26  C   UNL     1      -5.327 -10.235  16.755  0.00  0.00    +0.124 A 
ATOM     27  C   UNL     1      -5.482 -11.342  19.244  0.00  0.00    +0.020 A 
ATOM     28  C   UNL     1      -6.508 -10.592  18.693  0.00  0.00    +0.111 A 
ENDBRANCH  21  23
ENDBRANCH  14  18
ENDBRANCH   9  14
TORSDOF 8
ENDMDL
MODEL 4
REMARK VINA RESULT:      -5.9      2.832      5.104
REMARK  Name = 38030443
REMARK  12 active torsions:
REMARK  status: ('A' for Active; 'I' for Inactive)
REMARK    1  A    between atoms: N_2  and  C_13
REMARK    2  A    between atoms: N_2  and  C_19
REMARK    3  A    between atoms: N_2  and  C_20
REMARK    4  A    between atoms: C_6  and  C_10
REMARK    5  A    between atoms: C_7  and  C_13
REMARK    6  A    between atoms: C_9  and  C_14
REMARK    7  A    between atoms: C_10  and  C_15
REMARK    8  A    between atoms: C_10  and  C_16
REMARK    9  A    between atoms: C_11  and  C_17
REMARK   10  A    between atoms: C_14  and  C_18
REMARK   11  A    between atoms: C_19  and  C_22
REMARK   12  A    between atoms: C_21  and  C_23
REMARK                            x       y       z     vdW  Elec       q    Type
REMARK                         _______ _______ _______ _____ _____    ______ ____
ROOT
ATOM      6  C   UNL     1      13.819  11.143  20.550  0.00  0.00    +0.000 C 
ATOM      7  C   UNL     1      12.587  11.420  21.444  0.00  0.00    +0.029 C 
ATOM      8  C   UNL     1      14.291   9.692  20.718  0.00  0.00    +0.012 C 
ATOM      9  C   UNL     1      13.191   8.651  20.414  0.00  0.00    +0.024 C 
ATOM     11  C   UNL     1      11.821   9.066  20.929  0.00  0.00    -0.073 C 
ATOM     12  C   UNL     1      11.575  10.304  21.395  0.00  0.00    -0.023 C 
ATOM     17  C   UNL     1      10.712   8.053  20.846  0.00  0.00    +0.039 C 
ENDROOT
BRANCH   6  10
ATOM     10  C   UNL     1      13.525  11.463  19.078  0.00  0.00    -0.013 C 
ATOM     15  C   UNL     1      13.259  12.955  18.901  0.00  0.00    +0.007 C 
ATOM     16  C   UNL     1      14.683  11.011  18.193  0.00  0.00    +0.007 C 
ENDBRANCH   6  10
BRANCH   7  13
ATOM     13  C   UNL     1      12.991  11.671  22.900  0.00  0.00    +0.093 C 
BRANCH  13   2
ATOM      2  N   UNL     1      12.001  12.497  23.572  0.00  0.00    -0.294 NA
ATOM     20  C   UNL     1      12.477  12.905  24.896  0.00  0.00    +0.105 C 
BRANCH   2  19
ATOM     19  C   UNL     1      11.674  13.676  22.767  0.00  0.00    +0.173 C 
BRANCH  19  22
ATOM     22  C   UNL     1      10.419  14.286  23.214  0.00  0.00    -0.090 C 
ATOM     24  C   UNL     1       9.388  14.781  23.582  0.00  0.00    +0.005 C 
ENDBRANCH  19  22
ENDBRANCH   2  19
ENDBRANCH  13   2
ENDBRANCH   7  13
BRANCH   9  14
ATOM     14  C   UNL     1      13.643   7.289  20.953  0.00  0.00    +0.105 C 
BRANCH  14  18
ATOM      1  O   UNL     1      16.034   6.808  21.037  0.00  0.00    -0.420 OA
ATOM      3  N   UNL     1      15.091   6.422  19.045  0.00  0.00    -0.112 NA
ATOM      4  N   UNL     1      16.435   6.109  18.950  0.00  0.00    -0.107 NA
ATOM     18  C   UNL     1      14.904   6.824  20.280  0.00  0.00    +0.218 A 
ATOM     21  C   UNL     1      16.946   6.350  20.134  0.00  0.00    +0.250 A 
BRANCH  21  23
ATOM      5  N   UNL     1      20.000   6.879  22.186  0.00  0.00    -0.263 NA
ATOM     23  C   UNL     1      18.288   6.207  20.617  0.00  0.00    +0.057 A 
ATOM     25  C   UNL     1      19.168   5.303  20.033  0.00  0.00    +0.016 A 
ATOM     26  C   UNL     1      18.749   6.964  21.681  0.00  0.00    +0.124 A 
ATOM     27  C   UNL     1      20.464   5.186  20.524  0.00  0.00    +0.020 A 
ATOM     28  C   UNL     1      20.827   5.990  21.592  0.00  0.00    +0.111 A 
ENDBRANCH  21  23
ENDBRANCH  14  18
ENDBRANCH   9  14
TORSDOF 8
ENDMDL
MODEL 5
REMARK VINA RESULT:      -5.9     28.967     33.014
REMARK  Name = 38030443
REMARK  12 active torsions:
REMARK  status: ('A' for Active; 'I' for Inactive)
REMARK    1  A    between atoms: N_2  and  C_13
REMARK    2  A    between atoms: N_2  and  C_19
REMARK    3  A    between atoms: N_2  and  C_20
REMARK    4  A    between atoms: C_6  and  C_10
REMARK    5  A    between atoms: C_7  and  C_13
REMARK    6  A    between atoms: C_9  and  C_14
REMARK    7  A    between atoms: C_10  and  C_15
REMARK    8  A    between atoms: C_10  and  C_16
REMARK    9  A    between atoms: C_11  and  C_17
REMARK   10  A    between atoms: C_14  and  C_18
REMARK   11  A    between atoms: C_19  and  C_22
REMARK   12  A    between atoms: C_21  and  C_23
REMARK                            x       y       z     vdW  Elec       q    Type
REMARK                         _______ _______ _______ _____ _____    ______ ____
ROOT
ATOM      6  C   UNL     1     -13.145   8.838  20.125  0.00  0.00    +0.000 C 
ATOM      7  C   UNL     1     -11.830   8.033  19.993  0.00  0.00    +0.029 C 
ATOM      8  C   UNL     1     -14.357   7.897  20.096  0.00  0.00    +0.012 C 
ATOM      9  C   UNL     1     -14.311   6.804  21.187  0.00  0.00    +0.024 C 
ATOM     11  C   UNL     1     -12.917   6.235  21.400  0.00  0.00    -0.073 C 
ATOM     12  C   UNL     1     -11.823   6.792  20.849  0.00  0.00    -0.023 C 
ATOM     17  C   UNL     1     -12.785   5.045  22.311  0.00  0.00    +0.039 C 
ENDROOT
BRANCH   6  10
ATOM     10  C   UNL     1     -13.145   9.703  21.393  0.00  0.00    -0.013 C 
ATOM     15  C   UNL     1     -12.013  10.724  21.340  0.00  0.00    +0.007 C 
ATOM     16  C   UNL     1     -14.493  10.397  21.563  0.00  0.00    +0.007 C 
ENDBRANCH   6  10
BRANCH   7  13
ATOM     13  C   UNL     1     -11.551   7.642  18.538  0.00  0.00    +0.093 C 
BRANCH  13   2
ATOM      2  N   UNL     1     -11.498   8.822  17.691  0.00  0.00    -0.294 NA
ATOM     20  C   UNL     1     -10.126   9.331  17.592  0.00  0.00    +0.105 C 
BRANCH   2  19
ATOM     19  C   UNL     1     -12.024   8.528  16.355  0.00  0.00    +0.173 C 
BRANCH  19  22
ATOM     22  C   UNL     1     -13.473   8.312  16.398  0.00  0.00    -0.090 C 
ATOM     24  C   UNL     1     -14.660   8.136  16.427  0.00  0.00    +0.005 C 
ENDBRANCH  19  22
ENDBRANCH   2  19
ENDBRANCH  13   2
ENDBRANCH   7  13
BRANCH   9  14
ATOM     14  C   UNL     1     -15.349   5.728  20.846  0.00  0.00    +0.105 C 
BRANCH  14  18
ATOM      1  O   UNL     1     -16.018   4.131  22.565  0.00  0.00    -0.420 OA
ATOM      3  N   UNL     1     -17.078   6.098  22.680  0.00  0.00    -0.112 NA
ATOM      4  N   UNL     1     -17.551   5.297  23.704  0.00  0.00    -0.107 NA
ATOM     18  C   UNL     1     -16.187   5.376  22.043  0.00  0.00    +0.218 A 
ATOM     21  C   UNL     1     -16.906   4.160  23.598  0.00  0.00    +0.250 A 
BRANCH  21  23
ATOM      5  N   UNL     1     -17.559   0.622  24.532  0.00  0.00    -0.263 NA
ATOM     23  C   UNL     1     -16.987   2.966  24.388  0.00  0.00    +0.057 A 
ATOM     25  C   UNL     1     -16.596   2.960  25.723  0.00  0.00    +0.016 A 
ATOM     26  C   UNL     1     -17.457   1.781  23.846  0.00  0.00    +0.124 A 
ATOM     27  C   UNL     1     -16.685   1.786  26.463  0.00  0.00    +0.020 A 
ATOM     28  C   UNL     1     -17.170   0.654  25.827  0.00  0.00    +0.111 A 
ENDBRANCH  21  23
ENDBRANCH  14  18
ENDBRANCH   9  14
TORSDOF 8
ENDMDL
MODEL 6
REMARK VINA RESULT:      -5.9     15.539     17.634
REMARK  Name = 38030443
REMARK  12 active torsions:
REMARK  status: ('A' for Active; 'I' for Inactive)
REMARK    1  A    between atoms: N_2  and  C_13
REMARK    2  A    between atoms: N_2  and  C_19
REMARK    3  A    between atoms: N_2  and  C_20
REMARK    4  A    between atoms: C_6  and  C_10
REMARK    5  A    between atoms: C_7  and  C_13
REMARK    6  A    between atoms: C_9  and  C_14
REMARK    7  A    between atoms: C_10  and  C_15
REMARK    8  A    between atoms: C_10  and  C_16
REMARK    9  A    between atoms: C_11  and  C_17
REMARK   10  A    between atoms: C_14  and  C_18
REMARK   11  A    between atoms: C_19  and  C_22
REMARK   12  A    between atoms: C_21  and  C_23
REMARK                            x       y       z     vdW  Elec       q    Type
REMARK                         _______ _______ _______ _____ _____    ______ ____
ROOT
ATOM      6  C   UNL     1       9.355   6.422   7.595  0.00  0.00    +0.000 C 
ATOM      7  C   UNL     1      10.153   7.703   7.935  0.00  0.00    +0.029 C 
ATOM      8  C   UNL     1       9.294   6.214   6.075  0.00  0.00    +0.012 C 
ATOM      9  C   UNL     1      10.686   6.145   5.410  0.00  0.00    +0.024 C 
ATOM     11  C   UNL     1      11.677   7.137   5.998  0.00  0.00    -0.073 C 
ATOM     12  C   UNL     1      11.415   7.832   7.121  0.00  0.00    -0.023 C 
ATOM     17  C   UNL     1      13.007   7.280   5.312  0.00  0.00    +0.039 C 
ENDROOT
BRANCH   6  10
ATOM     10  C   UNL     1       9.944   5.192   8.299  0.00  0.00    -0.013 C 
ATOM     15  C   UNL     1       9.323   5.024   9.683  0.00  0.00    +0.007 C 
ATOM     16  C   UNL     1       9.729   3.941   7.453  0.00  0.00    +0.007 C 
ENDBRANCH   6  10
BRANCH   7  13
ATOM     13  C   UNL     1       9.303   8.964   7.750  0.00  0.00    +0.093 C 
BRANCH  13   2
ATOM      2  N   UNL     1      10.149  10.122   7.514  0.00  0.00    -0.294 NA
ATOM     20  C   UNL     1       9.419  11.159   6.778  0.00  0.00    +0.105 C 
BRANCH   2  19
ATOM     19  C   UNL     1      10.656  10.664   8.778  0.00  0.00    +0.173 C 
BRANCH  19  22
ATOM     22  C   UNL     1       9.555  11.114   9.635  0.00  0.00    -0.090 C 
ATOM     24  C   UNL     1       8.654  11.479  10.339  0.00  0.00    +0.005 C 
ENDBRANCH  19  22
ENDBRANCH   2  19
ENDBRANCH  13   2
ENDBRANCH   7  13
BRANCH   9  14
ATOM     14  C   UNL     1      10.513   6.302   3.895  0.00  0.00    +0.105 C 
BRANCH  14  18
ATOM      1  O   UNL     1      12.192   5.492   2.319  0.00  0.00    -0.420 OA
ATOM      3  N   UNL     1      10.884   3.888   3.170  0.00  0.00    -0.112 NA
ATOM      4  N   UNL     1      11.781   3.293   2.301  0.00  0.00    -0.107 NA
ATOM     18  C   UNL     1      11.162   5.170   3.148  0.00  0.00    +0.218 A 
ATOM     21  C   UNL     1      12.523   4.266   1.828  0.00  0.00    +0.250 A 
BRANCH  21  23
ATOM      5  N   UNL     1      14.409   4.631  -1.355  0.00  0.00    -0.263 NA
ATOM     23  C   UNL     1      13.610   4.238   0.893  0.00  0.00    +0.057 A 
ATOM     25  C   UNL     1      14.878   3.817   1.278  0.00  0.00    +0.016 A 
ATOM     26  C   UNL     1      13.430   4.632  -0.423  0.00  0.00    +0.124 A 
ATOM     27  C   UNL     1      15.912   3.802   0.348  0.00  0.00    +0.020 A 
ATOM     28  C   UNL     1      15.628   4.215  -0.943  0.00  0.00    +0.111 A 
ENDBRANCH  21  23
ENDBRANCH  14  18
ENDBRANCH   9  14
TORSDOF 8
ENDMDL
MODEL 7
REMARK VINA RESULT:      -5.9     18.264     20.324
REMARK  Name = 38030443
REMARK  12 active torsions:
REMARK  status: ('A' for Active; 'I' for Inactive)
REMARK    1  A    between atoms: N_2  and  C_13
REMARK    2  A    between atoms: N_2  and  C_19
REMARK    3  A    between atoms: N_2  and  C_20
REMARK    4  A    between atoms: C_6  and  C_10
REMARK    5  A    between atoms: C_7  and  C_13
REMARK    6  A    between atoms: C_9  and  C_14
REMARK    7  A    between atoms: C_10  and  C_15
REMARK    8  A    between atoms: C_10  and  C_16
REMARK    9  A    between atoms: C_11  and  C_17
REMARK   10  A    between atoms: C_14  and  C_18
REMARK   11  A    between atoms: C_19  and  C_22
REMARK   12  A    between atoms: C_21  and  C_23
REMARK                            x       y       z     vdW  Elec       q    Type
REMARK                         _______ _______ _______ _____ _____    ______ ____
ROOT
ATOM      6  C   UNL     1      10.346   7.470   4.125  0.00  0.00    +0.000 C 
ATOM      7  C   UNL     1      10.138   6.349   5.171  0.00  0.00    +0.029 C 
ATOM      8  C   UNL     1      11.601   7.194   3.285  0.00  0.00    +0.012 C 
ATOM      9  C   UNL     1      11.573   5.825   2.572  0.00  0.00    +0.024 C 
ATOM     11  C   UNL     1      10.982   4.718   3.432  0.00  0.00    -0.073 C 
ATOM     12  C   UNL     1      10.354   4.973   4.596  0.00  0.00    -0.023 C 
ATOM     17  C   UNL     1      11.065   3.311   2.909  0.00  0.00    +0.039 C 
ENDROOT
BRANCH   6  10
ATOM     10  C   UNL     1       9.109   7.639   3.233  0.00  0.00    -0.013 C 
ATOM     15  C   UNL     1       7.894   8.019   4.076  0.00  0.00    +0.007 C 
ATOM     16  C   UNL     1       9.369   8.688   2.156  0.00  0.00    +0.007 C 
ENDBRANCH   6  10
BRANCH   7  13
ATOM     13  C   UNL     1      11.049   6.535   6.388  0.00  0.00    +0.093 C 
BRANCH  13   2
ATOM      2  N   UNL     1      10.300   6.364   7.622  0.00  0.00    -0.294 NA
ATOM     20  C   UNL     1       9.003   7.043   7.541  0.00  0.00    +0.105 C 
BRANCH   2  19
ATOM     19  C   UNL     1      10.108   4.943   7.921  0.00  0.00    +0.173 C 
BRANCH  19  22
ATOM     22  C   UNL     1       9.470   4.764   9.228  0.00  0.00    -0.090 C 
ATOM     24  C   UNL     1       8.951   4.616  10.301  0.00  0.00    +0.005 C 
ENDBRANCH  19  22
ENDBRANCH   2  19
ENDBRANCH  13   2
ENDBRANCH   7  13
BRANCH   9  14
ATOM     14  C   UNL     1      12.987   5.502   2.076  0.00  0.00    +0.105 C 
BRANCH  14  18
ATOM      1  O   UNL     1      11.807   4.771   0.069  0.00  0.00    -0.420 OA
ATOM      3  N   UNL     1      13.879   3.950   0.263  0.00  0.00    -0.112 NA
ATOM      4  N   UNL     1      13.331   3.459  -0.909  0.00  0.00    -0.107 NA
ATOM     18  C   UNL     1      12.953   4.711   0.799  0.00  0.00    +0.218 A 
ATOM     21  C   UNL     1      12.122   3.963  -0.980  0.00  0.00    +0.250 A 
BRANCH  21  23
ATOM      5  N   UNL     1       9.887   2.331  -3.462  0.00  0.00    -0.263 NA
ATOM     23  C   UNL     1      11.103   3.799  -1.975  0.00  0.00    +0.057 A 
ATOM     25  C   UNL     1      10.353   4.883  -2.419  0.00  0.00    +0.016 A 
ATOM     26  C   UNL     1      10.833   2.556  -2.523  0.00  0.00    +0.124 A 
ATOM     27  C   UNL     1       9.370   4.692  -3.384  0.00  0.00    +0.020 A 
ATOM     28  C   UNL     1       9.178   3.409  -3.870  0.00  0.00    +0.111 A 
ENDBRANCH  21  23
ENDBRANCH  14  18
ENDBRANCH   9  14
TORSDOF 8
ENDMDL
MODEL 8
REMARK VINA RESULT:      -5.8     27.177     31.126
REMARK  Name = 38030443
REMARK  12 active torsions:
REMARK  status: ('A' for Active; 'I' for Inactive)
REMARK    1  A    between atoms: N_2  and  C_13
REMARK    2  A    between atoms: N_2  and  C_19
REMARK    3  A    between atoms: N_2  and  C_20
REMARK    4  A    between atoms: C_6  and  C_10
REMARK    5  A    between atoms: C_7  and  C_13
REMARK    6  A    between atoms: C_9  and  C_14
REMARK    7  A    between atoms: C_10  and  C_15
REMARK    8  A    between atoms: C_10  and  C_16
REMARK    9  A    between atoms: C_11  and  C_17
REMARK   10  A    between atoms: C_14  and  C_18
REMARK   11  A    between atoms: C_19  and  C_22
REMARK   12  A    between atoms: C_21  and  C_23
REMARK                            x       y       z     vdW  Elec       q    Type
REMARK                         _______ _______ _______ _____ _____    ______ ____
ROOT
ATOM      6  C   UNL     1      -3.372 -10.674  15.068  0.00  0.00    +0.000 C 
ATOM      7  C   UNL     1      -4.386 -11.544  14.288  0.00  0.00    +0.029 C 
ATOM      8  C   UNL     1      -3.980 -10.199  16.395  0.00  0.00    +0.012 C 
ATOM      9  C   UNL     1      -4.464 -11.357  17.296  0.00  0.00    +0.024 C 
ATOM     11  C   UNL     1      -5.133 -12.479  16.516  0.00  0.00    -0.073 C 
ATOM     12  C   UNL     1      -5.096 -12.537  15.171  0.00  0.00    -0.023 C 
ATOM     17  C   UNL     1      -5.798 -13.572  17.304  0.00  0.00    +0.039 C 
ENDROOT
BRANCH   6  10
ATOM     10  C   UNL     1      -2.053 -11.423  15.299  0.00  0.00    -0.013 C 
ATOM     15  C   UNL     1      -1.661 -12.207  14.050  0.00  0.00    +0.007 C 
ATOM     16  C   UNL     1      -0.949 -10.447  15.695  0.00  0.00    +0.007 C 
ENDBRANCH   6  10
BRANCH   7  13
ATOM     13  C   UNL     1      -5.425 -10.687  13.558  0.00  0.00    +0.093 C 
BRANCH  13   2
ATOM      2  N   UNL     1      -5.459 -11.015  12.143  0.00  0.00    -0.294 NA
ATOM     20  C   UNL     1      -6.813 -11.398  11.731  0.00  0.00    +0.105 C 
BRANCH   2  19
ATOM     19  C   UNL     1      -4.986  -9.888  11.335  0.00  0.00    +0.173 C 
BRANCH  19  22
ATOM     22  C   UNL     1      -3.524  -9.894  11.231  0.00  0.00    -0.090 C 
ATOM     24  C   UNL     1      -2.326  -9.905  11.147  0.00  0.00    +0.005 C 
ENDBRANCH  19  22
ENDBRANCH   2  19
ENDBRANCH  13   2
ENDBRANCH   7  13
BRANCH   9  14
ATOM     14  C   UNL     1      -5.361 -10.779  18.397  0.00  0.00    +0.105 C 
BRANCH  14  18
ATOM      1  O   UNL     1      -7.767 -10.384  18.513  0.00  0.00    -0.420 OA
ATOM      3  N   UNL     1      -6.771  -9.458  16.736  0.00  0.00    -0.112 NA
ATOM      4  N   UNL     1      -8.120  -9.157  16.676  0.00  0.00    -0.107 NA
ATOM     18  C   UNL     1      -6.612 -10.174  17.824  0.00  0.00    +0.218 A 
ATOM     21  C   UNL     1      -8.661  -9.718  17.731  0.00  0.00    +0.250 A 
BRANCH  21  23
ATOM      5  N   UNL     1     -12.333  -9.143  17.791  0.00  0.00    -0.263 NA
ATOM     23  C   UNL     1     -10.022  -9.736  18.182  0.00  0.00    +0.057 A 
ATOM     25  C   UNL     1     -10.371 -10.332  19.389  0.00  0.00    +0.016 A 
ATOM     26  C   UNL     1     -11.032  -9.161  17.427  0.00  0.00    +0.124 A 
ATOM     27  C   UNL     1     -11.701 -10.334  19.798  0.00  0.00    +0.020 A 
ATOM     28  C   UNL     1     -12.635  -9.732  18.971  0.00  0.00    +0.111 A 
ENDBRANCH  21  23
ENDBRANCH  14  18
ENDBRANCH   9  14
TORSDOF 8
ENDMDL
MODEL 9
REMARK VINA RESULT:      -5.8     27.262     30.700
REMARK  Name = 38030443
REMARK  12 active torsions:
REMARK  status: ('A' for Active; 'I' for Inactive)
REMARK    1  A    between atoms: N_2  and  C_13
REMARK    2  A    between atoms: N_2  and  C_19
REMARK    3  A    between atoms: N_2  and  C_20
REMARK    4  A    between atoms: C_6  and  C_10
REMARK    5  A    between atoms: C_7  and  C_13
REMARK    6  A    between atoms: C_9  and  C_14
REMARK    7  A    between atoms: C_10  and  C_15
REMARK    8  A    between atoms: C_10  and  C_16
REMARK    9  A    between atoms: C_11  and  C_17
REMARK   10  A    between atoms: C_14  and  C_18
REMARK   11  A    between atoms: C_19  and  C_22
REMARK   12  A    between atoms: C_21  and  C_23
REMARK                            x       y       z     vdW  Elec       q    Type
REMARK                         _______ _______ _______ _____ _____    ______ ____
ROOT
ATOM      6  C   UNL     1      -3.630 -10.493  15.338  0.00  0.00    +0.000 C 
ATOM      7  C   UNL     1      -4.662 -10.819  14.233  0.00  0.00    +0.029 C 
ATOM      8  C   UNL     1      -4.046 -11.134  16.670  0.00  0.00    +0.012 C 
ATOM      9  C   UNL     1      -4.236 -12.664  16.580  0.00  0.00    +0.024 C 
ATOM     11  C   UNL     1      -4.904 -13.106  15.286  0.00  0.00    -0.073 C 
ATOM     12  C   UNL     1      -5.095 -12.263  14.254  0.00  0.00    -0.023 C 
ATOM     17  C   UNL     1      -5.298 -14.552  15.167  0.00  0.00    +0.039 C 
ENDROOT
BRANCH   6  10
ATOM     10  C   UNL     1      -2.217 -10.931  14.930  0.00  0.00    -0.013 C 
ATOM     15  C   UNL     1      -1.872 -10.390  13.545  0.00  0.00    +0.007 C 
ATOM     16  C   UNL     1      -1.196 -10.464  15.963  0.00  0.00    +0.007 C 
ENDBRANCH   6  10
BRANCH   7  13
ATOM     13  C   UNL     1      -5.900  -9.922  14.332  0.00  0.00    +0.093 C 
BRANCH  13   2
ATOM      2  N   UNL     1      -6.673  -9.977  13.103  0.00  0.00    -0.294 NA
ATOM     20  C   UNL     1      -8.110  -9.975  13.392  0.00  0.00    +0.105 C 
BRANCH   2  19
ATOM     19  C   UNL     1      -6.334  -8.855  12.223  0.00  0.00    +0.173 C 
BRANCH  19  22
ATOM     22  C   UNL     1      -5.192  -9.187  11.366  0.00  0.00    -0.090 C 
ATOM     24  C   UNL     1      -4.258  -9.464  10.665  0.00  0.00    +0.005 C 
ENDBRANCH  19  22
ENDBRANCH   2  19
ENDBRANCH  13   2
ENDBRANCH   7  13
BRANCH   9  14
ATOM     14  C   UNL     1      -4.986 -13.139  17.830  0.00  0.00    +0.105 C 
BRANCH  14  18
ATOM      1  O   UNL     1      -6.848 -11.567  17.704  0.00  0.00    -0.420 OA
ATOM      3  N   UNL     1      -5.653 -11.422  19.590  0.00  0.00    -0.112 NA
ATOM      4  N   UNL     1      -6.667 -10.483  19.653  0.00  0.00    -0.107 NA
ATOM     18  C   UNL     1      -5.799 -12.030  18.436  0.00  0.00    +0.218 A 
ATOM     21  C   UNL     1      -7.338 -10.602  18.532  0.00  0.00    +0.250 A 
BRANCH  21  23
ATOM      5  N   UNL     1      -9.404  -8.195  16.594  0.00  0.00    -0.263 NA
ATOM     23  C   UNL     1      -8.487  -9.890  18.054  0.00  0.00    +0.057 A 
ATOM     25  C   UNL     1      -9.758 -10.167  18.543  0.00  0.00    +0.016 A 
ATOM     26  C   UNL     1      -8.365  -8.904  17.089  0.00  0.00    +0.124 A 
ATOM     27  C   UNL     1     -10.854  -9.460  18.058  0.00  0.00    +0.020 A 
ATOM     28  C   UNL     1     -10.625  -8.493  17.093  0.00  0.00    +0.111 A 
ENDBRANCH  21  23
ENDBRANCH  14  18
ENDBRANCH   9  14
TORSDOF 8
ENDMDL
MODEL 10
REMARK VINA RESULT:      -5.8     29.104     30.831
REMARK  Name = 38030443
REMARK  12 active torsions:
REMARK  status: ('A' for Active; 'I' for Inactive)
REMARK    1  A    between atoms: N_2  and  C_13
REMARK    2  A    between atoms: N_2  and  C_19
REMARK    3  A    between atoms: N_2  and  C_20
REMARK    4  A    between atoms: C_6  and  C_10
REMARK    5  A    between atoms: C_7  and  C_13
REMARK    6  A    between atoms: C_9  and  C_14
REMARK    7  A    between atoms: C_10  and  C_15
REMARK    8  A    between atoms: C_10  and  C_16
REMARK    9  A    between atoms: C_11  and  C_17
REMARK   10  A    between atoms: C_14  and  C_18
REMARK   11  A    between atoms: C_19  and  C_22
REMARK   12  A    between atoms: C_21  and  C_23
REMARK                            x       y       z     vdW  Elec       q    Type
REMARK                         _______ _______ _______ _____ _____    ______ ____
ROOT
ATOM      6  C   UNL     1     -12.188  10.225  17.850  0.00  0.00    +0.000 C 
ATOM      7  C   UNL     1     -12.282   8.761  17.357  0.00  0.00    +0.029 C 
ATOM      8  C   UNL     1     -12.935  10.394  19.180  0.00  0.00    +0.012 C 
ATOM      9  C   UNL     1     -12.432   9.445  20.289  0.00  0.00    +0.024 C 
ATOM     11  C   UNL     1     -12.106   8.050  19.778  0.00  0.00    -0.073 C 
ATOM     12  C   UNL     1     -12.055   7.763  18.464  0.00  0.00    -0.023 C 
ATOM     17  C   UNL     1     -11.777   6.996  20.798  0.00  0.00    +0.039 C 
ENDROOT
BRANCH   6  10
ATOM     10  C   UNL     1     -10.728  10.681  17.972  0.00  0.00    -0.013 C 
ATOM     15  C   UNL     1      -9.951  10.321  16.709  0.00  0.00    +0.007 C 
ATOM     16  C   UNL     1     -10.660  12.181  18.240  0.00  0.00    +0.007 C 
ENDBRANCH   6  10
BRANCH   7  13
ATOM     13  C   UNL     1     -13.630   8.474  16.690  0.00  0.00    +0.093 C 
BRANCH  13   2
ATOM      2  N   UNL     1     -13.438   7.921  15.359  0.00  0.00    -0.294 NA
ATOM     20  C   UNL     1     -14.725   7.727  14.685  0.00  0.00    +0.105 C 
BRANCH   2  19
ATOM     19  C   UNL     1     -12.572   8.788  14.555  0.00  0.00    +0.173 C 
BRANCH  19  22
ATOM     22  C   UNL     1     -11.404   8.053  14.064  0.00  0.00    -0.090 C 
ATOM     24  C   UNL     1     -10.443   7.453  13.665  0.00  0.00    +0.005 C 
ENDBRANCH  19  22
ENDBRANCH   2  19
ENDBRANCH  13   2
ENDBRANCH   7  13
BRANCH   9  14
ATOM     14  C   UNL     1     -13.458   9.437  21.429  0.00  0.00    +0.105 C 
BRANCH  14  18
ATOM      1  O   UNL     1     -12.805   9.830  23.747  0.00  0.00    -0.420 OA
ATOM      3  N   UNL     1     -12.924  11.684  22.502  0.00  0.00    -0.112 NA
ATOM      4  N   UNL     1     -12.546  12.052  23.781  0.00  0.00    -0.107 NA
ATOM     18  C   UNL     1     -13.062  10.380  22.530  0.00  0.00    +0.218 A 
ATOM     21  C   UNL     1     -12.490  10.939  24.473  0.00  0.00    +0.250 A 
BRANCH  21  23
ATOM      5  N   UNL     1     -12.887  10.457  28.138  0.00  0.00    -0.263 NA
ATOM     23  C   UNL     1     -12.153  10.713  25.848  0.00  0.00    +0.057 A 
ATOM     25  C   UNL     1     -10.833  10.533  26.244  0.00  0.00    +0.016 A 
ATOM     26  C   UNL     1     -13.134  10.666  26.825  0.00  0.00    +0.124 A 
ATOM     27  C   UNL     1     -10.537  10.314  27.585  0.00  0.00    +0.020 A 
ATOM     28  C   UNL     1     -11.591  10.286  28.484  0.00  0.00    +0.111 A 
ENDBRANCH  21  23
ENDBRANCH  14  18
ENDBRANCH   9  14
TORSDOF 8
ENDMDL
