MODEL 1
REMARK VINA RESULT:      -6.8      0.000      0.000
REMARK  Name = 56775967
REMARK  6 active torsions:
REMARK  status: ('A' for Active; 'I' for Inactive)
REMARK    1  A    between atoms: O_5  and  C_25
REMARK    2  A    between atoms: O_5  and  C_26
REMARK    3  A    between atoms: N_6  and  C_12
REMARK    4  A    between atoms: C_9  and  C_12
REMARK    5  A    between atoms: C_13  and  C_17
REMARK    6  A    between atoms: C_18  and  C_20
REMARK                            x       y       z     vdW  Elec       q    Type
REMARK                         _______ _______ _______ _____ _____    ______ ____
ROOT
ATOM      7  N   UNL     1      15.363   6.774  21.290  0.00  0.00    -0.341 N 
ATOM      8  N   UNL     1      14.197   7.218  19.453  0.00  0.00    -0.238 NA
ATOM     17  C   UNL     1      14.151   7.126  20.763  0.00  0.00    +0.127 A 
ATOM     18  C   UNL     1      16.236   6.630  20.248  0.00  0.00    +0.066 A 
ATOM     19  C   UNL     1      15.493   6.910  19.126  0.00  0.00    +0.139 A 
ATOM     27  H   UNL     1      15.569   6.654  22.273  0.00  0.00    +0.167 HD
ENDROOT
BRANCH  17  13
ATOM      4  O   UNL     1      10.646   6.616  22.031  0.00  0.00    -0.377 OA
ATOM      6  N   UNL     1      12.482   8.781  21.662  0.00  0.00    -0.288 NA
ATOM     13  C   UNL     1      12.941   7.370  21.653  0.00  0.00    +0.149 C 
ATOM     14  C   UNL     1      11.250   8.912  22.460  0.00  0.00    +0.113 C 
ATOM     15  C   UNL     1      11.795   6.443  21.202  0.00  0.00    +0.186 C 
ATOM     16  C   UNL     1      10.175   7.959  21.955  0.00  0.00    +0.175 C 
BRANCH   6  12
ATOM     12  C   UNL     1      13.501   9.691  22.198  0.00  0.00    +0.088 C 
BRANCH  12   9
ATOM      9  C   UNL     1      13.725  10.854  21.287  0.00  0.00    +0.003 C 
ATOM     10  C   UNL     1      13.288  10.758  19.855  0.00  0.00    +0.005 C 
ATOM     11  C   UNL     1      14.749  10.744  20.197  0.00  0.00    +0.005 C 
ENDBRANCH  12   9
ENDBRANCH   6  12
ENDBRANCH  17  13
BRANCH  18  20
ATOM     20  C   UNL     1      17.617   6.263  20.417  0.00  0.00    +0.000 A 
ATOM     21  C   UNL     1      18.356   6.794  21.474  0.00  0.00    +0.013 A 
ATOM     22  C   UNL     1      18.216   5.375  19.524  0.00  0.00    +0.013 A 
ATOM     23  C   UNL     1      19.695   6.438  21.636  0.00  0.00    +0.046 A 
ATOM     24  C   UNL     1      19.555   5.018  19.686  0.00  0.00    +0.046 A 
ATOM     25  C   UNL     1      20.295   5.550  20.743  0.00  0.00    +0.130 A 
BRANCH  25   5
ATOM      5  O   UNL     1      21.599   5.200  20.904  0.00  0.00    -0.406 OA
BRANCH   5  26
ATOM      1  F   UNL     1      21.707   3.901  22.748  0.00  0.00    -0.133 F 
ATOM      2  F   UNL     1      21.063   2.976  20.875  0.00  0.00    -0.133 F 
ATOM      3  F   UNL     1      23.175   3.561  21.164  0.00  0.00    -0.133 F 
ATOM     26  C   UNL     1      21.891   3.900  21.408  0.00  0.00    +0.575 C 
ENDBRANCH   5  26
ENDBRANCH  25   5
ENDBRANCH  18  20
TORSDOF 6
ENDMDL
MODEL 2
REMARK VINA RESULT:      -6.7      2.002      2.835
REMARK  Name = 56775967
REMARK  6 active torsions:
REMARK  status: ('A' for Active; 'I' for Inactive)
REMARK    1  A    between atoms: O_5  and  C_25
REMARK    2  A    between atoms: O_5  and  C_26
REMARK    3  A    between atoms: N_6  and  C_12
REMARK    4  A    between atoms: C_9  and  C_12
REMARK    5  A    between atoms: C_13  and  C_17
REMARK    6  A    between atoms: C_18  and  C_20
REMARK                            x       y       z     vdW  Elec       q    Type
REMARK                         _______ _______ _______ _____ _____    ______ ____
ROOT
ATOM      7  N   UNL     1      15.833   6.925  19.337  0.00  0.00    -0.341 N 
ATOM      8  N   UNL     1      14.584   8.017  20.813  0.00  0.00    -0.238 NA
ATOM     17  C   UNL     1      14.637   7.537  19.591  0.00  0.00    +0.127 A 
ATOM     18  C   UNL     1      16.591   7.023  20.470  0.00  0.00    +0.066 A 
ATOM     19  C   UNL     1      15.799   7.700  21.366  0.00  0.00    +0.139 A 
ATOM     27  H   UNL     1      16.096   6.474  18.471  0.00  0.00    +0.167 HD
ENDROOT
BRANCH  17  13
ATOM      4  O   UNL     1      13.135   8.339  16.236  0.00  0.00    -0.377 OA
ATOM      6  N   UNL     1      12.328   8.332  18.983  0.00  0.00    -0.288 NA
ATOM     13  C   UNL     1      13.545   7.610  18.533  0.00  0.00    +0.149 C 
ATOM     14  C   UNL     1      11.365   8.449  17.873  0.00  0.00    +0.113 C 
ATOM     15  C   UNL     1      14.119   8.277  17.268  0.00  0.00    +0.186 C 
ATOM     16  C   UNL     1      12.013   9.109  16.663  0.00  0.00    +0.175 C 
BRANCH   6  12
ATOM     12  C   UNL     1      11.676   7.664  20.116  0.00  0.00    +0.088 C 
BRANCH  12   9
ATOM      9  C   UNL     1      10.827   8.617  20.894  0.00  0.00    +0.003 C 
ATOM     10  C   UNL     1      11.455   9.851  21.474  0.00  0.00    +0.005 C 
ATOM     11  C   UNL     1      11.023   8.732  22.376  0.00  0.00    +0.005 C 
ENDBRANCH  12   9
ENDBRANCH   6  12
ENDBRANCH  17  13
BRANCH  18  20
ATOM     20  C   UNL     1      17.922   6.488  20.581  0.00  0.00    +0.000 A 
ATOM     21  C   UNL     1      18.766   6.922  21.604  0.00  0.00    +0.013 A 
ATOM     22  C   UNL     1      18.369   5.535  19.666  0.00  0.00    +0.013 A 
ATOM     23  C   UNL     1      20.056   6.403  21.711  0.00  0.00    +0.046 A 
ATOM     24  C   UNL     1      19.660   5.015  19.773  0.00  0.00    +0.046 A 
ATOM     25  C   UNL     1      20.503   5.451  20.796  0.00  0.00    +0.130 A 
BRANCH  25   5
ATOM      5  O   UNL     1      21.761   4.941  20.902  0.00  0.00    -0.406 OA
BRANCH   5  26
ATOM      1  F   UNL     1      21.712   3.622  22.733  0.00  0.00    -0.133 F 
ATOM      2  F   UNL     1      21.000   2.785  20.844  0.00  0.00    -0.133 F 
ATOM      3  F   UNL     1      23.156   3.147  21.162  0.00  0.00    -0.133 F 
ATOM     26  C   UNL     1      21.911   3.614  21.395  0.00  0.00    +0.575 C 
ENDBRANCH   5  26
ENDBRANCH  25   5
ENDBRANCH  18  20
TORSDOF 6
ENDMDL
MODEL 3
REMARK VINA RESULT:      -6.5     17.343     19.533
REMARK  Name = 56775967
REMARK  6 active torsions:
REMARK  status: ('A' for Active; 'I' for Inactive)
REMARK    1  A    between atoms: O_5  and  C_25
REMARK    2  A    between atoms: O_5  and  C_26
REMARK    3  A    between atoms: N_6  and  C_12
REMARK    4  A    between atoms: C_9  and  C_12
REMARK    5  A    between atoms: C_13  and  C_17
REMARK    6  A    between atoms: C_18  and  C_20
REMARK                            x       y       z     vdW  Elec       q    Type
REMARK                         _______ _______ _______ _____ _____    ______ ____
ROOT
ATOM      7  N   UNL     1      12.153   5.183   3.203  0.00  0.00    -0.341 N 
ATOM      8  N   UNL     1      12.279   6.828   1.719  0.00  0.00    -0.238 NA
ATOM     17  C   UNL     1      12.609   5.583   1.979  0.00  0.00    +0.127 A 
ATOM     18  C   UNL     1      11.491   6.241   3.760  0.00  0.00    +0.066 A 
ATOM     19  C   UNL     1      11.582   7.244   2.825  0.00  0.00    +0.139 A 
ATOM     27  H   UNL     1      12.277   4.265   3.611  0.00  0.00    +0.167 HD
ENDROOT
BRANCH  17  13
ATOM      4  O   UNL     1      15.665   4.170   0.300  0.00  0.00    -0.377 OA
ATOM      6  N   UNL     1      12.905   4.605  -0.321  0.00  0.00    -0.288 NA
ATOM     13  C   UNL     1      13.396   4.641   1.079  0.00  0.00    +0.149 C 
ATOM     14  C   UNL     1      13.779   3.754  -1.147  0.00  0.00    +0.113 C 
ATOM     15  C   UNL     1      14.882   5.049   1.108  0.00  0.00    +0.186 C 
ATOM     16  C   UNL     1      15.227   4.218  -1.055  0.00  0.00    +0.175 C 
BRANCH   6  12
ATOM     12  C   UNL     1      11.526   4.107  -0.411  0.00  0.00    +0.088 C 
BRANCH  12   9
ATOM      9  C   UNL     1      10.787   4.753  -1.537  0.00  0.00    +0.003 C 
ATOM     10  C   UNL     1      10.749   6.251  -1.624  0.00  0.00    +0.005 C 
ATOM     11  C   UNL     1       9.511   5.488  -1.250  0.00  0.00    +0.005 C 
ENDBRANCH  12   9
ENDBRANCH   6  12
ENDBRANCH  17  13
BRANCH  18  20
ATOM     20  C   UNL     1      10.868   6.193   5.056  0.00  0.00    +0.000 A 
ATOM     21  C   UNL     1      11.627   6.420   6.204  0.00  0.00    +0.013 A 
ATOM     22  C   UNL     1       9.505   5.919   5.165  0.00  0.00    +0.013 A 
ATOM     23  C   UNL     1      11.023   6.373   7.461  0.00  0.00    +0.046 A 
ATOM     24  C   UNL     1       8.900   5.873   6.422  0.00  0.00    +0.046 A 
ATOM     25  C   UNL     1       9.660   6.099   7.570  0.00  0.00    +0.130 A 
BRANCH  25   5
ATOM      5  O   UNL     1       9.070   6.058   8.795  0.00  0.00    -0.406 OA
BRANCH   5  26
ATOM      1  F   UNL     1      10.370   5.055  10.345  0.00  0.00    -0.133 F 
ATOM      2  F   UNL     1       8.214   4.707  10.431  0.00  0.00    -0.133 F 
ATOM      3  F   UNL     1       9.429   3.799   8.824  0.00  0.00    -0.133 F 
ATOM     26  C   UNL     1       9.257   4.894   9.594  0.00  0.00    +0.575 C 
ENDBRANCH   5  26
ENDBRANCH  25   5
ENDBRANCH  18  20
TORSDOF 6
ENDMDL
MODEL 4
REMARK VINA RESULT:      -6.5     16.613     18.973
REMARK  Name = 56775967
REMARK  6 active torsions:
REMARK  status: ('A' for Active; 'I' for Inactive)
REMARK    1  A    between atoms: O_5  and  C_25
REMARK    2  A    between atoms: O_5  and  C_26
REMARK    3  A    between atoms: N_6  and  C_12
REMARK    4  A    between atoms: C_9  and  C_12
REMARK    5  A    between atoms: C_13  and  C_17
REMARK    6  A    between atoms: C_18  and  C_20
REMARK                            x       y       z     vdW  Elec       q    Type
REMARK                         _______ _______ _______ _____ _____    ______ ____
ROOT
ATOM      7  N   UNL     1      12.980   6.207   3.710  0.00  0.00    -0.341 N 
ATOM      8  N   UNL     1      12.388   7.286   1.862  0.00  0.00    -0.238 NA
ATOM     17  C   UNL     1      13.328   6.571   2.439  0.00  0.00    +0.127 A 
ATOM     18  C   UNL     1      11.739   6.724   3.960  0.00  0.00    +0.066 A 
ATOM     19  C   UNL     1      11.395   7.385   2.804  0.00  0.00    +0.139 A 
ATOM     27  H   UNL     1      13.539   5.647   4.340  0.00  0.00    +0.167 HD
ENDROOT
BRANCH  17  13
ATOM      4  O   UNL     1      16.546   7.035   0.548  0.00  0.00    -0.377 OA
ATOM      6  N   UNL     1      14.561   5.004   0.905  0.00  0.00    -0.288 NA
ATOM     13  C   UNL     1      14.661   6.158   1.834  0.00  0.00    +0.149 C 
ATOM     14  C   UNL     1      15.870   4.734   0.284  0.00  0.00    +0.113 C 
ATOM     15  C   UNL     1      15.276   7.370   1.107  0.00  0.00    +0.186 C 
ATOM     16  C   UNL     1      16.410   5.982  -0.402  0.00  0.00    +0.175 C 
BRANCH   6  12
ATOM     12  C   UNL     1      14.091   3.789   1.582  0.00  0.00    +0.088 C 
BRANCH  12   9
ATOM      9  C   UNL     1      12.873   3.234   0.917  0.00  0.00    +0.003 C 
ATOM     10  C   UNL     1      12.125   4.083  -0.069  0.00  0.00    +0.005 C 
ATOM     11  C   UNL     1      11.526   3.788   1.275  0.00  0.00    +0.005 C 
ENDBRANCH  12   9
ENDBRANCH   6  12
ENDBRANCH  17  13
BRANCH  18  20
ATOM     20  C   UNL     1      11.042   6.544   5.205  0.00  0.00    +0.000 A 
ATOM     21  C   UNL     1       9.708   6.135   5.206  0.00  0.00    +0.013 A 
ATOM     22  C   UNL     1      11.700   6.777   6.413  0.00  0.00    +0.013 A 
ATOM     23  C   UNL     1       9.032   5.961   6.414  0.00  0.00    +0.046 A 
ATOM     24  C   UNL     1      11.024   6.603   7.621  0.00  0.00    +0.046 A 
ATOM     25  C   UNL     1       9.690   6.195   7.621  0.00  0.00    +0.130 A 
BRANCH  25   5
ATOM      5  O   UNL     1       9.032   6.022   8.799  0.00  0.00    -0.406 OA
BRANCH   5  26
ATOM      1  F   UNL     1       9.581   3.833   8.728  0.00  0.00    -0.133 F 
ATOM      2  F   UNL     1      10.416   5.050  10.340  0.00  0.00    -0.133 F 
ATOM      3  F   UNL     1       8.272   4.513  10.342  0.00  0.00    -0.133 F 
ATOM     26  C   UNL     1       9.324   4.860   9.569  0.00  0.00    +0.575 C 
ENDBRANCH   5  26
ENDBRANCH  25   5
ENDBRANCH  18  20
TORSDOF 6
ENDMDL
MODEL 5
REMARK VINA RESULT:      -6.4     17.243     18.934
REMARK  Name = 56775967
REMARK  6 active torsions:
REMARK  status: ('A' for Active; 'I' for Inactive)
REMARK    1  A    between atoms: O_5  and  C_25
REMARK    2  A    between atoms: O_5  and  C_26
REMARK    3  A    between atoms: N_6  and  C_12
REMARK    4  A    between atoms: C_9  and  C_12
REMARK    5  A    between atoms: C_13  and  C_17
REMARK    6  A    between atoms: C_18  and  C_20
REMARK                            x       y       z     vdW  Elec       q    Type
REMARK                         _______ _______ _______ _____ _____    ______ ____
ROOT
ATOM      7  N   UNL     1       7.118   9.210   4.707  0.00  0.00    -0.341 N 
ATOM      8  N   UNL     1       7.505   9.021   2.529  0.00  0.00    -0.238 NA
ATOM     17  C   UNL     1       6.816   9.656   3.451  0.00  0.00    +0.127 A 
ATOM     18  C   UNL     1       8.058   8.226   4.577  0.00  0.00    +0.066 A 
ATOM     19  C   UNL     1       8.281   8.129   3.224  0.00  0.00    +0.139 A 
ATOM     27  H   UNL     1       6.722   9.557   5.570  0.00  0.00    +0.167 HD
ENDROOT
BRANCH  17  13
ATOM      4  O   UNL     1       4.850  12.753   4.286  0.00  0.00    -0.377 OA
ATOM      6  N   UNL     1       4.427  10.261   2.941  0.00  0.00    -0.288 NA
ATOM     13  C   UNL     1       5.795  10.762   3.227  0.00  0.00    +0.149 C 
ATOM     14  C   UNL     1       3.482  11.387   2.841  0.00  0.00    +0.113 C 
ATOM     15  C   UNL     1       5.774  11.680   4.465  0.00  0.00    +0.186 C 
ATOM     16  C   UNL     1       3.531  12.247   4.098  0.00  0.00    +0.175 C 
BRANCH   6  12
ATOM     12  C   UNL     1       4.373   9.477   1.701  0.00  0.00    +0.088 C 
BRANCH  12   9
ATOM      9  C   UNL     1       4.541  10.349   0.499  0.00  0.00    +0.003 C 
ATOM     10  C   UNL     1       4.195   9.803  -0.855  0.00  0.00    +0.005 C 
ATOM     11  C   UNL     1       5.630  10.039  -0.484  0.00  0.00    +0.005 C 
ENDBRANCH  12   9
ENDBRANCH   6  12
ENDBRANCH  17  13
BRANCH  18  20
ATOM     20  C   UNL     1       8.622   7.517   5.695  0.00  0.00    +0.000 A 
ATOM     21  C   UNL     1       9.134   6.232   5.520  0.00  0.00    +0.013 A 
ATOM     22  C   UNL     1       8.659   8.117   6.954  0.00  0.00    +0.013 A 
ATOM     23  C   UNL     1       9.681   5.545   6.604  0.00  0.00    +0.046 A 
ATOM     24  C   UNL     1       9.206   7.431   8.039  0.00  0.00    +0.046 A 
ATOM     25  C   UNL     1       9.717   6.144   7.863  0.00  0.00    +0.130 A 
BRANCH  25   5
ATOM      5  O   UNL     1      10.254   5.476   8.920  0.00  0.00    -0.406 OA
BRANCH   5  26
ATOM      1  F   UNL     1       8.264   5.234   9.958  0.00  0.00    -0.133 F 
ATOM      2  F   UNL     1       9.102   3.500   8.926  0.00  0.00    -0.133 F 
ATOM      3  F   UNL     1      10.000   4.218  10.813  0.00  0.00    -0.133 F 
ATOM     26  C   UNL     1       9.415   4.592   9.656  0.00  0.00    +0.575 C 
ENDBRANCH   5  26
ENDBRANCH  25   5
ENDBRANCH  18  20
TORSDOF 6
ENDMDL
MODEL 6
REMARK VINA RESULT:      -6.3      2.068      3.391
REMARK  Name = 56775967
REMARK  6 active torsions:
REMARK  status: ('A' for Active; 'I' for Inactive)
REMARK    1  A    between atoms: O_5  and  C_25
REMARK    2  A    between atoms: O_5  and  C_26
REMARK    3  A    between atoms: N_6  and  C_12
REMARK    4  A    between atoms: C_9  and  C_12
REMARK    5  A    between atoms: C_13  and  C_17
REMARK    6  A    between atoms: C_18  and  C_20
REMARK                            x       y       z     vdW  Elec       q    Type
REMARK                         _______ _______ _______ _____ _____    ______ ____
ROOT
ATOM      7  N   UNL     1      14.384   8.843  20.540  0.00  0.00    -0.341 N 
ATOM      8  N   UNL     1      13.230   9.211  18.680  0.00  0.00    -0.238 NA
ATOM     17  C   UNL     1      13.303   9.455  19.969  0.00  0.00    +0.127 A 
ATOM     18  C   UNL     1      15.040   8.164  19.552  0.00  0.00    +0.066 A 
ATOM     19  C   UNL     1      14.309   8.407  18.413  0.00  0.00    +0.139 A 
ATOM     27  H   UNL     1      14.648   8.897  21.515  0.00  0.00    +0.167 HD
ENDROOT
BRANCH  17  13
ATOM      4  O   UNL     1      12.218  12.404  22.038  0.00  0.00    -0.377 OA
ATOM      6  N   UNL     1      11.750   9.581  21.946  0.00  0.00    -0.288 NA
ATOM     13  C   UNL     1      12.345  10.303  20.793  0.00  0.00    +0.149 C 
ATOM     14  C   UNL     1      10.922  10.496  22.749  0.00  0.00    +0.113 C 
ATOM     15  C   UNL     1      13.089  11.561  21.283  0.00  0.00    +0.186 C 
ATOM     16  C   UNL     1      11.727  11.713  23.184  0.00  0.00    +0.175 C 
BRANCH   6  12
ATOM     12  C   UNL     1      10.931   8.439  21.519  0.00  0.00    +0.088 C 
BRANCH  12   9
ATOM      9  C   UNL     1      11.547   7.143  21.935  0.00  0.00    +0.003 C 
ATOM     10  C   UNL     1      12.029   6.190  20.881  0.00  0.00    +0.005 C 
ATOM     11  C   UNL     1      10.804   5.865  21.684  0.00  0.00    +0.005 C 
ENDBRANCH  12   9
ENDBRANCH   6  12
ENDBRANCH  17  13
BRANCH  18  20
ATOM     20  C   UNL     1      16.236   7.396  19.778  0.00  0.00    +0.000 A 
ATOM     21  C   UNL     1      16.567   6.351  18.916  0.00  0.00    +0.013 A 
ATOM     22  C   UNL     1      17.065   7.698  20.858  0.00  0.00    +0.013 A 
ATOM     23  C   UNL     1      17.726   5.606  19.136  0.00  0.00    +0.046 A 
ATOM     24  C   UNL     1      18.224   6.954  21.078  0.00  0.00    +0.046 A 
ATOM     25  C   UNL     1      18.554   5.908  20.216  0.00  0.00    +0.130 A 
BRANCH  25   5
ATOM      5  O   UNL     1      19.687   5.184  20.429  0.00  0.00    -0.406 OA
BRANCH   5  26
ATOM      1  F   UNL     1      21.143   6.009  21.944  0.00  0.00    -0.133 F 
ATOM      2  F   UNL     1      21.947   5.215  20.073  0.00  0.00    -0.133 F 
ATOM      3  F   UNL     1      20.843   7.130  20.091  0.00  0.00    -0.133 F 
ATOM     26  C   UNL     1      20.911   5.888  20.618  0.00  0.00    +0.575 C 
ENDBRANCH   5  26
ENDBRANCH  25   5
ENDBRANCH  18  20
TORSDOF 6
ENDMDL
MODEL 7
REMARK VINA RESULT:      -6.2     29.853     32.681
REMARK  Name = 56775967
REMARK  6 active torsions:
REMARK  status: ('A' for Active; 'I' for Inactive)
REMARK    1  A    between atoms: O_5  and  C_25
REMARK    2  A    between atoms: O_5  and  C_26
REMARK    3  A    between atoms: N_6  and  C_12
REMARK    4  A    between atoms: C_9  and  C_12
REMARK    5  A    between atoms: C_13  and  C_17
REMARK    6  A    between atoms: C_18  and  C_20
REMARK                            x       y       z     vdW  Elec       q    Type
REMARK                         _______ _______ _______ _____ _____    ______ ____
ROOT
ATOM      7  N   UNL     1     -13.201   6.857  32.980  0.00  0.00    -0.341 N 
ATOM      8  N   UNL     1     -14.796   8.390  33.170  0.00  0.00    -0.238 NA
ATOM     17  C   UNL     1     -13.499   8.184  33.116  0.00  0.00    +0.127 A 
ATOM     18  C   UNL     1     -14.384   6.173  32.947  0.00  0.00    +0.066 A 
ATOM     19  C   UNL     1     -15.353   7.140  33.065  0.00  0.00    +0.139 A 
ATOM     27  H   UNL     1     -12.272   6.463  32.907  0.00  0.00    +0.167 HD
ENDROOT
BRANCH  17  13
ATOM      4  O   UNL     1     -10.354   9.963  32.069  0.00  0.00    -0.377 OA
ATOM      6  N   UNL     1     -11.711   9.292  34.498  0.00  0.00    -0.288 NA
ATOM     13  C   UNL     1     -12.404   9.239  33.186  0.00  0.00    +0.149 C 
ATOM     14  C   UNL     1     -10.602  10.260  34.451  0.00  0.00    +0.113 C 
ATOM     15  C   UNL     1     -11.386   8.976  32.060  0.00  0.00    +0.186 C 
ATOM     16  C   UNL     1      -9.649   9.936  33.308  0.00  0.00    +0.175 C 
BRANCH   6  12
ATOM     12  C   UNL     1     -12.622   9.657  35.590  0.00  0.00    +0.088 C 
BRANCH  12   9
ATOM      9  C   UNL     1     -12.506   8.705  36.736  0.00  0.00    +0.003 C 
ATOM     10  C   UNL     1     -11.260   7.882  36.881  0.00  0.00    +0.005 C 
ATOM     11  C   UNL     1     -12.548   7.229  36.470  0.00  0.00    +0.005 C 
ENDBRANCH  12   9
ENDBRANCH   6  12
ENDBRANCH  17  13
BRANCH  18  20
ATOM     20  C   UNL     1     -14.468   4.743  32.810  0.00  0.00    +0.000 A 
ATOM     21  C   UNL     1     -15.601   4.065  33.259  0.00  0.00    +0.013 A 
ATOM     22  C   UNL     1     -13.417   4.035  32.227  0.00  0.00    +0.013 A 
ATOM     23  C   UNL     1     -15.682   2.678  33.127  0.00  0.00    +0.046 A 
ATOM     24  C   UNL     1     -13.498   2.649  32.094  0.00  0.00    +0.046 A 
ATOM     25  C   UNL     1     -14.631   1.970  32.544  0.00  0.00    +0.130 A 
BRANCH  25   5
ATOM      5  O   UNL     1     -14.712   0.619  32.411  0.00  0.00    -0.406 OA
BRANCH   5  26
ATOM      1  F   UNL     1     -15.654   0.976  30.391  0.00  0.00    -0.133 F 
ATOM      2  F   UNL     1     -13.776  -0.139  30.467  0.00  0.00    -0.133 F 
ATOM      3  F   UNL     1     -15.652  -1.064  31.178  0.00  0.00    -0.133 F 
ATOM     26  C   UNL     1     -14.940   0.082  31.112  0.00  0.00    +0.575 C 
ENDBRANCH   5  26
ENDBRANCH  25   5
ENDBRANCH  18  20
TORSDOF 6
ENDMDL
MODEL 8
REMARK VINA RESULT:      -6.2      1.940      2.846
REMARK  Name = 56775967
REMARK  6 active torsions:
REMARK  status: ('A' for Active; 'I' for Inactive)
REMARK    1  A    between atoms: O_5  and  C_25
REMARK    2  A    between atoms: O_5  and  C_26
REMARK    3  A    between atoms: N_6  and  C_12
REMARK    4  A    between atoms: C_9  and  C_12
REMARK    5  A    between atoms: C_13  and  C_17
REMARK    6  A    between atoms: C_18  and  C_20
REMARK                            x       y       z     vdW  Elec       q    Type
REMARK                         _______ _______ _______ _____ _____    ______ ____
ROOT
ATOM      7  N   UNL     1      16.746   7.176  20.973  0.00  0.00    -0.341 N 
ATOM      8  N   UNL     1      16.610   9.392  20.968  0.00  0.00    -0.238 NA
ATOM     17  C   UNL     1      15.937   8.270  20.846  0.00  0.00    +0.127 A 
ATOM     18  C   UNL     1      18.018   7.630  21.187  0.00  0.00    +0.066 A 
ATOM     19  C   UNL     1      17.908   9.000  21.181  0.00  0.00    +0.139 A 
ATOM     27  H   UNL     1      16.449   6.210  20.926  0.00  0.00    +0.167 HD
ENDROOT
BRANCH  17  13
ATOM      4  O   UNL     1      12.337   7.649  21.746  0.00  0.00    -0.377 OA
ATOM      6  N   UNL     1      14.106   7.121  19.557  0.00  0.00    -0.288 NA
ATOM     13  C   UNL     1      14.442   8.126  20.598  0.00  0.00    +0.149 C 
ATOM     14  C   UNL     1      12.645   6.967  19.451  0.00  0.00    +0.113 C 
ATOM     15  C   UNL     1      13.749   7.765  21.926  0.00  0.00    +0.186 C 
ATOM     16  C   UNL     1      12.038   6.621  20.805  0.00  0.00    +0.175 C 
BRANCH   6  12
ATOM     12  C   UNL     1      14.647   7.485  18.242  0.00  0.00    +0.088 C 
BRANCH  12   9
ATOM      9  C   UNL     1      13.634   8.211  17.419  0.00  0.00    +0.003 C 
ATOM     10  C   UNL     1      14.006   8.677  16.042  0.00  0.00    +0.005 C 
ATOM     11  C   UNL     1      13.821   9.675  17.148  0.00  0.00    +0.005 C 
ENDBRANCH  12   9
ENDBRANCH   6  12
ENDBRANCH  17  13
BRANCH  18  20
ATOM     20  C   UNL     1      19.149   6.760  21.370  0.00  0.00    +0.000 A 
ATOM     21  C   UNL     1      19.932   6.865  22.520  0.00  0.00    +0.013 A 
ATOM     22  C   UNL     1      19.462   5.809  20.398  0.00  0.00    +0.013 A 
ATOM     23  C   UNL     1      21.029   6.021  22.696  0.00  0.00    +0.046 A 
ATOM     24  C   UNL     1      20.558   4.965  20.575  0.00  0.00    +0.046 A 
ATOM     25  C   UNL     1      21.342   5.072  21.725  0.00  0.00    +0.130 A 
BRANCH  25   5
ATOM      5  O   UNL     1      22.410   4.246  21.898  0.00  0.00    -0.406 OA
BRANCH   5  26
ATOM      1  F   UNL     1      23.592   5.875  20.877  0.00  0.00    -0.133 F 
ATOM      2  F   UNL     1      24.685   4.402  22.065  0.00  0.00    -0.133 F 
ATOM      3  F   UNL     1      23.794   3.833  20.125  0.00  0.00    -0.133 F 
ATOM     26  C   UNL     1      23.629   4.574  21.242  0.00  0.00    +0.575 C 
ENDBRANCH   5  26
ENDBRANCH  25   5
ENDBRANCH  18  20
TORSDOF 6
ENDMDL
MODEL 9
REMARK VINA RESULT:      -6.1     16.643     18.387
REMARK  Name = 56775967
REMARK  6 active torsions:
REMARK  status: ('A' for Active; 'I' for Inactive)
REMARK    1  A    between atoms: O_5  and  C_25
REMARK    2  A    between atoms: O_5  and  C_26
REMARK    3  A    between atoms: N_6  and  C_12
REMARK    4  A    between atoms: C_9  and  C_12
REMARK    5  A    between atoms: C_13  and  C_17
REMARK    6  A    between atoms: C_18  and  C_20
REMARK                            x       y       z     vdW  Elec       q    Type
REMARK                         _______ _______ _______ _____ _____    ______ ____
ROOT
ATOM      7  N   UNL     1       7.090   9.086   4.678  0.00  0.00    -0.341 N 
ATOM      8  N   UNL     1       7.544   8.966   2.508  0.00  0.00    -0.238 NA
ATOM     17  C   UNL     1       6.801   9.546   3.423  0.00  0.00    +0.127 A 
ATOM     18  C   UNL     1       8.081   8.152   4.553  0.00  0.00    +0.066 A 
ATOM     19  C   UNL     1       8.344   8.096   3.206  0.00  0.00    +0.139 A 
ATOM     27  H   UNL     1       6.655   9.394   5.537  0.00  0.00    +0.167 HD
ENDROOT
BRANCH  17  13
ATOM      4  O   UNL     1       3.569  10.957   2.114  0.00  0.00    -0.377 OA
ATOM      6  N   UNL     1       6.251  11.848   2.568  0.00  0.00    -0.288 NA
ATOM     13  C   UNL     1       5.733  10.606   3.195  0.00  0.00    +0.149 C 
ATOM     14  C   UNL     1       5.143  12.777   2.286  0.00  0.00    +0.113 C 
ATOM     15  C   UNL     1       4.610  10.004   2.328  0.00  0.00    +0.186 C 
ATOM     16  C   UNL     1       4.075  12.103   1.435  0.00  0.00    +0.175 C 
BRANCH   6  12
ATOM     12  C   UNL     1       7.242  12.523   3.415  0.00  0.00    +0.088 C 
BRANCH  12   9
ATOM      9  C   UNL     1       6.641  12.962   4.710  0.00  0.00    +0.003 C 
ATOM     10  C   UNL     1       7.101  14.247   5.333  0.00  0.00    +0.005 C 
ATOM     11  C   UNL     1       7.478  12.934   5.954  0.00  0.00    +0.005 C 
ENDBRANCH  12   9
ENDBRANCH   6  12
ENDBRANCH  17  13
BRANCH  18  20
ATOM     20  C   UNL     1       8.649   7.446   5.671  0.00  0.00    +0.000 A 
ATOM     21  C   UNL     1       9.186   6.172   5.492  0.00  0.00    +0.013 A 
ATOM     22  C   UNL     1       8.665   8.038   6.934  0.00  0.00    +0.013 A 
ATOM     23  C   UNL     1       9.736   5.487   6.576  0.00  0.00    +0.046 A 
ATOM     24  C   UNL     1       9.216   7.354   8.019  0.00  0.00    +0.046 A 
ATOM     25  C   UNL     1       9.751   6.078   7.839  0.00  0.00    +0.130 A 
BRANCH  25   5
ATOM      5  O   UNL     1      10.292   5.413   8.896  0.00  0.00    -0.406 OA
BRANCH   5  26
ATOM      1  F   UNL     1       9.115   3.488   8.959  0.00  0.00    -0.133 F 
ATOM      2  F   UNL     1      10.060   4.176  10.805  0.00  0.00    -0.133 F 
ATOM      3  F   UNL     1       8.295   5.229   9.995  0.00  0.00    -0.133 F 
ATOM     26  C   UNL     1       9.439   4.586   9.679  0.00  0.00    +0.575 C 
ENDBRANCH   5  26
ENDBRANCH  25   5
ENDBRANCH  18  20
TORSDOF 6
ENDMDL
MODEL 10
REMARK VINA RESULT:      -6.1     18.721     20.797
REMARK  Name = 56775967
REMARK  6 active torsions:
REMARK  status: ('A' for Active; 'I' for Inactive)
REMARK    1  A    between atoms: O_5  and  C_25
REMARK    2  A    between atoms: O_5  and  C_26
REMARK    3  A    between atoms: N_6  and  C_12
REMARK    4  A    between atoms: C_9  and  C_12
REMARK    5  A    between atoms: C_13  and  C_17
REMARK    6  A    between atoms: C_18  and  C_20
REMARK                            x       y       z     vdW  Elec       q    Type
REMARK                         _______ _______ _______ _____ _____    ______ ____
ROOT
ATOM      7  N   UNL     1      10.299   5.590   0.957  0.00  0.00    -0.341 N 
ATOM      8  N   UNL     1      10.424   7.545  -0.088  0.00  0.00    -0.238 NA
ATOM     17  C   UNL     1      10.511   6.241  -0.226  0.00  0.00    +0.127 A 
ATOM     18  C   UNL     1      10.063   6.541   1.911  0.00  0.00    +0.066 A 
ATOM     19  C   UNL     1      10.145   7.738   1.241  0.00  0.00    +0.139 A 
ATOM     27  H   UNL     1      10.305   4.588   1.092  0.00  0.00    +0.167 HD
ENDROOT
BRANCH  17  13
ATOM      4  O   UNL     1       9.700   4.458  -3.439  0.00  0.00    -0.377 OA
ATOM      6  N   UNL     1      11.585   4.232  -1.296  0.00  0.00    -0.288 NA
ATOM     13  C   UNL     1      10.804   5.476  -1.509  0.00  0.00    +0.149 C 
ATOM     14  C   UNL     1      11.736   3.501  -2.566  0.00  0.00    +0.113 C 
ATOM     15  C   UNL     1       9.471   5.150  -2.211  0.00  0.00    +0.186 C 
ATOM     16  C   UNL     1      10.377   3.227  -3.197  0.00  0.00    +0.175 C 
BRANCH   6  12
ATOM     12  C   UNL     1      12.915   4.504  -0.737  0.00  0.00    +0.088 C 
BRANCH  12   9
ATOM      9  C   UNL     1      13.405   3.356   0.084  0.00  0.00    +0.003 C 
ATOM     10  C   UNL     1      12.915   3.202   1.494  0.00  0.00    +0.005 C 
ATOM     11  C   UNL     1      14.333   3.619   1.233  0.00  0.00    +0.005 C 
ENDBRANCH  12   9
ENDBRANCH   6  12
ENDBRANCH  17  13
BRANCH  18  20
ATOM     20  C   UNL     1       9.795   6.230   3.290  0.00  0.00    +0.000 A 
ATOM     21  C   UNL     1       8.892   7.004   4.017  0.00  0.00    +0.013 A 
ATOM     22  C   UNL     1      10.439   5.153   3.899  0.00  0.00    +0.013 A 
ATOM     23  C   UNL     1       8.633   6.703   5.354  0.00  0.00    +0.046 A 
ATOM     24  C   UNL     1      10.180   4.850   5.237  0.00  0.00    +0.046 A 
ATOM     25  C   UNL     1       9.276   5.626   5.964  0.00  0.00    +0.130 A 
BRANCH  25   5
ATOM      5  O   UNL     1       9.021   5.329   7.267  0.00  0.00    -0.406 OA
BRANCH   5  26
ATOM      1  F   UNL     1      10.675   6.754   7.843  0.00  0.00    -0.133 F 
ATOM      2  F   UNL     1       8.641   7.224   8.491  0.00  0.00    -0.133 F 
ATOM      3  F   UNL     1       9.753   5.557   9.423  0.00  0.00    -0.133 F 
ATOM     26  C   UNL     1       9.510   6.215   8.269  0.00  0.00    +0.575 C 
ENDBRANCH   5  26
ENDBRANCH  25   5
ENDBRANCH  18  20
TORSDOF 6
ENDMDL
