MODEL 1
REMARK VINA RESULT:      -7.1      0.000      0.000
REMARK  Name = 45361387
REMARK  12 active torsions:
REMARK  status: ('A' for Active; 'I' for Inactive)
REMARK    1  A    between atoms: O_1  and  C_11
REMARK    2  A    between atoms: O_4  and  C_31
REMARK    3  A    between atoms: O_4  and  C_36
REMARK    4  A    between atoms: N_5  and  C_15
REMARK    5  A    between atoms: N_6  and  C_25
REMARK    6  A    between atoms: C_8  and  C_18
REMARK    7  A    between atoms: C_10  and  C_20
REMARK    8  A    between atoms: C_14  and  C_19
REMARK    9  A    between atoms: C_19  and  C_21
REMARK   10  A    between atoms: C_19  and  C_22
REMARK   11  A    between atoms: C_23  and  C_24
REMARK   12  A    between atoms: C_25  and  C_28
REMARK                            x       y       z     vdW  Elec       q    Type
REMARK                         _______ _______ _______ _____ _____    ______ ____
ROOT
ATOM      8  C   UNL     1     -14.963   7.548  20.612  0.00  0.00    -0.027 C 
ATOM      9  C   UNL     1     -13.748   6.609  20.909  0.00  0.00    +0.028 C 
ATOM     10  C   UNL     1     -13.944   5.854  22.273  0.00  0.00    +0.012 C 
ATOM     11  C   UNL     1     -12.398   7.366  20.753  0.00  0.00    +0.122 C 
ATOM     12  C   UNL     1     -14.793   8.188  19.213  0.00  0.00    +0.007 C 
ATOM     13  C   UNL     1     -16.259   6.705  20.589  0.00  0.00    +0.009 C 
ATOM     14  C   UNL     1     -12.277   8.090  19.391  0.00  0.00    +0.029 C 
ATOM     15  C   UNL     1     -15.286   5.070  22.266  0.00  0.00    +0.076 C 
ATOM     16  C   UNL     1     -13.490   8.964  19.070  0.00  0.00    +0.007 C 
ATOM     17  C   UNL     1     -16.491   5.929  21.878  0.00  0.00    +0.023 C 
ATOM     18  C   UNL     1     -15.110   8.680  21.662  0.00  0.00    +0.011 C 
ATOM     20  C   UNL     1     -12.797   4.889  22.613  0.00  0.00    +0.010 C 
ENDROOT
BRANCH  15   5
ATOM      3  O   UNL     1     -16.538   2.527  22.722  0.00  0.00    -0.270 OA
ATOM      5  N   UNL     1     -15.556   4.457  23.549  0.00  0.00    -0.308 N 
ATOM     23  C   UNL     1     -16.167   3.220  23.665  0.00  0.00    +0.244 C 
ATOM     37  H   UNL     1     -15.382   5.024  24.373  0.00  0.00    +0.149 HD
BRANCH  23  24
ATOM     24  C   UNL     1     -16.397   2.741  25.053  0.00  0.00    +0.037 A 
ATOM     26  C   UNL     1     -16.124   3.580  26.134  0.00  0.00    +0.016 A 
ATOM     27  C   UNL     1     -16.884   1.454  25.275  0.00  0.00    +0.016 A 
ATOM     29  C   UNL     1     -16.336   3.130  27.437  0.00  0.00    +0.046 A 
ATOM     30  C   UNL     1     -17.098   1.003  26.578  0.00  0.00    +0.046 A 
ATOM     31  C   UNL     1     -16.823   1.842  27.659  0.00  0.00    +0.120 A 
BRANCH  31   4
ATOM      4  O   UNL     1     -17.033   1.402  28.931  0.00  0.00    -0.495 OA
ATOM     36  C   UNL     1     -16.043   1.733  29.902  0.00  0.00    +0.277 C 
ENDBRANCH  31   4
ENDBRANCH  23  24
ENDBRANCH  15   5
BRANCH  11   1
ATOM      1  O   UNL     1     -11.318   6.435  20.817  0.00  0.00    -0.391 OA
ATOM     38  H   UNL     1     -11.259   6.100  21.728  0.00  0.00    +0.210 HD
ENDBRANCH  11   1
BRANCH  14  19
ATOM     19  C   UNL     1     -11.000   8.936  19.309  0.00  0.00    +0.077 C 
ATOM     21  C   UNL     1     -11.203  10.264  20.030  0.00  0.00    +0.017 C 
BRANCH  19  22
ATOM      2  O   UNL     1     -10.133  10.205  17.436  0.00  0.00    -0.276 OA
ATOM      6  N   UNL     1     -10.862   8.034  17.064  0.00  0.00    -0.309 N 
ATOM     22  C   UNL     1     -10.612   9.150  17.849  0.00  0.00    +0.217 C 
ATOM     39  H   UNL     1     -11.209   7.182  17.490  0.00  0.00    +0.149 HD
BRANCH   6  25
ATOM     25  C   UNL     1     -10.579   7.996  15.648  0.00  0.00    +0.159 C 
BRANCH  25  28
ATOM      7  N   UNL     1     -11.515   8.791  13.551  0.00  0.00    -0.258 NA
ATOM     28  C   UNL     1     -11.764   8.413  14.826  0.00  0.00    +0.058 A 
ATOM     32  C   UNL     1     -13.026   8.390  15.396  0.00  0.00    +0.025 A 
ATOM     33  C   UNL     1     -14.103   8.782  14.607  0.00  0.00    +0.003 A 
ATOM     34  C   UNL     1     -12.586   9.165  12.816  0.00  0.00    +0.111 A 
ATOM     35  C   UNL     1     -13.888   9.177  13.291  0.00  0.00    +0.020 A 
ENDBRANCH  25  28
ENDBRANCH   6  25
ENDBRANCH  19  22
ENDBRANCH  14  19
TORSDOF 8
ENDMDL
MODEL 2
REMARK VINA RESULT:      -7.0     17.919     19.313
REMARK  Name = 45361387
REMARK  12 active torsions:
REMARK  status: ('A' for Active; 'I' for Inactive)
REMARK    1  A    between atoms: O_1  and  C_11
REMARK    2  A    between atoms: O_4  and  C_31
REMARK    3  A    between atoms: O_4  and  C_36
REMARK    4  A    between atoms: N_5  and  C_15
REMARK    5  A    between atoms: N_6  and  C_25
REMARK    6  A    between atoms: C_8  and  C_18
REMARK    7  A    between atoms: C_10  and  C_20
REMARK    8  A    between atoms: C_14  and  C_19
REMARK    9  A    between atoms: C_19  and  C_21
REMARK   10  A    between atoms: C_19  and  C_22
REMARK   11  A    between atoms: C_23  and  C_24
REMARK   12  A    between atoms: C_25  and  C_28
REMARK                            x       y       z     vdW  Elec       q    Type
REMARK                         _______ _______ _______ _____ _____    ______ ____
ROOT
ATOM      8  C   UNL     1      -4.650 -11.110  16.878  0.00  0.00    -0.027 C 
ATOM      9  C   UNL     1      -5.463 -10.461  15.710  0.00  0.00    +0.028 C 
ATOM     10  C   UNL     1      -7.007 -10.555  15.983  0.00  0.00    +0.012 C 
ATOM     11  C   UNL     1      -4.995 -11.001  14.328  0.00  0.00    +0.122 C 
ATOM     12  C   UNL     1      -3.136 -10.900  16.632  0.00  0.00    +0.007 C 
ATOM     13  C   UNL     1      -5.014 -10.402  18.202  0.00  0.00    +0.009 C 
ATOM     14  C   UNL     1      -3.466 -10.883  14.130  0.00  0.00    +0.029 C 
ATOM     15  C   UNL     1      -7.351  -9.905  17.353  0.00  0.00    +0.076 C 
ATOM     16  C   UNL     1      -2.667 -11.464  15.297  0.00  0.00    +0.007 C 
ATOM     17  C   UNL     1      -6.505 -10.437  18.509  0.00  0.00    +0.023 C 
ATOM     18  C   UNL     1      -4.924 -12.630  17.020  0.00  0.00    +0.011 C 
ATOM     20  C   UNL     1      -7.867  -9.908  14.886  0.00  0.00    +0.010 C 
ENDROOT
BRANCH  15   5
ATOM      3  O   UNL     1      -9.369  -7.862  17.395  0.00  0.00    -0.270 OA
ATOM      5  N   UNL     1      -8.748 -10.076  17.692  0.00  0.00    -0.308 N 
ATOM     23  C   UNL     1      -9.647  -9.024  17.682  0.00  0.00    +0.244 C 
ATOM     37  H   UNL     1      -9.024 -10.984  18.050  0.00  0.00    +0.149 HD
BRANCH  23  24
ATOM     24  C   UNL     1     -11.039  -9.360  18.080  0.00  0.00    +0.037 A 
ATOM     26  C   UNL     1     -12.102  -9.040  17.235  0.00  0.00    +0.016 A 
ATOM     27  C   UNL     1     -11.283  -9.993  19.298  0.00  0.00    +0.016 A 
ATOM     29  C   UNL     1     -13.409  -9.352  17.609  0.00  0.00    +0.046 A 
ATOM     30  C   UNL     1     -12.590 -10.307  19.672  0.00  0.00    +0.046 A 
ATOM     31  C   UNL     1     -13.653  -9.986  18.827  0.00  0.00    +0.120 A 
BRANCH  31   4
ATOM      4  O   UNL     1     -14.928 -10.293  19.193  0.00  0.00    -0.495 OA
ATOM     36  C   UNL     1     -15.138 -10.680  20.550  0.00  0.00    +0.277 C 
ENDBRANCH  31   4
ENDBRANCH  23  24
ENDBRANCH  15   5
BRANCH  11   1
ATOM      1  O   UNL     1      -5.601 -10.235  13.286  0.00  0.00    -0.391 OA
ATOM     38  H   UNL     1      -5.558  -9.296  13.536  0.00  0.00    +0.210 HD
ENDBRANCH  11   1
BRANCH  14  19
ATOM     19  C   UNL     1      -3.009 -11.539  12.821  0.00  0.00    +0.077 C 
ATOM     21  C   UNL     1      -1.832 -12.471  13.083  0.00  0.00    +0.017 C 
BRANCH  19  22
ATOM      2  O   UNL     1      -1.534  -9.951  11.737  0.00  0.00    -0.276 OA
ATOM      6  N   UNL     1      -3.715 -10.143  10.970  0.00  0.00    -0.309 N 
ATOM     22  C   UNL     1      -2.650 -10.464  11.799  0.00  0.00    +0.217 C 
ATOM     39  H   UNL     1      -4.590 -10.650  11.049  0.00  0.00    +0.149 HD
BRANCH   6  25
ATOM     25  C   UNL     1      -3.619  -9.151   9.923  0.00  0.00    +0.159 C 
BRANCH  25  28
ATOM      7  N   UNL     1      -5.852  -8.247   9.610  0.00  0.00    -0.258 NA
ATOM     28  C   UNL     1      -4.885  -9.056   9.121  0.00  0.00    +0.058 A 
ATOM     32  C   UNL     1      -5.000  -9.782   7.948  0.00  0.00    +0.025 A 
ATOM     33  C   UNL     1      -6.185  -9.672   7.228  0.00  0.00    +0.003 A 
ATOM     34  C   UNL     1      -6.990  -8.165   8.883  0.00  0.00    +0.111 A 
ATOM     35  C   UNL     1      -7.204  -8.849   7.698  0.00  0.00    +0.020 A 
ENDBRANCH  25  28
ENDBRANCH   6  25
ENDBRANCH  19  22
ENDBRANCH  14  19
TORSDOF 8
ENDMDL
MODEL 3
REMARK VINA RESULT:      -7.0     27.978     31.728
REMARK  Name = 45361387
REMARK  12 active torsions:
REMARK  status: ('A' for Active; 'I' for Inactive)
REMARK    1  A    between atoms: O_1  and  C_11
REMARK    2  A    between atoms: O_4  and  C_31
REMARK    3  A    between atoms: O_4  and  C_36
REMARK    4  A    between atoms: N_5  and  C_15
REMARK    5  A    between atoms: N_6  and  C_25
REMARK    6  A    between atoms: C_8  and  C_18
REMARK    7  A    between atoms: C_10  and  C_20
REMARK    8  A    between atoms: C_14  and  C_19
REMARK    9  A    between atoms: C_19  and  C_21
REMARK   10  A    between atoms: C_19  and  C_22
REMARK   11  A    between atoms: C_23  and  C_24
REMARK   12  A    between atoms: C_25  and  C_28
REMARK                            x       y       z     vdW  Elec       q    Type
REMARK                         _______ _______ _______ _____ _____    ______ ____
ROOT
ATOM      8  C   UNL     1      15.851  10.058  21.135  0.00  0.00    -0.027 C 
ATOM      9  C   UNL     1      15.557   8.537  21.355  0.00  0.00    +0.028 C 
ATOM     10  C   UNL     1      16.792   7.662  20.935  0.00  0.00    +0.012 C 
ATOM     11  C   UNL     1      14.199   8.127  20.716  0.00  0.00    +0.122 C 
ATOM     12  C   UNL     1      14.662  10.896  21.664  0.00  0.00    +0.007 C 
ATOM     13  C   UNL     1      17.104  10.453  21.950  0.00  0.00    +0.009 C 
ATOM     14  C   UNL     1      13.031   9.034  21.169  0.00  0.00    +0.029 C 
ATOM     15  C   UNL     1      18.062   8.118  21.706  0.00  0.00    +0.076 C 
ATOM     16  C   UNL     1      13.337  10.524  21.012  0.00  0.00    +0.007 C 
ATOM     17  C   UNL     1      18.330   9.620  21.604  0.00  0.00    +0.023 C 
ATOM     18  C   UNL     1      16.082  10.409  19.643  0.00  0.00    +0.011 C 
ATOM     20  C   UNL     1      16.582   6.155  21.152  0.00  0.00    +0.010 C 
ENDROOT
BRANCH  15   5
ATOM      3  O   UNL     1      19.810   6.507  23.317  0.00  0.00    -0.270 OA
ATOM      5  N   UNL     1      19.244   7.411  21.259  0.00  0.00    -0.308 N 
ATOM     23  C   UNL     1      20.025   6.656  22.117  0.00  0.00    +0.244 C 
ATOM     37  H   UNL     1      19.547   7.583  20.306  0.00  0.00    +0.149 HD
BRANCH  23  24
ATOM     24  C   UNL     1      21.219   6.015  21.508  0.00  0.00    +0.037 A 
ATOM     26  C   UNL     1      21.288   4.625  21.408  0.00  0.00    +0.016 A 
ATOM     27  C   UNL     1      22.270   6.801  21.038  0.00  0.00    +0.016 A 
ATOM     29  C   UNL     1      22.410   4.022  20.838  0.00  0.00    +0.046 A 
ATOM     30  C   UNL     1      23.392   6.199  20.468  0.00  0.00    +0.046 A 
ATOM     31  C   UNL     1      23.461   4.809  20.369  0.00  0.00    +0.120 A 
BRANCH  31   4
ATOM      4  O   UNL     1      24.556   4.221  19.811  0.00  0.00    -0.495 OA
ATOM     36  C   UNL     1      24.789   2.851  20.131  0.00  0.00    +0.277 C 
ENDBRANCH  31   4
ENDBRANCH  23  24
ENDBRANCH  15   5
BRANCH  11   1
ATOM      1  O   UNL     1      13.864   6.799  21.120  0.00  0.00    -0.391 OA
ATOM     38  H   UNL     1      12.895   6.733  21.172  0.00  0.00    +0.210 HD
ENDBRANCH  11   1
BRANCH  14  19
ATOM     19  C   UNL     1      11.730   8.698  20.430  0.00  0.00    +0.077 C 
ATOM     21  C   UNL     1      10.918   7.685  21.230  0.00  0.00    +0.017 C 
BRANCH  19  22
ATOM      2  O   UNL     1      12.046   6.979  18.752  0.00  0.00    -0.276 OA
ATOM      6  N   UNL     1      12.330   9.198  18.136  0.00  0.00    -0.309 N 
ATOM     22  C   UNL     1      12.046   8.177  19.032  0.00  0.00    +0.217 C 
ATOM     39  H   UNL     1      12.256  10.166  18.431  0.00  0.00    +0.149 HD
BRANCH   6  25
ATOM     25  C   UNL     1      12.661   8.953  16.751  0.00  0.00    +0.159 C 
BRANCH  25  28
ATOM      7  N   UNL     1      14.431   9.486  15.175  0.00  0.00    -0.258 NA
ATOM     28  C   UNL     1      13.721   9.891  16.252  0.00  0.00    +0.058 A 
ATOM     32  C   UNL     1      13.918  11.099  16.901  0.00  0.00    +0.025 A 
ATOM     33  C   UNL     1      14.908  11.946  16.413  0.00  0.00    +0.003 A 
ATOM     34  C   UNL     1      15.384  10.335  14.729  0.00  0.00    +0.111 A 
ATOM     35  C   UNL     1      15.659  11.564  15.307  0.00  0.00    +0.020 A 
ENDBRANCH  25  28
ENDBRANCH   6  25
ENDBRANCH  19  22
ENDBRANCH  14  19
TORSDOF 8
ENDMDL
MODEL 4
REMARK VINA RESULT:      -6.8     26.754     32.431
REMARK  Name = 45361387
REMARK  12 active torsions:
REMARK  status: ('A' for Active; 'I' for Inactive)
REMARK    1  A    between atoms: O_1  and  C_11
REMARK    2  A    between atoms: O_4  and  C_31
REMARK    3  A    between atoms: O_4  and  C_36
REMARK    4  A    between atoms: N_5  and  C_15
REMARK    5  A    between atoms: N_6  and  C_25
REMARK    6  A    between atoms: C_8  and  C_18
REMARK    7  A    between atoms: C_10  and  C_20
REMARK    8  A    between atoms: C_14  and  C_19
REMARK    9  A    between atoms: C_19  and  C_21
REMARK   10  A    between atoms: C_19  and  C_22
REMARK   11  A    between atoms: C_23  and  C_24
REMARK   12  A    between atoms: C_25  and  C_28
REMARK                            x       y       z     vdW  Elec       q    Type
REMARK                         _______ _______ _______ _____ _____    ______ ____
ROOT
ATOM      8  C   UNL     1      13.723   5.045  -0.308  0.00  0.00    -0.027 C 
ATOM      9  C   UNL     1      12.160   5.035  -0.234  0.00  0.00    +0.028 C 
ATOM     10  C   UNL     1      11.671   4.820   1.243  0.00  0.00    +0.012 C 
ATOM     11  C   UNL     1      11.551   4.067  -1.288  0.00  0.00    +0.122 C 
ATOM     12  C   UNL     1      14.169   5.372  -1.753  0.00  0.00    +0.007 C 
ATOM     13  C   UNL     1      14.265   6.159   0.616  0.00  0.00    +0.009 C 
ATOM     14  C   UNL     1      12.081   4.332  -2.716  0.00  0.00    +0.029 C 
ATOM     15  C   UNL     1      12.283   5.902   2.176  0.00  0.00    +0.076 C 
ATOM     16  C   UNL     1      13.607   4.401  -2.783  0.00  0.00    +0.007 C 
ATOM     17  C   UNL     1      13.803   6.018   2.059  0.00  0.00    +0.023 C 
ATOM     18  C   UNL     1      14.345   3.688   0.110  0.00  0.00    +0.011 C 
ATOM     20  C   UNL     1      10.141   4.829   1.393  0.00  0.00    +0.010 C 
ENDROOT
BRANCH  15   5
ATOM      3  O   UNL     1      10.710   7.601   3.875  0.00  0.00    -0.270 OA
ATOM      5  N   UNL     1      11.947   5.666   3.565  0.00  0.00    -0.308 N 
ATOM     23  C   UNL     1      11.179   6.549   4.302  0.00  0.00    +0.244 C 
ATOM     37  H   UNL     1      12.396   4.875   4.015  0.00  0.00    +0.149 HD
BRANCH  23  24
ATOM     24  C   UNL     1      10.946   6.174   5.721  0.00  0.00    +0.037 A 
ATOM     26  C   UNL     1      11.827   6.610   6.710  0.00  0.00    +0.016 A 
ATOM     27  C   UNL     1       9.848   5.385   6.062  0.00  0.00    +0.016 A 
ATOM     29  C   UNL     1      11.610   6.255   8.042  0.00  0.00    +0.046 A 
ATOM     30  C   UNL     1       9.630   5.031   7.395  0.00  0.00    +0.046 A 
ATOM     31  C   UNL     1      10.513   5.466   8.384  0.00  0.00    +0.120 A 
BRANCH  31   4
ATOM      4  O   UNL     1      10.299   5.122   9.684  0.00  0.00    -0.495 OA
ATOM     36  C   UNL     1       9.023   4.572  10.007  0.00  0.00    +0.277 C 
ENDBRANCH  31   4
ENDBRANCH  23  24
ENDBRANCH  15   5
BRANCH  11   1
ATOM      1  O   UNL     1      10.135   4.245  -1.338  0.00  0.00    -0.391 OA
ATOM     38  H   UNL     1       9.943   5.186  -1.187  0.00  0.00    +0.210 HD
ENDBRANCH  11   1
BRANCH  14  19
ATOM     19  C   UNL     1      11.571   3.287  -3.716  0.00  0.00    +0.077 C 
ATOM     21  C   UNL     1      12.744   2.530  -4.328  0.00  0.00    +0.017 C 
BRANCH  19  22
ATOM      2  O   UNL     1      11.172   4.270  -5.893  0.00  0.00    -0.276 OA
ATOM      6  N   UNL     1       9.420   4.186  -4.375  0.00  0.00    -0.309 N 
ATOM     22  C   UNL     1      10.725   3.963  -4.790  0.00  0.00    +0.217 C 
ATOM     39  H   UNL     1       9.113   3.854  -3.468  0.00  0.00    +0.149 HD
BRANCH   6  25
ATOM     25  C   UNL     1       8.429   4.815  -5.218  0.00  0.00    +0.159 C 
BRANCH  25  28
ATOM      7  N   UNL     1       6.145   5.541  -4.826  0.00  0.00    -0.258 NA
ATOM     28  C   UNL     1       7.433   5.606  -4.421  0.00  0.00    +0.058 A 
ATOM     32  C   UNL     1       7.869   6.346  -3.334  0.00  0.00    +0.025 A 
ATOM     33  C   UNL     1       6.921   7.067  -2.616  0.00  0.00    +0.003 A 
ATOM     34  C   UNL     1       5.251   6.255  -4.103  0.00  0.00    +0.111 A 
ATOM     35  C   UNL     1       5.585   7.026  -3.001  0.00  0.00    +0.020 A 
ENDBRANCH  25  28
ENDBRANCH   6  25
ENDBRANCH  19  22
ENDBRANCH  14  19
TORSDOF 8
ENDMDL
MODEL 5
REMARK VINA RESULT:      -6.8     18.430     19.879
REMARK  Name = 45361387
REMARK  12 active torsions:
REMARK  status: ('A' for Active; 'I' for Inactive)
REMARK    1  A    between atoms: O_1  and  C_11
REMARK    2  A    between atoms: O_4  and  C_31
REMARK    3  A    between atoms: O_4  and  C_36
REMARK    4  A    between atoms: N_5  and  C_15
REMARK    5  A    between atoms: N_6  and  C_25
REMARK    6  A    between atoms: C_8  and  C_18
REMARK    7  A    between atoms: C_10  and  C_20
REMARK    8  A    between atoms: C_14  and  C_19
REMARK    9  A    between atoms: C_19  and  C_21
REMARK   10  A    between atoms: C_19  and  C_22
REMARK   11  A    between atoms: C_23  and  C_24
REMARK   12  A    between atoms: C_25  and  C_28
REMARK                            x       y       z     vdW  Elec       q    Type
REMARK                         _______ _______ _______ _____ _____    ______ ____
ROOT
ATOM      8  C   UNL     1      -4.386 -10.539  11.074  0.00  0.00    -0.027 C 
ATOM      9  C   UNL     1      -5.826  -9.959  11.271  0.00  0.00    +0.028 C 
ATOM     10  C   UNL     1      -6.495 -10.549  12.564  0.00  0.00    +0.012 C 
ATOM     11  C   UNL     1      -6.666 -10.081   9.968  0.00  0.00    +0.122 C 
ATOM     12  C   UNL     1      -3.714  -9.853   9.860  0.00  0.00    +0.007 C 
ATOM     13  C   UNL     1      -3.537 -10.218  12.325  0.00  0.00    +0.009 C 
ATOM     14  C   UNL     1      -5.944  -9.485   8.736  0.00  0.00    +0.029 C 
ATOM     15  C   UNL     1      -5.596 -10.286  13.804  0.00  0.00    +0.076 C 
ATOM     16  C   UNL     1      -4.515 -10.005   8.574  0.00  0.00    +0.007 C 
ATOM     17  C   UNL     1      -4.149 -10.744  13.615  0.00  0.00    +0.023 C 
ATOM     18  C   UNL     1      -4.390 -12.072  10.840  0.00  0.00    +0.011 C 
ATOM     20  C   UNL     1      -7.904  -9.998  12.834  0.00  0.00    +0.010 C 
ENDROOT
BRANCH  15   5
ATOM      3  O   UNL     1      -5.470  -9.268  16.486  0.00  0.00    -0.270 OA
ATOM      5  N   UNL     1      -6.125 -10.918  14.994  0.00  0.00    -0.308 N 
ATOM     23  C   UNL     1      -6.014 -10.344  16.249  0.00  0.00    +0.244 C 
ATOM     37  H   UNL     1      -6.484 -11.861  14.890  0.00  0.00    +0.149 HD
BRANCH  23  24
ATOM     24  C   UNL     1      -6.586 -11.132  17.372  0.00  0.00    +0.037 A 
ATOM     26  C   UNL     1      -6.219 -10.840  18.685  0.00  0.00    +0.016 A 
ATOM     27  C   UNL     1      -7.488 -12.163  17.112  0.00  0.00    +0.016 A 
ATOM     29  C   UNL     1      -6.753 -11.582  19.740  0.00  0.00    +0.046 A 
ATOM     30  C   UNL     1      -8.023 -12.904  18.166  0.00  0.00    +0.046 A 
ATOM     31  C   UNL     1      -7.655 -12.613  19.480  0.00  0.00    +0.120 A 
BRANCH  31   4
ATOM      4  O   UNL     1      -8.179 -13.336  20.508  0.00  0.00    -0.495 OA
ATOM     36  C   UNL     1      -9.546 -13.727  20.395  0.00  0.00    +0.277 C 
ENDBRANCH  31   4
ENDBRANCH  23  24
ENDBRANCH  15   5
BRANCH  11   1
ATOM      1  O   UNL     1      -7.886  -9.353  10.116  0.00  0.00    -0.391 OA
ATOM     38  H   UNL     1      -7.701  -8.556  10.642  0.00  0.00    +0.210 HD
ENDBRANCH  11   1
BRANCH  14  19
ATOM     19  C   UNL     1      -6.729  -9.732   7.442  0.00  0.00    +0.077 C 
ATOM     21  C   UNL     1      -5.836 -10.404   6.406  0.00  0.00    +0.017 C 
BRANCH  19  22
ATOM      2  O   UNL     1      -7.407  -8.171   5.718  0.00  0.00    -0.276 OA
ATOM      6  N   UNL     1      -7.656  -7.549   7.939  0.00  0.00    -0.309 N 
ATOM     22  C   UNL     1      -7.295  -8.416   6.918  0.00  0.00    +0.217 C 
ATOM     39  H   UNL     1      -7.583  -7.846   8.906  0.00  0.00    +0.149 HD
BRANCH   6  25
ATOM     25  C   UNL     1      -8.215  -6.240   7.691  0.00  0.00    +0.159 C 
BRANCH  25  28
ATOM      7  N   UNL     1     -10.083  -7.087   8.993  0.00  0.00    -0.258 NA
ATOM     28  C   UNL     1      -9.454  -5.995   8.503  0.00  0.00    +0.058 A 
ATOM     32  C   UNL     1      -9.883  -4.694   8.709  0.00  0.00    +0.025 A 
ATOM     33  C   UNL     1     -11.034  -4.501   9.466  0.00  0.00    +0.003 A 
ATOM     34  C   UNL     1     -11.199  -6.860   9.724  0.00  0.00    +0.111 A 
ATOM     35  C   UNL     1     -11.710  -5.600   9.988  0.00  0.00    +0.020 A 
ENDBRANCH  25  28
ENDBRANCH   6  25
ENDBRANCH  19  22
ENDBRANCH  14  19
TORSDOF 8
ENDMDL
MODEL 6
REMARK VINA RESULT:      -6.7     25.374     30.360
REMARK  Name = 45361387
REMARK  12 active torsions:
REMARK  status: ('A' for Active; 'I' for Inactive)
REMARK    1  A    between atoms: O_1  and  C_11
REMARK    2  A    between atoms: O_4  and  C_31
REMARK    3  A    between atoms: O_4  and  C_36
REMARK    4  A    between atoms: N_5  and  C_15
REMARK    5  A    between atoms: N_6  and  C_25
REMARK    6  A    between atoms: C_8  and  C_18
REMARK    7  A    between atoms: C_10  and  C_20
REMARK    8  A    between atoms: C_14  and  C_19
REMARK    9  A    between atoms: C_19  and  C_21
REMARK   10  A    between atoms: C_19  and  C_22
REMARK   11  A    between atoms: C_23  and  C_24
REMARK   12  A    between atoms: C_25  and  C_28
REMARK                            x       y       z     vdW  Elec       q    Type
REMARK                         _______ _______ _______ _____ _____    ______ ____
ROOT
ATOM      8  C   UNL     1       9.494   6.056   6.132  0.00  0.00    -0.027 C 
ATOM      9  C   UNL     1      10.474   7.195   5.698  0.00  0.00    +0.028 C 
ATOM     10  C   UNL     1       9.960   8.595   6.191  0.00  0.00    +0.012 C 
ATOM     11  C   UNL     1      10.810   7.102   4.181  0.00  0.00    +0.122 C 
ATOM     12  C   UNL     1      10.086   4.683   5.731  0.00  0.00    +0.007 C 
ATOM     13  C   UNL     1       9.348   6.074   7.671  0.00  0.00    +0.009 C 
ATOM     14  C   UNL     1      11.304   5.696   3.766  0.00  0.00    +0.029 C 
ATOM     15  C   UNL     1       9.746   8.578   7.730  0.00  0.00    +0.076 C 
ATOM     16  C   UNL     1      10.379   4.576   4.240  0.00  0.00    +0.007 C 
ATOM     17  C   UNL     1       8.876   7.416   8.211  0.00  0.00    +0.023 C 
ATOM     18  C   UNL     1       8.092   6.201   5.486  0.00  0.00    +0.011 C 
ATOM     20  C   UNL     1      10.894   9.759   5.822  0.00  0.00    +0.010 C 
ENDROOT
BRANCH  15   5
ATOM      3  O   UNL     1      11.061  10.621   9.261  0.00  0.00    -0.270 OA
ATOM      5  N   UNL     1       9.162   9.815   8.204  0.00  0.00    -0.308 N 
ATOM     23  C   UNL     1       9.882  10.741   8.938  0.00  0.00    +0.244 C 
ATOM     37  H   UNL     1       8.162   9.927   8.074  0.00  0.00    +0.149 HD
BRANCH  23  24
ATOM     24  C   UNL     1       9.130  11.947   9.372  0.00  0.00    +0.037 A 
ATOM     26  C   UNL     1       8.641  12.032  10.676  0.00  0.00    +0.016 A 
ATOM     27  C   UNL     1       8.911  12.992   8.475  0.00  0.00    +0.016 A 
ATOM     29  C   UNL     1       7.932  13.163  11.083  0.00  0.00    +0.046 A 
ATOM     30  C   UNL     1       8.203  14.124   8.882  0.00  0.00    +0.046 A 
ATOM     31  C   UNL     1       7.713  14.208  10.186  0.00  0.00    +0.120 A 
BRANCH  31   4
ATOM      4  O   UNL     1       7.024  15.313  10.583  0.00  0.00    -0.495 OA
ATOM     36  C   UNL     1       5.789  15.578   9.920  0.00  0.00    +0.277 C 
ENDBRANCH  31   4
ENDBRANCH  23  24
ENDBRANCH  15   5
BRANCH  11   1
ATOM      1  O   UNL     1      11.865   8.013   3.870  0.00  0.00    -0.391 OA
ATOM     38  H   UNL     1      12.617   7.818   4.455  0.00  0.00    +0.210 HD
ENDBRANCH  11   1
BRANCH  14  19
ATOM     19  C   UNL     1      11.504   5.589   2.250  0.00  0.00    +0.077 C 
ATOM     21  C   UNL     1      10.632   4.474   1.683  0.00  0.00    +0.017 C 
BRANCH  19  22
ATOM      2  O   UNL     1      13.821   6.249   1.999  0.00  0.00    -0.276 OA
ATOM      6  N   UNL     1      13.244   4.043   1.572  0.00  0.00    -0.309 N 
ATOM     22  C   UNL     1      12.978   5.356   1.935  0.00  0.00    +0.217 C 
ATOM     39  H   UNL     1      12.502   3.352   1.595  0.00  0.00    +0.149 HD
BRANCH   6  25
ATOM     25  C   UNL     1      14.568   3.581   1.227  0.00  0.00    +0.159 C 
BRANCH  25  28
ATOM      7  N   UNL     1      13.993   4.008  -1.095  0.00  0.00    -0.258 NA
ATOM     28  C   UNL     1      14.968   4.004  -0.157  0.00  0.00    +0.058 A 
ATOM     32  C   UNL     1      16.283   4.362  -0.404  0.00  0.00    +0.025 A 
ATOM     33  C   UNL     1      16.620   4.750  -1.696  0.00  0.00    +0.003 A 
ATOM     34  C   UNL     1      14.358   4.391  -2.339  0.00  0.00    +0.111 A 
ATOM     35  C   UNL     1      15.645   4.768  -2.688  0.00  0.00    +0.020 A 
ENDBRANCH  25  28
ENDBRANCH   6  25
ENDBRANCH  19  22
ENDBRANCH  14  19
TORSDOF 8
ENDMDL
MODEL 7
REMARK VINA RESULT:      -6.7     21.623     24.741
REMARK  Name = 45361387
REMARK  12 active torsions:
REMARK  status: ('A' for Active; 'I' for Inactive)
REMARK    1  A    between atoms: O_1  and  C_11
REMARK    2  A    between atoms: O_4  and  C_31
REMARK    3  A    between atoms: O_4  and  C_36
REMARK    4  A    between atoms: N_5  and  C_15
REMARK    5  A    between atoms: N_6  and  C_25
REMARK    6  A    between atoms: C_8  and  C_18
REMARK    7  A    between atoms: C_10  and  C_20
REMARK    8  A    between atoms: C_14  and  C_19
REMARK    9  A    between atoms: C_19  and  C_21
REMARK   10  A    between atoms: C_19  and  C_22
REMARK   11  A    between atoms: C_23  and  C_24
REMARK   12  A    between atoms: C_25  and  C_28
REMARK                            x       y       z     vdW  Elec       q    Type
REMARK                         _______ _______ _______ _____ _____    ______ ____
ROOT
ATOM      8  C   UNL     1      -6.885 -11.248  38.918  0.00  0.00    -0.027 C 
ATOM      9  C   UNL     1      -7.947 -10.112  38.751  0.00  0.00    +0.028 C 
ATOM     10  C   UNL     1      -8.892 -10.404  37.531  0.00  0.00    +0.012 C 
ATOM     11  C   UNL     1      -7.278  -8.707  38.758  0.00  0.00    +0.122 C 
ATOM     12  C   UNL     1      -6.047 -10.988  40.193  0.00  0.00    +0.007 C 
ATOM     13  C   UNL     1      -7.614 -12.599  39.101  0.00  0.00    +0.009 C 
ATOM     14  C   UNL     1      -6.359  -8.492  39.984  0.00  0.00    +0.029 C 
ATOM     15  C   UNL     1      -9.562 -11.797  37.689  0.00  0.00    +0.076 C 
ATOM     16  C   UNL     1      -5.358  -9.630  40.185  0.00  0.00    +0.007 C 
ATOM     17  C   UNL     1      -8.565 -12.925  37.959  0.00  0.00    +0.023 C 
ATOM     18  C   UNL     1      -5.925 -11.347  37.704  0.00  0.00    +0.011 C 
ATOM     20  C   UNL     1      -9.981  -9.339  37.326  0.00  0.00    +0.010 C 
ENDROOT
BRANCH  15   5
ATOM      3  O   UNL     1     -12.425 -11.949  37.537  0.00  0.00    -0.270 OA
ATOM      5  N   UNL     1     -10.348 -12.150  36.526  0.00  0.00    -0.308 N 
ATOM     23  C   UNL     1     -11.731 -12.195  36.553  0.00  0.00    +0.244 C 
ATOM     37  H   UNL     1      -9.839 -12.477  35.712  0.00  0.00    +0.149 HD
BRANCH  23  24
ATOM     24  C   UNL     1     -12.389 -12.600  35.284  0.00  0.00    +0.037 A 
ATOM     26  C   UNL     1     -13.485 -11.881  34.807  0.00  0.00    +0.016 A 
ATOM     27  C   UNL     1     -11.912 -13.700  34.571  0.00  0.00    +0.016 A 
ATOM     29  C   UNL     1     -14.105 -12.263  33.616  0.00  0.00    +0.046 A 
ATOM     30  C   UNL     1     -12.531 -14.081  33.380  0.00  0.00    +0.046 A 
ATOM     31  C   UNL     1     -13.628 -13.362  32.904  0.00  0.00    +0.120 A 
BRANCH  31   4
ATOM      4  O   UNL     1     -14.231 -13.734  31.740  0.00  0.00    -0.495 OA
ATOM     36  C   UNL     1     -14.878 -12.709  30.990  0.00  0.00    +0.277 C 
ENDBRANCH  31   4
ENDBRANCH  23  24
ENDBRANCH  15   5
BRANCH  11   1
ATOM      1  O   UNL     1      -8.287  -7.699  38.823  0.00  0.00    -0.391 OA
ATOM     38  H   UNL     1      -8.018  -6.964  38.245  0.00  0.00    +0.210 HD
ENDBRANCH  11   1
BRANCH  14  19
ATOM     19  C   UNL     1      -5.609  -7.157  39.904  0.00  0.00    +0.077 C 
ATOM     21  C   UNL     1      -4.111  -7.387  40.068  0.00  0.00    +0.017 C 
BRANCH  19  22
ATOM      2  O   UNL     1      -5.525  -5.932  41.992  0.00  0.00    -0.276 OA
ATOM      6  N   UNL     1      -7.384  -5.675  40.628  0.00  0.00    -0.309 N 
ATOM     22  C   UNL     1      -6.143  -6.197  40.962  0.00  0.00    +0.217 C 
ATOM     39  H   UNL     1      -7.804  -5.901  39.733  0.00  0.00    +0.149 HD
BRANCH   6  25
ATOM     25  C   UNL     1      -8.093  -4.743  41.474  0.00  0.00    +0.159 C 
BRANCH  25  28
ATOM      7  N   UNL     1      -9.758  -4.370  39.745  0.00  0.00    -0.258 NA
ATOM     28  C   UNL     1      -8.958  -3.808  40.680  0.00  0.00    +0.058 A 
ATOM     32  C   UNL     1      -8.899  -2.448  40.934  0.00  0.00    +0.025 A 
ATOM     33  C   UNL     1      -9.713  -1.609  40.181  0.00  0.00    +0.003 A 
ATOM     34  C   UNL     1     -10.535  -3.523  39.032  0.00  0.00    +0.111 A 
ATOM     35  C   UNL     1     -10.550  -2.149  39.210  0.00  0.00    +0.020 A 
ENDBRANCH  25  28
ENDBRANCH   6  25
ENDBRANCH  19  22
ENDBRANCH  14  19
TORSDOF 8
ENDMDL
MODEL 8
REMARK VINA RESULT:      -6.6     19.506     22.686
REMARK  Name = 45361387
REMARK  12 active torsions:
REMARK  status: ('A' for Active; 'I' for Inactive)
REMARK    1  A    between atoms: O_1  and  C_11
REMARK    2  A    between atoms: O_4  and  C_31
REMARK    3  A    between atoms: O_4  and  C_36
REMARK    4  A    between atoms: N_5  and  C_15
REMARK    5  A    between atoms: N_6  and  C_25
REMARK    6  A    between atoms: C_8  and  C_18
REMARK    7  A    between atoms: C_10  and  C_20
REMARK    8  A    between atoms: C_14  and  C_19
REMARK    9  A    between atoms: C_19  and  C_21
REMARK   10  A    between atoms: C_19  and  C_22
REMARK   11  A    between atoms: C_23  and  C_24
REMARK   12  A    between atoms: C_25  and  C_28
REMARK                            x       y       z     vdW  Elec       q    Type
REMARK                         _______ _______ _______ _____ _____    ______ ____
ROOT
ATOM      8  C   UNL     1      -3.321 -11.787  11.858  0.00  0.00    -0.027 C 
ATOM      9  C   UNL     1      -4.631 -11.118  12.392  0.00  0.00    +0.028 C 
ATOM     10  C   UNL     1      -5.313 -10.253  11.272  0.00  0.00    +0.012 C 
ATOM     11  C   UNL     1      -4.382 -10.388  13.743  0.00  0.00    +0.122 C 
ATOM     12  C   UNL     1      -2.737 -12.720  12.947  0.00  0.00    +0.007 C 
ATOM     13  C   UNL     1      -3.664 -12.657  10.627  0.00  0.00    +0.009 C 
ATOM     14  C   UNL     1      -3.703 -11.297  14.794  0.00  0.00    +0.029 C 
ATOM     15  C   UNL     1      -5.585 -11.121  10.012  0.00  0.00    +0.076 C 
ATOM     16  C   UNL     1      -2.455 -11.999  14.258  0.00  0.00    +0.007 C 
ATOM     17  C   UNL     1      -4.352 -11.877   9.516  0.00  0.00    +0.023 C 
ATOM     18  C   UNL     1      -2.242 -10.747  11.464  0.00  0.00    +0.011 C 
ATOM     20  C   UNL     1      -6.625  -9.589  11.721  0.00  0.00    +0.010 C 
ENDROOT
BRANCH  15   5
ATOM      3  O   UNL     1      -7.953 -11.661   8.481  0.00  0.00    -0.270 OA
ATOM      5  N   UNL     1      -6.107 -10.329   8.918  0.00  0.00    -0.308 N 
ATOM     23  C   UNL     1      -7.263 -10.675   8.239  0.00  0.00    +0.244 C 
ATOM     37  H   UNL     1      -5.526  -9.565   8.588  0.00  0.00    +0.149 HD
BRANCH  23  24
ATOM     24  C   UNL     1      -7.650  -9.772   7.124  0.00  0.00    +0.037 A 
ATOM     26  C   UNL     1      -6.720  -9.443   6.138  0.00  0.00    +0.016 A 
ATOM     27  C   UNL     1      -8.943  -9.254   7.064  0.00  0.00    +0.016 A 
ATOM     29  C   UNL     1      -7.082  -8.593   5.093  0.00  0.00    +0.046 A 
ATOM     30  C   UNL     1      -9.307  -8.405   6.018  0.00  0.00    +0.046 A 
ATOM     31  C   UNL     1      -8.376  -8.074   5.033  0.00  0.00    +0.120 A 
BRANCH  31   4
ATOM      4  O   UNL     1      -8.731  -7.247   4.011  0.00  0.00    -0.495 OA
ATOM     36  C   UNL     1      -8.310  -7.618   2.700  0.00  0.00    +0.277 C 
ENDBRANCH  31   4
ENDBRANCH  23  24
ENDBRANCH  15   5
BRANCH  11   1
ATOM      1  O   UNL     1      -5.631  -9.980  14.302  0.00  0.00    -0.391 OA
ATOM     38  H   UNL     1      -6.086 -10.771  14.637  0.00  0.00    +0.210 HD
ENDBRANCH  11   1
BRANCH  14  19
ATOM     19  C   UNL     1      -3.347 -10.523  16.070  0.00  0.00    +0.077 C 
ATOM     21  C   UNL     1      -1.856 -10.646  16.360  0.00  0.00    +0.017 C 
BRANCH  19  22
ATOM      2  O   UNL     1      -3.714 -11.717  18.146  0.00  0.00    -0.276 OA
ATOM      6  N   UNL     1      -5.514 -10.645  17.149  0.00  0.00    -0.309 N 
ATOM     22  C   UNL     1      -4.185 -11.034  17.238  0.00  0.00    +0.217 C 
ATOM     39  H   UNL     1      -5.814 -10.036  16.396  0.00  0.00    +0.149 HD
BRANCH   6  25
ATOM     25  C   UNL     1      -6.502 -11.010  18.138  0.00  0.00    +0.159 C 
BRANCH  25  28
ATOM      7  N   UNL     1      -8.846 -10.673  18.679  0.00  0.00    -0.258 NA
ATOM     28  C   UNL     1      -7.783 -10.248  17.959  0.00  0.00    +0.058 A 
ATOM     32  C   UNL     1      -7.817  -9.172  17.088  0.00  0.00    +0.025 A 
ATOM     33  C   UNL     1      -9.019  -8.487  16.946  0.00  0.00    +0.003 A 
ATOM     34  C   UNL     1      -9.998  -9.983  18.514  0.00  0.00    +0.111 A 
ATOM     35  C   UNL     1     -10.135  -8.893  17.669  0.00  0.00    +0.020 A 
ENDBRANCH  25  28
ENDBRANCH   6  25
ENDBRANCH  19  22
ENDBRANCH  14  19
TORSDOF 8
ENDMDL
MODEL 9
REMARK VINA RESULT:      -6.5     28.448     32.341
REMARK  Name = 45361387
REMARK  12 active torsions:
REMARK  status: ('A' for Active; 'I' for Inactive)
REMARK    1  A    between atoms: O_1  and  C_11
REMARK    2  A    between atoms: O_4  and  C_31
REMARK    3  A    between atoms: O_4  and  C_36
REMARK    4  A    between atoms: N_5  and  C_15
REMARK    5  A    between atoms: N_6  and  C_25
REMARK    6  A    between atoms: C_8  and  C_18
REMARK    7  A    between atoms: C_10  and  C_20
REMARK    8  A    between atoms: C_14  and  C_19
REMARK    9  A    between atoms: C_19  and  C_21
REMARK   10  A    between atoms: C_19  and  C_22
REMARK   11  A    between atoms: C_23  and  C_24
REMARK   12  A    between atoms: C_25  and  C_28
REMARK                            x       y       z     vdW  Elec       q    Type
REMARK                         _______ _______ _______ _____ _____    ______ ____
ROOT
ATOM      8  C   UNL     1      17.505  10.649  21.622  0.00  0.00    -0.027 C 
ATOM      9  C   UNL     1      16.805   9.250  21.651  0.00  0.00    +0.028 C 
ATOM     10  C   UNL     1      17.794   8.121  21.185  0.00  0.00    +0.012 C 
ATOM     11  C   UNL     1      15.437   9.287  20.912  0.00  0.00    +0.122 C 
ATOM     12  C   UNL     1      16.543  11.719  22.193  0.00  0.00    +0.007 C 
ATOM     13  C   UNL     1      18.755  10.608  22.530  0.00  0.00    +0.009 C 
ATOM     14  C   UNL     1      14.519  10.426  21.416  0.00  0.00    +0.029 C 
ATOM     15  C   UNL     1      19.080   8.137  22.058  0.00  0.00    +0.076 C 
ATOM     16  C   UNL     1      15.217  11.786  21.446  0.00  0.00    +0.007 C 
ATOM     17  C   UNL     1      19.740   9.514  22.143  0.00  0.00    +0.023 C 
ATOM     18  C   UNL     1      17.927  11.073  20.192  0.00  0.00    +0.011 C 
ATOM     20  C   UNL     1      17.178   6.712  21.217  0.00  0.00    +0.010 C 
ENDROOT
BRANCH  15   5
ATOM      3  O   UNL     1      20.409   6.123  23.613  0.00  0.00    -0.270 OA
ATOM      5  N   UNL     1      20.063   7.187  21.583  0.00  0.00    -0.308 N 
ATOM     23  C   UNL     1      20.649   6.249  22.415  0.00  0.00    +0.244 C 
ATOM     37  H   UNL     1      20.394   7.308  20.632  0.00  0.00    +0.149 HD
BRANCH  23  24
ATOM     24  C   UNL     1      21.658   5.363  21.780  0.00  0.00    +0.037 A 
ATOM     26  C   UNL     1      22.507   5.868  20.794  0.00  0.00    +0.016 A 
ATOM     27  C   UNL     1      21.755   4.027  22.166  0.00  0.00    +0.016 A 
ATOM     29  C   UNL     1      23.453   5.035  20.195  0.00  0.00    +0.046 A 
ATOM     30  C   UNL     1      22.702   3.194  21.568  0.00  0.00    +0.046 A 
ATOM     31  C   UNL     1      23.550   3.699  20.582  0.00  0.00    +0.120 A 
BRANCH  31   4
ATOM      4  O   UNL     1      24.474   2.887  19.999  0.00  0.00    -0.495 OA
ATOM     36  C   UNL     1      25.656   3.507  19.494  0.00  0.00    +0.277 C 
ENDBRANCH  31   4
ENDBRANCH  23  24
ENDBRANCH  15   5
BRANCH  11   1
ATOM      1  O   UNL     1      14.736   8.066  21.144  0.00  0.00    -0.391 OA
ATOM     38  H   UNL     1      13.873   8.281  21.537  0.00  0.00    +0.210 HD
ENDBRANCH  11   1
BRANCH  14  19
ATOM     19  C   UNL     1      13.233  10.529  20.588  0.00  0.00    +0.077 C 
ATOM     21  C   UNL     1      13.451  11.445  19.391  0.00  0.00    +0.017 C 
BRANCH  19  22
ATOM      2  O   UNL     1      11.403  12.003  21.176  0.00  0.00    -0.276 OA
ATOM      6  N   UNL     1      11.921  10.252  22.607  0.00  0.00    -0.309 N 
ATOM     22  C   UNL     1      12.088  11.024  21.466  0.00  0.00    +0.217 C 
ATOM     39  H   UNL     1      12.493   9.427  22.749  0.00  0.00    +0.149 HD
BRANCH   6  25
ATOM     25  C   UNL     1      10.901  10.526  23.593  0.00  0.00    +0.159 C 
BRANCH  25  28
ATOM      7  N   UNL     1      10.262  12.629  24.629  0.00  0.00    -0.258 NA
ATOM     28  C   UNL     1      11.243  11.718  24.440  0.00  0.00    +0.058 A 
ATOM     32  C   UNL     1      12.516  11.827  24.975  0.00  0.00    +0.025 A 
ATOM     33  C   UNL     1      12.801  12.943  25.755  0.00  0.00    +0.003 A 
ATOM     34  C   UNL     1      10.575  13.700  25.392  0.00  0.00    +0.111 A 
ATOM     35  C   UNL     1      11.817  13.901  25.973  0.00  0.00    +0.020 A 
ENDBRANCH  25  28
ENDBRANCH   6  25
ENDBRANCH  19  22
ENDBRANCH  14  19
TORSDOF 8
ENDMDL
MODEL 10
REMARK VINA RESULT:      -6.4     20.017     21.502
REMARK  Name = 45361387
REMARK  12 active torsions:
REMARK  status: ('A' for Active; 'I' for Inactive)
REMARK    1  A    between atoms: O_1  and  C_11
REMARK    2  A    between atoms: O_4  and  C_31
REMARK    3  A    between atoms: O_4  and  C_36
REMARK    4  A    between atoms: N_5  and  C_15
REMARK    5  A    between atoms: N_6  and  C_25
REMARK    6  A    between atoms: C_8  and  C_18
REMARK    7  A    between atoms: C_10  and  C_20
REMARK    8  A    between atoms: C_14  and  C_19
REMARK    9  A    between atoms: C_19  and  C_21
REMARK   10  A    between atoms: C_19  and  C_22
REMARK   11  A    between atoms: C_23  and  C_24
REMARK   12  A    between atoms: C_25  and  C_28
REMARK                            x       y       z     vdW  Elec       q    Type
REMARK                         _______ _______ _______ _____ _____    ______ ____
ROOT
ATOM      8  C   UNL     1      -2.924 -10.968  14.672  0.00  0.00    -0.027 C 
ATOM      9  C   UNL     1      -4.310 -10.454  14.158  0.00  0.00    +0.028 C 
ATOM     10  C   UNL     1      -5.480 -11.035  15.029  0.00  0.00    +0.012 C 
ATOM     11  C   UNL     1      -4.453 -10.659  12.623  0.00  0.00    +0.122 C 
ATOM     12  C   UNL     1      -1.790 -10.289  13.867  0.00  0.00    +0.007 C 
ATOM     13  C   UNL     1      -2.755 -10.566  16.155  0.00  0.00    +0.009 C 
ATOM     14  C   UNL     1      -3.264 -10.068  11.830  0.00  0.00    +0.029 C 
ATOM     15  C   UNL     1      -5.260 -10.688  16.528  0.00  0.00    +0.076 C 
ATOM     16  C   UNL     1      -1.906 -10.521  12.367  0.00  0.00    +0.007 C 
ATOM     17  C   UNL     1      -3.876 -11.080  17.047  0.00  0.00    +0.023 C 
ATOM     18  C   UNL     1      -2.776 -12.506  14.541  0.00  0.00    +0.011 C 
ATOM     20  C   UNL     1      -6.872 -10.546  14.596  0.00  0.00    +0.010 C 
ENDROOT
BRANCH  15   5
ATOM      3  O   UNL     1      -7.431  -9.368  17.867  0.00  0.00    -0.270 OA
ATOM      5  N   UNL     1      -6.258 -11.307  17.375  0.00  0.00    -0.308 N 
ATOM     23  C   UNL     1      -7.271 -10.581  17.978  0.00  0.00    +0.244 C 
ATOM     37  H   UNL     1      -6.121 -12.286  17.604  0.00  0.00    +0.149 HD
BRANCH  23  24
ATOM     24  C   UNL     1      -8.200 -11.361  18.837  0.00  0.00    +0.037 A 
ATOM     26  C   UNL     1      -9.437 -10.824  19.191  0.00  0.00    +0.016 A 
ATOM     27  C   UNL     1      -7.833 -12.627  19.291  0.00  0.00    +0.016 A 
ATOM     29  C   UNL     1     -10.309 -11.554  20.001  0.00  0.00    +0.046 A 
ATOM     30  C   UNL     1      -8.704 -13.358  20.099  0.00  0.00    +0.046 A 
ATOM     31  C   UNL     1      -9.942 -12.820  20.454  0.00  0.00    +0.120 A 
BRANCH  31   4
ATOM      4  O   UNL     1     -10.792 -13.535  21.242  0.00  0.00    -0.495 OA
ATOM     36  C   UNL     1     -12.160 -13.129  21.253  0.00  0.00    +0.277 C 
ENDBRANCH  31   4
ENDBRANCH  23  24
ENDBRANCH  15   5
BRANCH  11   1
ATOM      1  O   UNL     1      -5.625  -9.987  12.159  0.00  0.00    -0.391 OA
ATOM     38  H   UNL     1      -6.384 -10.314  12.671  0.00  0.00    +0.210 HD
ENDBRANCH  11   1
BRANCH  14  19
ATOM     19  C   UNL     1      -3.358 -10.394  10.335  0.00  0.00    +0.077 C 
ATOM     21  C   UNL     1      -3.980  -9.225   9.580  0.00  0.00    +0.017 C 
BRANCH  19  22
ATOM      2  O   UNL     1      -5.303 -11.681   9.676  0.00  0.00    -0.276 OA
ATOM      6  N   UNL     1      -3.460 -12.809  10.520  0.00  0.00    -0.309 N 
ATOM     22  C   UNL     1      -4.161 -11.676  10.132  0.00  0.00    +0.217 C 
ATOM     39  H   UNL     1      -2.500 -12.727  10.838  0.00  0.00    +0.149 HD
BRANCH   6  25
ATOM     25  C   UNL     1      -4.012 -14.140  10.425  0.00  0.00    +0.159 C 
BRANCH  25  28
ATOM      7  N   UNL     1      -3.572 -15.705  12.230  0.00  0.00    -0.258 NA
ATOM     28  C   UNL     1      -4.358 -14.703  11.773  0.00  0.00    +0.058 A 
ATOM     32  C   UNL     1      -5.437 -14.184  12.469  0.00  0.00    +0.025 A 
ATOM     33  C   UNL     1      -5.730 -14.728  13.715  0.00  0.00    +0.003 A 
ATOM     34  C   UNL     1      -3.888 -16.208  13.445  0.00  0.00    +0.111 A 
ATOM     35  C   UNL     1      -4.945 -15.759  14.220  0.00  0.00    +0.020 A 
ENDBRANCH  25  28
ENDBRANCH   6  25
ENDBRANCH  19  22
ENDBRANCH  14  19
TORSDOF 8
ENDMDL
