MODEL 1
REMARK VINA RESULT:      -8.1      0.000      0.000
REMARK  Name = 45783503
REMARK  4 active torsions:
REMARK  status: ('A' for Active; 'I' for Inactive)
REMARK    1  A    between atoms: N_4  and  C_10
REMARK    2  A    between atoms: C_11  and  C_19
REMARK    3  A    between atoms: C_20  and  C_22
REMARK    4  A    between atoms: C_21  and  C_23
REMARK                            x       y       z     vdW  Elec       q    Type
REMARK                         _______ _______ _______ _____ _____    ______ ____
ROOT
ATOM      1  O   UNL     1      14.430   6.932  19.193  0.00  0.00    -0.336 OA
ATOM      6  N   UNL     1      15.584   7.782  20.914  0.00  0.00    -0.190 NA
ATOM      7  N   UNL     1      15.708   6.362  19.125  0.00  0.00    -0.056 NA
ATOM     19  C   UNL     1      14.442   7.755  20.274  0.00  0.00    +0.245 A 
ATOM     21  C   UNL     1      16.329   6.912  20.172  0.00  0.00    +0.204 A 
ENDROOT
BRANCH  21  23
ATOM      3  O   UNL     1      24.312   5.539  22.256  0.00  0.00    -0.377 OA
ATOM      8  N   UNL     1      21.611   5.827  21.531  0.00  0.00    -0.311 N 
ATOM      9  N   UNL     1      19.629   7.073  21.877  0.00  0.00    -0.240 NA
ATOM     23  C   UNL     1      17.692   6.615  20.504  0.00  0.00    +0.041 A 
ATOM     24  C   UNL     1      18.397   5.628  19.825  0.00  0.00    +0.016 A 
ATOM     25  C   UNL     1      22.669   5.982  20.526  0.00  0.00    +0.134 C 
ATOM     26  C   UNL     1      22.034   6.042  22.922  0.00  0.00    +0.134 C 
ATOM     27  C   UNL     1      20.282   6.107  21.194  0.00  0.00    +0.121 A 
ATOM     28  C   UNL     1      18.347   7.303  21.514  0.00  0.00    +0.124 A 
ATOM     29  C   UNL     1      23.895   5.176  20.940  0.00  0.00    +0.178 C 
ATOM     30  C   UNL     1      23.293   5.231  23.207  0.00  0.00    +0.178 C 
ATOM     31  C   UNL     1      19.718   5.363  20.171  0.00  0.00    +0.044 A 
ENDBRANCH  21  23
BRANCH  19  11
ATOM      4  N   UNL     1      12.154   8.345  19.496  0.00  0.00    -0.288 NA
ATOM     11  C   UNL     1      13.157   8.499  20.569  0.00  0.00    +0.146 C 
ATOM     12  C   UNL     1      10.843   8.451  20.138  0.00  0.00    +0.085 C 
ATOM     13  C   UNL     1      12.453   7.988  21.839  0.00  0.00    +0.030 C 
ATOM     16  C   UNL     1      11.042   7.629  21.394  0.00  0.00    +0.017 C 
BRANCH   4  10
ATOM      2  O   UNL     1      15.216  10.084  14.456  0.00  0.00    -0.276 OA
ATOM      5  N   UNL     1      13.940  10.526  16.347  0.00  0.00    -0.302 N 
ATOM     10  C   UNL     1      12.315   9.314  18.413  0.00  0.00    +0.060 C 
ATOM     14  C   UNL     1      13.442  10.298  18.752  0.00  0.00    +0.038 C 
ATOM     15  C   UNL     1      12.615   8.586  17.097  0.00  0.00    +0.038 C 
ATOM     17  C   UNL     1      13.694  11.262  17.593  0.00  0.00    +0.109 C 
ATOM     18  C   UNL     1      12.884   9.584  15.972  0.00  0.00    +0.109 C 
ATOM     20  C   UNL     1      15.050  10.690  15.518  0.00  0.00    +0.212 C 
ATOM     22  C   UNL     1      16.095  11.676  15.976  0.00  0.00    +0.109 C 
ENDBRANCH   4  10
ENDBRANCH  19  11
TORSDOF 3
ENDMDL
MODEL 2
REMARK VINA RESULT:      -8.1      2.816     11.140
REMARK  Name = 45783503
REMARK  4 active torsions:
REMARK  status: ('A' for Active; 'I' for Inactive)
REMARK    1  A    between atoms: N_4  and  C_10
REMARK    2  A    between atoms: C_11  and  C_19
REMARK    3  A    between atoms: C_20  and  C_22
REMARK    4  A    between atoms: C_21  and  C_23
REMARK                            x       y       z     vdW  Elec       q    Type
REMARK                         _______ _______ _______ _____ _____    ______ ____
ROOT
ATOM      1  O   UNL     1      21.200   5.899  23.183  0.00  0.00    -0.336 OA
ATOM      6  N   UNL     1      20.941   6.302  20.995  0.00  0.00    -0.190 NA
ATOM      7  N   UNL     1      19.850   6.230  23.004  0.00  0.00    -0.056 NA
ATOM     19  C   UNL     1      21.769   5.966  21.951  0.00  0.00    +0.245 A 
ATOM     21  C   UNL     1      19.776   6.454  21.689  0.00  0.00    +0.204 A 
ENDROOT
BRANCH  21  23
ATOM      3  O   UNL     1      12.574   8.877  18.196  0.00  0.00    -0.377 OA
ATOM      8  N   UNL     1      15.043   7.999  19.213  0.00  0.00    -0.311 N 
ATOM      9  N   UNL     1      16.769   8.438  20.770  0.00  0.00    -0.240 NA
ATOM     23  C   UNL     1      18.555   6.831  21.038  0.00  0.00    +0.041 A 
ATOM     24  C   UNL     1      17.974   6.013  20.076  0.00  0.00    +0.016 A 
ATOM     25  C   UNL     1      13.850   7.153  19.329  0.00  0.00    +0.134 C 
ATOM     26  C   UNL     1      14.777   9.434  19.045  0.00  0.00    +0.134 C 
ATOM     27  C   UNL     1      16.233   7.617  19.841  0.00  0.00    +0.121 A 
ATOM     28  C   UNL     1      17.919   8.024  21.347  0.00  0.00    +0.124 A 
ATOM     29  C   UNL     1      12.873   7.482  18.205  0.00  0.00    +0.178 C 
ATOM     30  C   UNL     1      13.752   9.641  17.936  0.00  0.00    +0.178 C 
ATOM     31  C   UNL     1      16.789   6.406  19.462  0.00  0.00    +0.044 A 
ENDBRANCH  21  23
BRANCH  19  11
ATOM      4  N   UNL     1      23.547   4.590  20.884  0.00  0.00    -0.288 NA
ATOM     11  C   UNL     1      23.248   5.645  21.874  0.00  0.00    +0.146 C 
ATOM     12  C   UNL     1      24.901   4.856  20.395  0.00  0.00    +0.085 C 
ATOM     13  C   UNL     1      24.095   6.851  21.429  0.00  0.00    +0.030 C 
ATOM     16  C   UNL     1      24.882   6.361  20.222  0.00  0.00    +0.017 C 
BRANCH   4  10
ATOM      2  O   UNL     1      25.715   0.226  24.632  0.00  0.00    -0.276 OA
ATOM      5  N   UNL     1      24.568   0.934  22.740  0.00  0.00    -0.302 N 
ATOM     10  C   UNL     1      23.414   3.239  21.423  0.00  0.00    +0.060 C 
ATOM     14  C   UNL     1      24.359   2.282  20.685  0.00  0.00    +0.038 C 
ATOM     15  C   UNL     1      23.719   3.241  22.927  0.00  0.00    +0.038 C 
ATOM     17  C   UNL     1      24.307   0.882  21.296  0.00  0.00    +0.109 C 
ATOM     18  C   UNL     1      23.681   1.822  23.492  0.00  0.00    +0.109 C 
ATOM     20  C   UNL     1      25.540   0.192  23.412  0.00  0.00    +0.212 C 
ATOM     22  C   UNL     1      26.415  -0.698  22.566  0.00  0.00    +0.109 C 
ENDBRANCH   4  10
ENDBRANCH  19  11
TORSDOF 3
ENDMDL
MODEL 3
REMARK VINA RESULT:      -8.1      2.924      4.560
REMARK  Name = 45783503
REMARK  4 active torsions:
REMARK  status: ('A' for Active; 'I' for Inactive)
REMARK    1  A    between atoms: N_4  and  C_10
REMARK    2  A    between atoms: C_11  and  C_19
REMARK    3  A    between atoms: C_20  and  C_22
REMARK    4  A    between atoms: C_21  and  C_23
REMARK                            x       y       z     vdW  Elec       q    Type
REMARK                         _______ _______ _______ _____ _____    ______ ____
ROOT
ATOM      1  O   UNL     1      14.137   7.111  19.282  0.00  0.00    -0.336 OA
ATOM      6  N   UNL     1      15.759   8.464  20.030  0.00  0.00    -0.190 NA
ATOM      7  N   UNL     1      15.248   6.292  19.523  0.00  0.00    -0.056 NA
ATOM     19  C   UNL     1      14.524   8.373  19.605  0.00  0.00    +0.245 A 
ATOM     21  C   UNL     1      16.163   7.162  19.962  0.00  0.00    +0.204 A 
ENDROOT
BRANCH  21  23
ATOM      3  O   UNL     1      23.947   5.199  22.308  0.00  0.00    -0.377 OA
ATOM      8  N   UNL     1      21.300   5.686  21.495  0.00  0.00    -0.311 N 
ATOM      9  N   UNL     1      19.409   7.080  21.773  0.00  0.00    -0.240 NA
ATOM     23  C   UNL     1      17.488   6.764  20.339  0.00  0.00    +0.041 A 
ATOM     24  C   UNL     1      18.137   5.723  19.686  0.00  0.00    +0.016 A 
ATOM     25  C   UNL     1      22.399   5.757  20.525  0.00  0.00    +0.134 C 
ATOM     26  C   UNL     1      21.693   5.875  22.899  0.00  0.00    +0.134 C 
ATOM     27  C   UNL     1      20.008   6.064  21.115  0.00  0.00    +0.121 A 
ATOM     28  C   UNL     1      18.160   7.406  21.368  0.00  0.00    +0.124 A 
ATOM     29  C   UNL     1      23.546   4.862  20.981  0.00  0.00    +0.178 C 
ATOM     30  C   UNL     1      22.878   4.973  23.227  0.00  0.00    +0.178 C 
ATOM     31  C   UNL     1      19.423   5.361  20.075  0.00  0.00    +0.044 A 
ENDBRANCH  21  23
BRANCH  19  11
ATOM      4  N   UNL     1      13.771  10.655  20.253  0.00  0.00    -0.288 NA
ATOM     11  C   UNL     1      13.485   9.461  19.431  0.00  0.00    +0.146 C 
ATOM     12  C   UNL     1      13.208  11.797  19.531  0.00  0.00    +0.085 C 
ATOM     13  C   UNL     1      13.414   9.989  17.986  0.00  0.00    +0.030 C 
ATOM     16  C   UNL     1      13.610  11.494  18.102  0.00  0.00    +0.017 C 
BRANCH   4  10
ATOM      2  O   UNL     1       9.935  12.807  24.548  0.00  0.00    -0.276 OA
ATOM      5  N   UNL     1      11.886  11.739  23.876  0.00  0.00    -0.302 N 
ATOM     10  C   UNL     1      13.250  10.555  21.614  0.00  0.00    +0.060 C 
ATOM     14  C   UNL     1      13.939  11.586  22.518  0.00  0.00    +0.038 C 
ATOM     15  C   UNL     1      11.732  10.772  21.613  0.00  0.00    +0.038 C 
ATOM     17  C   UNL     1      13.343  11.565  23.925  0.00  0.00    +0.109 C 
ATOM     18  C   UNL     1      11.180  10.768  23.038  0.00  0.00    +0.109 C 
ATOM     20  C   UNL     1      11.164  12.704  24.578  0.00  0.00    +0.212 C 
ATOM     22  C   UNL     1      11.964  13.668  25.417  0.00  0.00    +0.109 C 
ENDBRANCH   4  10
ENDBRANCH  19  11
TORSDOF 3
ENDMDL
MODEL 4
REMARK VINA RESULT:      -7.6      3.215     11.380
REMARK  Name = 45783503
REMARK  4 active torsions:
REMARK  status: ('A' for Active; 'I' for Inactive)
REMARK    1  A    between atoms: N_4  and  C_10
REMARK    2  A    between atoms: C_11  and  C_19
REMARK    3  A    between atoms: C_20  and  C_22
REMARK    4  A    between atoms: C_21  and  C_23
REMARK                            x       y       z     vdW  Elec       q    Type
REMARK                         _______ _______ _______ _____ _____    ______ ____
ROOT
ATOM      1  O   UNL     1      23.057   6.294  22.366  0.00  0.00    -0.336 OA
ATOM      6  N   UNL     1      21.817   5.219  20.842  0.00  0.00    -0.190 NA
ATOM      7  N   UNL     1      21.823   6.956  22.330  0.00  0.00    -0.056 NA
ATOM     19  C   UNL     1      22.969   5.286  21.460  0.00  0.00    +0.245 A 
ATOM     21  C   UNL     1      21.147   6.264  21.409  0.00  0.00    +0.204 A 
ENDROOT
BRANCH  21  23
ATOM      3  O   UNL     1      13.270   8.360  19.534  0.00  0.00    -0.377 OA
ATOM      8  N   UNL     1      15.939   7.605  19.996  0.00  0.00    -0.311 N 
ATOM      9  N   UNL     1      17.904   8.075  21.226  0.00  0.00    -0.240 NA
ATOM     23  C   UNL     1      19.802   6.590  21.031  0.00  0.00    +0.041 A 
ATOM     24  C   UNL     1      19.096   5.791  20.139  0.00  0.00    +0.016 A 
ATOM     25  C   UNL     1      14.844   6.668  20.274  0.00  0.00    +0.134 C 
ATOM     26  C   UNL     1      15.558   9.025  19.989  0.00  0.00    +0.134 C 
ATOM     27  C   UNL     1      17.249   7.274  20.357  0.00  0.00    +0.121 A 
ATOM     28  C   UNL     1      19.168   7.711  21.542  0.00  0.00    +0.124 A 
ATOM     29  C   UNL     1      13.650   6.993  19.384  0.00  0.00    +0.178 C 
ATOM     30  C   UNL     1      14.327   9.223  19.113  0.00  0.00    +0.178 C 
ATOM     31  C   UNL     1      17.793   6.133  19.791  0.00  0.00    +0.044 A 
ENDBRANCH  21  23
BRANCH  19  11
ATOM      4  N   UNL     1      23.891   2.975  21.501  0.00  0.00    -0.288 NA
ATOM     11  C   UNL     1      24.194   4.407  21.309  0.00  0.00    +0.146 C 
ATOM     12  C   UNL     1      24.855   2.236  20.685  0.00  0.00    +0.085 C 
ATOM     13  C   UNL     1      24.813   4.490  19.902  0.00  0.00    +0.030 C 
ATOM     16  C   UNL     1      24.875   3.052  19.409  0.00  0.00    +0.017 C 
BRANCH   4  10
ATOM      2  O   UNL     1      23.404  -1.559  25.625  0.00  0.00    -0.276 OA
ATOM      5  N   UNL     1      23.246   0.668  24.983  0.00  0.00    -0.302 N 
ATOM     10  C   UNL     1      23.928   2.562  22.902  0.00  0.00    +0.060 C 
ATOM     14  C   UNL     1      22.501   2.457  23.457  0.00  0.00    +0.038 C 
ATOM     15  C   UNL     1      24.655   1.218  23.036  0.00  0.00    +0.038 C 
ATOM     17  C   UNL     1      22.509   1.935  24.894  0.00  0.00    +0.109 C 
ATOM     18  C   UNL     1      24.620   0.721  24.480  0.00  0.00    +0.109 C 
ATOM     20  C   UNL     1      22.751  -0.517  25.529  0.00  0.00    +0.212 C 
ATOM     22  C   UNL     1      21.327  -0.490  26.022  0.00  0.00    +0.109 C 
ENDBRANCH   4  10
ENDBRANCH  19  11
TORSDOF 3
ENDMDL
MODEL 5
REMARK VINA RESULT:      -7.6      5.434      9.010
REMARK  Name = 45783503
REMARK  4 active torsions:
REMARK  status: ('A' for Active; 'I' for Inactive)
REMARK    1  A    between atoms: N_4  and  C_10
REMARK    2  A    between atoms: C_11  and  C_19
REMARK    3  A    between atoms: C_20  and  C_22
REMARK    4  A    between atoms: C_21  and  C_23
REMARK                            x       y       z     vdW  Elec       q    Type
REMARK                         _______ _______ _______ _____ _____    ______ ____
ROOT
ATOM      1  O   UNL     1      14.273   7.781  19.786  0.00  0.00    -0.336 OA
ATOM      6  N   UNL     1      12.928   9.498  19.273  0.00  0.00    -0.190 NA
ATOM      7  N   UNL     1      14.698   8.250  18.536  0.00  0.00    -0.056 NA
ATOM     19  C   UNL     1      13.228   8.571  20.147  0.00  0.00    +0.245 A 
ATOM     21  C   UNL     1      13.857   9.261  18.301  0.00  0.00    +0.204 A 
ENDROOT
BRANCH  21  23
ATOM      3  O   UNL     1      14.074  13.581  11.143  0.00  0.00    -0.377 OA
ATOM      8  N   UNL     1      14.021  12.282  13.635  0.00  0.00    -0.311 N 
ATOM      9  N   UNL     1      13.131  10.462  14.857  0.00  0.00    -0.240 NA
ATOM     23  C   UNL     1      13.917  10.054  17.107  0.00  0.00    +0.041 A 
ATOM     24  C   UNL     1      14.771  11.147  17.015  0.00  0.00    +0.016 A 
ATOM     25  C   UNL     1      15.278  12.402  12.889  0.00  0.00    +0.134 C 
ATOM     26  C   UNL     1      12.800  12.382  12.823  0.00  0.00    +0.134 C 
ATOM     27  C   UNL     1      13.975  11.516  14.805  0.00  0.00    +0.121 A 
ATOM     28  C   UNL     1      13.124   9.755  16.010  0.00  0.00    +0.124 A 
ATOM     29  C   UNL     1      15.225  13.629  11.985  0.00  0.00    +0.178 C 
ATOM     30  C   UNL     1      12.880  13.611  11.924  0.00  0.00    +0.178 C 
ATOM     31  C   UNL     1      14.807  11.897  15.845  0.00  0.00    +0.044 A 
ENDBRANCH  21  23
BRANCH  19  11
ATOM      4  N   UNL     1      11.476   9.190  21.803  0.00  0.00    -0.288 NA
ATOM     11  C   UNL     1      12.582   8.265  21.483  0.00  0.00    +0.146 C 
ATOM     12  C   UNL     1      10.541   8.440  22.641  0.00  0.00    +0.085 C 
ATOM     13  C   UNL     1      11.945   6.864  21.527  0.00  0.00    +0.030 C 
ATOM     16  C   UNL     1      10.499   7.098  21.941  0.00  0.00    +0.017 C 
BRANCH   4  10
ATOM      2  O   UNL     1      10.255  13.798  25.685  0.00  0.00    -0.276 OA
ATOM      5  N   UNL     1      11.333  12.891  23.838  0.00  0.00    -0.302 N 
ATOM     10  C   UNL     1      11.925  10.422  22.448  0.00  0.00    +0.060 C 
ATOM     14  C   UNL     1      11.351  11.640  21.712  0.00  0.00    +0.038 C 
ATOM     15  C   UNL     1      11.494  10.432  23.920  0.00  0.00    +0.038 C 
ATOM     17  C   UNL     1      11.729  12.939  22.425  0.00  0.00    +0.109 C 
ATOM     18  C   UNL     1      11.869  11.754  24.588  0.00  0.00    +0.109 C 
ATOM     20  C   UNL     1      10.544  13.842  24.487  0.00  0.00    +0.212 C 
ATOM     22  C   UNL     1      10.028  14.981  23.645  0.00  0.00    +0.109 C 
ENDBRANCH   4  10
ENDBRANCH  19  11
TORSDOF 3
ENDMDL
MODEL 6
REMARK VINA RESULT:      -7.6      3.030      4.594
REMARK  Name = 45783503
REMARK  4 active torsions:
REMARK  status: ('A' for Active; 'I' for Inactive)
REMARK    1  A    between atoms: N_4  and  C_10
REMARK    2  A    between atoms: C_11  and  C_19
REMARK    3  A    between atoms: C_20  and  C_22
REMARK    4  A    between atoms: C_21  and  C_23
REMARK                            x       y       z     vdW  Elec       q    Type
REMARK                         _______ _______ _______ _____ _____    ______ ____
ROOT
ATOM      1  O   UNL     1      15.582   9.162  20.649  0.00  0.00    -0.336 OA
ATOM      6  N   UNL     1      15.934   6.994  21.087  0.00  0.00    -0.190 NA
ATOM      7  N   UNL     1      16.971   9.005  20.752  0.00  0.00    -0.056 NA
ATOM     19  C   UNL     1      15.048   7.931  20.860  0.00  0.00    +0.245 A 
ATOM     21  C   UNL     1      17.099   7.701  21.011  0.00  0.00    +0.204 A 
ENDROOT
BRANCH  21  23
ATOM      3  O   UNL     1      24.398   3.723  21.935  0.00  0.00    -0.377 OA
ATOM      8  N   UNL     1      22.026   5.209  21.669  0.00  0.00    -0.311 N 
ATOM      9  N   UNL     1      19.985   5.415  20.491  0.00  0.00    -0.240 NA
ATOM     23  C   UNL     1      18.374   7.072  21.201  0.00  0.00    +0.041 A 
ATOM     24  C   UNL     1      19.225   7.472  22.225  0.00  0.00    +0.016 A 
ATOM     25  C   UNL     1      22.333   4.521  22.928  0.00  0.00    +0.134 C 
ATOM     26  C   UNL     1      22.702   4.668  20.481  0.00  0.00    +0.134 C 
ATOM     27  C   UNL     1      20.785   5.830  21.498  0.00  0.00    +0.121 A 
ATOM     28  C   UNL     1      18.797   6.048  20.368  0.00  0.00    +0.124 A 
ATOM     29  C   UNL     1      23.842   4.370  23.078  0.00  0.00    +0.178 C 
ATOM     30  C   UNL     1      24.192   4.512  20.763  0.00  0.00    +0.178 C 
ATOM     31  C   UNL     1      20.456   6.843  22.383  0.00  0.00    +0.044 A 
ENDBRANCH  21  23
BRANCH  19  11
ATOM      4  N   UNL     1      12.883   9.156  20.796  0.00  0.00    -0.288 NA
ATOM     11  C   UNL     1      13.538   7.832  20.798  0.00  0.00    +0.146 C 
ATOM     12  C   UNL     1      11.630   8.995  20.057  0.00  0.00    +0.085 C 
ATOM     13  C   UNL     1      13.040   7.148  19.512  0.00  0.00    +0.030 C 
ATOM     16  C   UNL     1      12.064   8.135  18.888  0.00  0.00    +0.017 C 
BRANCH   4  10
ATOM      2  O   UNL     1       9.840  13.079  24.422  0.00  0.00    -0.276 OA
ATOM      5  N   UNL     1      11.697  11.793  23.878  0.00  0.00    -0.302 N 
ATOM     10  C   UNL     1      12.665   9.692  22.138  0.00  0.00    +0.060 C 
ATOM     14  C   UNL     1      13.432  11.009  22.310  0.00  0.00    +0.038 C 
ATOM     15  C   UNL     1      11.166   9.908  22.380  0.00  0.00    +0.038 C 
ATOM     17  C   UNL     1      13.143  11.638  23.673  0.00  0.00    +0.109 C 
ATOM     18  C   UNL     1      10.922  10.558  23.741  0.00  0.00    +0.109 C 
ATOM     20  C   UNL     1      11.053  12.982  24.219  0.00  0.00    +0.212 C 
ATOM     22  C   UNL     1      11.921  14.210  24.339  0.00  0.00    +0.109 C 
ENDBRANCH   4  10
ENDBRANCH  19  11
TORSDOF 3
ENDMDL
MODEL 7
REMARK VINA RESULT:      -7.3     28.582     31.920
REMARK  Name = 45783503
REMARK  4 active torsions:
REMARK  status: ('A' for Active; 'I' for Inactive)
REMARK    1  A    between atoms: N_4  and  C_10
REMARK    2  A    between atoms: C_11  and  C_19
REMARK    3  A    between atoms: C_20  and  C_22
REMARK    4  A    between atoms: C_21  and  C_23
REMARK                            x       y       z     vdW  Elec       q    Type
REMARK                         _______ _______ _______ _____ _____    ______ ____
ROOT
ATOM      1  O   UNL     1      -9.317 -10.595  19.014  0.00  0.00    -0.336 OA
ATOM      6  N   UNL     1      -8.691  -9.811  17.011  0.00  0.00    -0.190 NA
ATOM      7  N   UNL     1     -10.345  -9.743  18.590  0.00  0.00    -0.056 NA
ATOM     19  C   UNL     1      -8.384 -10.578  18.027  0.00  0.00    +0.245 A 
ATOM     21  C   UNL     1      -9.903  -9.320  17.403  0.00  0.00    +0.204 A 
ENDROOT
BRANCH  21  23
ATOM      3  O   UNL     1     -14.279  -4.281  12.362  0.00  0.00    -0.377 OA
ATOM      8  N   UNL     1     -12.829  -5.855  14.184  0.00  0.00    -0.311 N 
ATOM      9  N   UNL     1     -12.295  -8.062  14.849  0.00  0.00    -0.240 NA
ATOM     23  C   UNL     1     -10.646  -8.407  16.583  0.00  0.00    +0.041 A 
ATOM     24  C   UNL     1     -10.469  -7.033  16.699  0.00  0.00    +0.016 A 
ATOM     25  C   UNL     1     -12.130  -4.941  13.274  0.00  0.00    +0.134 C 
ATOM     26  C   UNL     1     -14.168  -6.270  13.745  0.00  0.00    +0.134 C 
ATOM     27  C   UNL     1     -12.096  -6.733  14.990  0.00  0.00    +0.121 A 
ATOM     28  C   UNL     1     -11.563  -8.868  15.651  0.00  0.00    +0.124 A 
ATOM     29  C   UNL     1     -13.052  -3.787  12.896  0.00  0.00    +0.178 C 
ATOM     30  C   UNL     1     -14.980  -5.045  13.343  0.00  0.00    +0.178 C 
ATOM     31  C   UNL     1     -11.204  -6.173  15.890  0.00  0.00    +0.044 A 
ENDBRANCH  21  23
BRANCH  19  11
ATOM      4  N   UNL     1      -5.901 -10.717  17.933  0.00  0.00    -0.288 NA
ATOM     11  C   UNL     1      -7.154 -11.434  18.247  0.00  0.00    +0.146 C 
ATOM     12  C   UNL     1      -4.869 -11.295  18.796  0.00  0.00    +0.085 C 
ATOM     13  C   UNL     1      -6.994 -11.878  19.712  0.00  0.00    +0.030 C 
ATOM     16  C   UNL     1      -5.599 -11.422  20.116  0.00  0.00    +0.017 C 
BRANCH   4  10
ATOM      2  O   UNL     1      -3.529 -13.992  13.303  0.00  0.00    -0.276 OA
ATOM      5  N   UNL     1      -4.013 -11.987  14.372  0.00  0.00    -0.302 N 
ATOM     10  C   UNL     1      -5.537 -10.785  16.520  0.00  0.00    +0.060 C 
ATOM     14  C   UNL     1      -4.036 -10.513  16.350  0.00  0.00    +0.038 C 
ATOM     15  C   UNL     1      -5.901 -12.161  15.949  0.00  0.00    +0.038 C 
ATOM     17  C   UNL     1      -3.613 -10.673  14.890  0.00  0.00    +0.109 C 
ATOM     18  C   UNL     1      -5.441 -12.288  14.498  0.00  0.00    +0.109 C 
ATOM     20  C   UNL     1      -3.161 -12.908  13.762  0.00  0.00    +0.212 C 
ATOM     22  C   UNL     1      -1.705 -12.526  13.674  0.00  0.00    +0.109 C 
ENDBRANCH   4  10
ENDBRANCH  19  11
TORSDOF 3
ENDMDL
MODEL 8
REMARK VINA RESULT:      -7.3     27.224     31.038
REMARK  Name = 45783503
REMARK  4 active torsions:
REMARK  status: ('A' for Active; 'I' for Inactive)
REMARK    1  A    between atoms: N_4  and  C_10
REMARK    2  A    between atoms: C_11  and  C_19
REMARK    3  A    between atoms: C_20  and  C_22
REMARK    4  A    between atoms: C_21  and  C_23
REMARK                            x       y       z     vdW  Elec       q    Type
REMARK                         _______ _______ _______ _____ _____    ______ ____
ROOT
ATOM      1  O   UNL     1      -4.851  -9.848  16.445  0.00  0.00    -0.336 OA
ATOM      6  N   UNL     1      -5.136 -12.019  16.918  0.00  0.00    -0.190 NA
ATOM      7  N   UNL     1      -6.017  -9.929  17.217  0.00  0.00    -0.056 NA
ATOM     19  C   UNL     1      -4.396 -11.122  16.317  0.00  0.00    +0.245 A 
ATOM     21  C   UNL     1      -6.119 -11.239  17.456  0.00  0.00    +0.204 A 
ENDROOT
BRANCH  21  23
ATOM      3  O   UNL     1     -12.312 -14.239  22.210  0.00  0.00    -0.377 OA
ATOM      8  N   UNL     1     -10.285 -13.338  20.483  0.00  0.00    -0.311 N 
ATOM      9  N   UNL     1      -8.952 -11.488  19.852  0.00  0.00    -0.240 NA
ATOM     23  C   UNL     1      -7.189 -11.803  18.227  0.00  0.00    +0.041 A 
ATOM     24  C   UNL     1      -7.514 -13.151  18.125  0.00  0.00    +0.016 A 
ATOM     25  C   UNL     1     -10.019 -14.420  21.437  0.00  0.00    +0.134 C 
ATOM     26  C   UNL     1     -11.408 -12.457  20.835  0.00  0.00    +0.134 C 
ATOM     27  C   UNL     1      -9.238 -12.803  19.726  0.00  0.00    +0.121 A 
ATOM     28  C   UNL     1      -7.932 -11.020  19.098  0.00  0.00    +0.124 A 
ATOM     29  C   UNL     1     -11.316 -15.155  21.757  0.00  0.00    +0.178 C 
ATOM     30  C   UNL     1     -12.630 -13.297  21.185  0.00  0.00    +0.178 C 
ATOM     31  C   UNL     1      -8.557 -13.668  18.886  0.00  0.00    +0.044 A 
ENDBRANCH  21  23
BRANCH  19  11
ATOM      4  N   UNL     1      -3.032 -10.367  14.377  0.00  0.00    -0.288 NA
ATOM     11  C   UNL     1      -3.125 -11.306  15.513  0.00  0.00    +0.146 C 
ATOM     12  C   UNL     1      -1.605 -10.136  14.151  0.00  0.00    +0.085 C 
ATOM     13  C   UNL     1      -1.856 -11.044  16.343  0.00  0.00    +0.030 C 
ATOM     16  C   UNL     1      -1.082  -9.989  15.565  0.00  0.00    +0.017 C 
BRANCH   4  10
ATOM      2  O   UNL     1      -4.455  -9.458   8.466  0.00  0.00    -0.276 OA
ATOM      5  N   UNL     1      -4.872 -10.344  10.573  0.00  0.00    -0.302 N 
ATOM     10  C   UNL     1      -3.708 -10.849  13.175  0.00  0.00    +0.060 C 
ATOM     14  C   UNL     1      -5.070 -10.158  13.024  0.00  0.00    +0.038 C 
ATOM     15  C   UNL     1      -2.835 -10.589  11.941  0.00  0.00    +0.038 C 
ATOM     17  C   UNL     1      -5.755 -10.575  11.724  0.00  0.00    +0.109 C 
ATOM     18  C   UNL     1      -3.564 -10.998  10.662  0.00  0.00    +0.109 C 
ATOM     20  C   UNL     1      -5.203  -9.607   9.436  0.00  0.00    +0.212 C 
ATOM     22  C   UNL     1      -6.566  -8.963   9.422  0.00  0.00    +0.109 C 
ENDBRANCH   4  10
ENDBRANCH  19  11
TORSDOF 3
ENDMDL
MODEL 9
REMARK VINA RESULT:      -7.3     27.927     32.443
REMARK  Name = 45783503
REMARK  4 active torsions:
REMARK  status: ('A' for Active; 'I' for Inactive)
REMARK    1  A    between atoms: N_4  and  C_10
REMARK    2  A    between atoms: C_11  and  C_19
REMARK    3  A    between atoms: C_20  and  C_22
REMARK    4  A    between atoms: C_21  and  C_23
REMARK                            x       y       z     vdW  Elec       q    Type
REMARK                         _______ _______ _______ _____ _____    ______ ____
ROOT
ATOM      1  O   UNL     1     -14.997   8.540  33.769  0.00  0.00    -0.336 OA
ATOM      6  N   UNL     1     -13.119   7.759  32.832  0.00  0.00    -0.190 NA
ATOM      7  N   UNL     1     -13.944   9.265  34.344  0.00  0.00    -0.056 NA
ATOM     19  C   UNL     1     -14.424   7.676  32.892  0.00  0.00    +0.245 A 
ATOM     21  C   UNL     1     -12.871   8.747  33.741  0.00  0.00    +0.204 A 
ENDROOT
BRANCH  21  23
ATOM      3  O   UNL     1      -5.206  11.428  35.745  0.00  0.00    -0.377 OA
ATOM      8  N   UNL     1      -7.713  10.455  34.926  0.00  0.00    -0.311 N 
ATOM      9  N   UNL     1      -9.801   9.614  35.653  0.00  0.00    -0.240 NA
ATOM     23  C   UNL     1     -11.537   9.193  34.023  0.00  0.00    +0.041 A 
ATOM     24  C   UNL     1     -10.695   9.623  33.004  0.00  0.00    +0.016 A 
ATOM     25  C   UNL     1      -7.304  11.823  34.591  0.00  0.00    +0.134 C 
ATOM     26  C   UNL     1      -7.029   9.864  36.085  0.00  0.00    +0.134 C 
ATOM     27  C   UNL     1      -9.012  10.025  34.636  0.00  0.00    +0.121 A 
ATOM     28  C   UNL     1     -11.047   9.207  35.320  0.00  0.00    +0.124 A 
ATOM     29  C   UNL     1      -5.782  11.905  34.530  0.00  0.00    +0.178 C 
ATOM     30  C   UNL     1      -5.522  10.050  35.943  0.00  0.00    +0.178 C 
ATOM     31  C   UNL     1      -9.406  10.049  33.309  0.00  0.00    +0.044 A 
ENDBRANCH  21  23
BRANCH  19  11
ATOM      4  N   UNL     1     -15.866   5.649  32.953  0.00  0.00    -0.288 NA
ATOM     11  C   UNL     1     -15.365   6.767  32.128  0.00  0.00    +0.146 C 
ATOM     12  C   UNL     1     -17.189   5.311  32.429  0.00  0.00    +0.085 C 
ATOM     13  C   UNL     1     -16.632   7.495  31.646  0.00  0.00    +0.030 C 
ATOM     16  C   UNL     1     -17.793   6.680  32.196  0.00  0.00    +0.017 C 
BRANCH   4  10
ATOM      2  O   UNL     1     -13.457   0.873  29.922  0.00  0.00    -0.276 OA
ATOM      5  N   UNL     1     -14.130   1.952  31.866  0.00  0.00    -0.302 N 
ATOM     10  C   UNL     1     -14.968   4.496  32.965  0.00  0.00    +0.060 C 
ATOM     14  C   UNL     1     -15.768   3.210  33.215  0.00  0.00    +0.038 C 
ATOM     15  C   UNL     1     -14.210   4.406  31.635  0.00  0.00    +0.038 C 
ATOM     17  C   UNL     1     -14.865   1.980  33.137  0.00  0.00    +0.109 C 
ATOM     18  C   UNL     1     -13.338   3.152  31.589  0.00  0.00    +0.109 C 
ATOM     20  C   UNL     1     -14.112   0.886  30.967  0.00  0.00    +0.212 C 
ATOM     22  C   UNL     1     -14.956  -0.312  31.323  0.00  0.00    +0.109 C 
ENDBRANCH   4  10
ENDBRANCH  19  11
TORSDOF 3
ENDMDL
MODEL 10
REMARK VINA RESULT:      -7.3      1.730      2.388
REMARK  Name = 45783503
REMARK  4 active torsions:
REMARK  status: ('A' for Active; 'I' for Inactive)
REMARK    1  A    between atoms: N_4  and  C_10
REMARK    2  A    between atoms: C_11  and  C_19
REMARK    3  A    between atoms: C_20  and  C_22
REMARK    4  A    between atoms: C_21  and  C_23
REMARK                            x       y       z     vdW  Elec       q    Type
REMARK                         _______ _______ _______ _____ _____    ______ ____
ROOT
ATOM      1  O   UNL     1      14.833   9.602  21.382  0.00  0.00    -0.336 OA
ATOM      6  N   UNL     1      15.764   8.289  19.825  0.00  0.00    -0.190 NA
ATOM      7  N   UNL     1      16.007   9.093  21.952  0.00  0.00    -0.056 NA
ATOM     19  C   UNL     1      14.766   9.079  20.130  0.00  0.00    +0.245 A 
ATOM     21  C   UNL     1      16.499   8.328  20.974  0.00  0.00    +0.204 A 
ENDROOT
BRANCH  21  23
ATOM      3  O   UNL     1      23.789   4.341  21.925  0.00  0.00    -0.377 OA
ATOM      8  N   UNL     1      21.263   5.524  21.577  0.00  0.00    -0.311 N 
ATOM      9  N   UNL     1      19.844   7.301  22.231  0.00  0.00    -0.240 NA
ATOM     23  C   UNL     1      17.721   7.590  21.111  0.00  0.00    +0.041 A 
ATOM     24  C   UNL     1      17.987   6.488  20.306  0.00  0.00    +0.016 A 
ATOM     25  C   UNL     1      22.193   5.416  20.447  0.00  0.00    +0.134 C 
ATOM     26  C   UNL     1      21.888   5.483  22.907  0.00  0.00    +0.134 C 
ATOM     27  C   UNL     1      20.068   6.235  21.431  0.00  0.00    +0.121 A 
ATOM     28  C   UNL     1      18.673   7.953  22.050  0.00  0.00    +0.124 A 
ATOM     29  C   UNL     1      23.131   4.234  20.664  0.00  0.00    +0.178 C 
ATOM     30  C   UNL     1      22.841   4.296  22.991  0.00  0.00    +0.178 C 
ATOM     31  C   UNL     1      19.181   5.792  20.463  0.00  0.00    +0.044 A 
ENDBRANCH  21  23
BRANCH  19  11
ATOM      4  N   UNL     1      13.717   9.106  17.873  0.00  0.00    -0.288 NA
ATOM     11  C   UNL     1      13.570   9.484  19.293  0.00  0.00    +0.146 C 
ATOM     12  C   UNL     1      12.363   8.881  17.364  0.00  0.00    +0.085 C 
ATOM     13  C   UNL     1      12.268   8.799  19.748  0.00  0.00    +0.030 C 
ATOM     16  C   UNL     1      11.724   8.113  18.503  0.00  0.00    +0.017 C 
BRANCH   4  10
ATOM      2  O   UNL     1      13.540  14.262  14.530  0.00  0.00    -0.276 OA
ATOM      5  N   UNL     1      14.461  12.206  15.100  0.00  0.00    -0.302 N 
ATOM     10  C   UNL     1      14.442  10.099  17.085  0.00  0.00    +0.060 C 
ATOM     14  C   UNL     1      14.293   9.794  15.588  0.00  0.00    +0.038 C 
ATOM     15  C   UNL     1      13.918  11.505  17.401  0.00  0.00    +0.038 C 
ATOM     17  C   UNL     1      14.964  10.874  14.740  0.00  0.00    +0.109 C 
ATOM     18  C   UNL     1      14.596  12.551  16.516  0.00  0.00    +0.109 C 
ATOM     20  C   UNL     1      13.923  13.134  14.208  0.00  0.00    +0.212 C 
ATOM     22  C   UNL     1      13.815  12.702  12.767  0.00  0.00    +0.109 C 
ENDBRANCH   4  10
ENDBRANCH  19  11
TORSDOF 3
ENDMDL
