MODEL 1
REMARK VINA RESULT:      -6.1      0.000      0.000
REMARK  Name = 75536806
REMARK  7 active torsions:
REMARK  status: ('A' for Active; 'I' for Inactive)
REMARK    1  A    between atoms: O_2  and  C_9
REMARK    2  A    between atoms: N_4  and  C_7
REMARK    3  A    between atoms: N_4  and  C_8
REMARK    4  A    between atoms: N_5  and  C_17
REMARK    5  A    between atoms: N_6  and  C_16
REMARK    6  A    between atoms: C_10  and  C_16
REMARK    7  A    between atoms: C_18  and  C_19
REMARK                            x       y       z     vdW  Elec       q    Type
REMARK                         _______ _______ _______ _____ _____    ______ ____
ROOT
ATOM      1  O   UNL     1      10.674   8.738  20.078  0.00  0.00    -0.371 OA
ATOM      7  C   UNL     1      12.332   7.177  19.404  0.00  0.00    +0.111 C 
ATOM      9  C   UNL     1      12.232   7.168  20.917  0.00  0.00    +0.164 C 
ATOM     10  C   UNL     1      10.846   7.766  21.122  0.00  0.00    +0.165 C 
ATOM     13  C   UNL     1      11.668   8.501  19.065  0.00  0.00    +0.181 C 
ENDROOT
BRANCH   9   2
ATOM      2  O   UNL     1      12.331   5.867  21.464  0.00  0.00    -0.388 OA
ATOM     21  H   UNL     1      12.328   5.941  22.433  0.00  0.00    +0.210 HD
ENDBRANCH   9   2
BRANCH   7   4
ATOM      4  N   UNL     1      13.697   7.086  18.909  0.00  0.00    -0.306 NA
ATOM     20  H   UNL     1      13.815   7.678  18.088  0.00  0.00    +0.123 HD
BRANCH   4   8
ATOM      5  N   UNL     1      17.390   8.149  20.727  0.00  0.00    -0.305 NA
ATOM      8  C   UNL     1      14.651   7.477  19.946  0.00  0.00    +0.056 C 
ATOM     11  C   UNL     1      15.736   6.410  20.123  0.00  0.00    +0.034 C 
ATOM     12  C   UNL     1      15.294   8.821  19.594  0.00  0.00    +0.034 C 
ATOM     14  C   UNL     1      16.796   6.867  21.129  0.00  0.00    +0.085 C 
ATOM     15  C   UNL     1      16.368   9.199  20.618  0.00  0.00    +0.085 C 
ATOM     17  C   UNL     1      18.435   8.546  21.670  0.00  0.00    +0.104 C 
ENDBRANCH   4   8
ENDBRANCH   7   4
BRANCH  10  16
ATOM     16  C   UNL     1      10.673   8.430  22.477  0.00  0.00    +0.138 C 
BRANCH  16   6
ATOM      3  O   UNL     1      10.500  11.080  23.650  0.00  0.00    -0.276 OA
ATOM      6  N   UNL     1      11.754   9.331  22.757  0.00  0.00    -0.313 N 
ATOM     18  C   UNL     1      11.578  10.588  23.324  0.00  0.00    +0.210 C 
ATOM     19  C   UNL     1      12.878  11.316  23.535  0.00  0.00    +0.109 C 
ATOM     22  H   UNL     1      12.694   9.026  22.524  0.00  0.00    +0.149 HD
ENDBRANCH  16   6
ENDBRANCH  10  16
TORSDOF 5
ENDMDL
MODEL 2
REMARK VINA RESULT:      -5.9      2.334      3.393
REMARK  Name = 75536806
REMARK  7 active torsions:
REMARK  status: ('A' for Active; 'I' for Inactive)
REMARK    1  A    between atoms: O_2  and  C_9
REMARK    2  A    between atoms: N_4  and  C_7
REMARK    3  A    between atoms: N_4  and  C_8
REMARK    4  A    between atoms: N_5  and  C_17
REMARK    5  A    between atoms: N_6  and  C_16
REMARK    6  A    between atoms: C_10  and  C_16
REMARK    7  A    between atoms: C_18  and  C_19
REMARK                            x       y       z     vdW  Elec       q    Type
REMARK                         _______ _______ _______ _____ _____    ______ ____
ROOT
ATOM      1  O   UNL     1      10.374   7.709  22.231  0.00  0.00    -0.371 OA
ATOM      7  C   UNL     1      12.479   7.021  21.373  0.00  0.00    +0.111 C 
ATOM      9  C   UNL     1      12.575   8.470  21.813  0.00  0.00    +0.164 C 
ATOM     10  C   UNL     1      11.396   8.562  22.773  0.00  0.00    +0.165 C 
ATOM     13  C   UNL     1      10.975   6.841  21.255  0.00  0.00    +0.181 C 
ENDROOT
BRANCH   9   2
ATOM      2  O   UNL     1      13.801   8.767  22.453  0.00  0.00    -0.388 OA
ATOM     21  H   UNL     1      13.662   9.529  23.040  0.00  0.00    +0.210 HD
ENDBRANCH   9   2
BRANCH   7   4
ATOM      4  N   UNL     1      13.182   6.742  20.130  0.00  0.00    -0.306 NA
ATOM     20  H   UNL     1      12.762   5.941  19.660  0.00  0.00    +0.123 HD
BRANCH   4   8
ATOM      5  N   UNL     1      13.762   9.116  16.652  0.00  0.00    -0.305 NA
ATOM      8  C   UNL     1      13.156   7.907  19.247  0.00  0.00    +0.056 C 
ATOM     11  C   UNL     1      14.576   8.327  18.853  0.00  0.00    +0.034 C 
ATOM     12  C   UNL     1      12.335   7.601  17.992  0.00  0.00    +0.034 C 
ATOM     14  C   UNL     1      14.546   9.476  17.842  0.00  0.00    +0.085 C 
ATOM     15  C   UNL     1      12.378   8.774  17.009  0.00  0.00    +0.085 C 
ATOM     17  C   UNL     1      13.786  10.204  15.675  0.00  0.00    +0.104 C 
ENDBRANCH   4   8
ENDBRANCH   7   4
BRANCH  10  16
ATOM     16  C   UNL     1      10.857   9.974  22.928  0.00  0.00    +0.138 C 
BRANCH  16   6
ATOM      3  O   UNL     1      10.086  12.267  24.532  0.00  0.00    -0.276 OA
ATOM      6  N   UNL     1      11.698  10.761  23.783  0.00  0.00    -0.313 N 
ATOM     18  C   UNL     1      11.241  11.848  24.519  0.00  0.00    +0.210 C 
ATOM     19  C   UNL     1      12.324  12.481  25.352  0.00  0.00    +0.109 C 
ATOM     22  H   UNL     1      12.678  10.505  23.846  0.00  0.00    +0.149 HD
ENDBRANCH  16   6
ENDBRANCH  10  16
TORSDOF 5
ENDMDL
MODEL 3
REMARK VINA RESULT:      -5.8      2.894      6.127
REMARK  Name = 75536806
REMARK  7 active torsions:
REMARK  status: ('A' for Active; 'I' for Inactive)
REMARK    1  A    between atoms: O_2  and  C_9
REMARK    2  A    between atoms: N_4  and  C_7
REMARK    3  A    between atoms: N_4  and  C_8
REMARK    4  A    between atoms: N_5  and  C_17
REMARK    5  A    between atoms: N_6  and  C_16
REMARK    6  A    between atoms: C_10  and  C_16
REMARK    7  A    between atoms: C_18  and  C_19
REMARK                            x       y       z     vdW  Elec       q    Type
REMARK                         _______ _______ _______ _____ _____    ______ ____
ROOT
ATOM      1  O   UNL     1      13.303   8.054  21.498  0.00  0.00    -0.371 OA
ATOM      7  C   UNL     1      11.353   8.960  22.508  0.00  0.00    +0.111 C 
ATOM      9  C   UNL     1      10.940   7.961  21.443  0.00  0.00    +0.164 C 
ATOM     10  C   UNL     1      12.214   7.137  21.305  0.00  0.00    +0.165 C 
ATOM     13  C   UNL     1      12.789   9.252  22.105  0.00  0.00    +0.181 C 
ENDROOT
BRANCH   9   2
ATOM      2  O   UNL     1       9.839   7.166  21.837  0.00  0.00    -0.388 OA
ATOM     21  H   UNL     1       9.667   6.513  21.138  0.00  0.00    +0.210 HD
ENDBRANCH   9   2
BRANCH   7   4
ATOM      4  N   UNL     1      10.521  10.152  22.543  0.00  0.00    -0.306 NA
ATOM     20  H   UNL     1       9.673   9.974  23.080  0.00  0.00    +0.123 HD
BRANCH   4   8
ATOM      5  N   UNL     1      11.223  13.866  24.487  0.00  0.00    -0.305 NA
ATOM      8  C   UNL     1      11.252  11.277  23.124  0.00  0.00    +0.056 C 
ATOM     11  C   UNL     1      10.920  12.582  22.393  0.00  0.00    +0.034 C 
ATOM     12  C   UNL     1      10.918  11.413  24.612  0.00  0.00    +0.034 C 
ATOM     14  C   UNL     1      11.598  13.777  23.069  0.00  0.00    +0.085 C 
ATOM     15  C   UNL     1      11.596  12.646  25.216  0.00  0.00    +0.085 C 
ATOM     17  C   UNL     1      11.838  15.041  25.105  0.00  0.00    +0.104 C 
ENDBRANCH   4   8
ENDBRANCH   7   4
BRANCH  10  16
ATOM     16  C   UNL     1      12.347   6.460  19.952  0.00  0.00    +0.138 C 
BRANCH  16   6
ATOM      3  O   UNL     1      11.292   7.929  17.681  0.00  0.00    -0.276 OA
ATOM      6  N   UNL     1      13.078   7.279  19.029  0.00  0.00    -0.313 N 
ATOM     18  C   UNL     1      12.487   7.950  17.964  0.00  0.00    +0.210 C 
ATOM     19  C   UNL     1      13.477   8.758  17.168  0.00  0.00    +0.109 C 
ATOM     22  H   UNL     1      14.080   7.366  19.167  0.00  0.00    +0.149 HD
ENDBRANCH  16   6
ENDBRANCH  10  16
TORSDOF 5
ENDMDL
MODEL 4
REMARK VINA RESULT:      -5.6     16.299     18.206
REMARK  Name = 75536806
REMARK  7 active torsions:
REMARK  status: ('A' for Active; 'I' for Inactive)
REMARK    1  A    between atoms: O_2  and  C_9
REMARK    2  A    between atoms: N_4  and  C_7
REMARK    3  A    between atoms: N_4  and  C_8
REMARK    4  A    between atoms: N_5  and  C_17
REMARK    5  A    between atoms: N_6  and  C_16
REMARK    6  A    between atoms: C_10  and  C_16
REMARK    7  A    between atoms: C_18  and  C_19
REMARK                            x       y       z     vdW  Elec       q    Type
REMARK                         _______ _______ _______ _____ _____    ______ ____
ROOT
ATOM      1  O   UNL     1      11.867   7.058   4.682  0.00  0.00    -0.371 OA
ATOM      7  C   UNL     1      10.800   5.251   3.569  0.00  0.00    +0.111 C 
ATOM      9  C   UNL     1      10.666   5.056   5.067  0.00  0.00    +0.164 C 
ATOM     10  C   UNL     1      10.897   6.476   5.568  0.00  0.00    +0.165 C 
ATOM     13  C   UNL     1      11.945   6.248   3.495  0.00  0.00    +0.181 C 
ENDROOT
BRANCH   9   2
ATOM      2  O   UNL     1       9.394   4.565   5.443  0.00  0.00    -0.388 OA
ATOM     21  H   UNL     1       8.743   5.277   5.320  0.00  0.00    +0.210 HD
ENDBRANCH   9   2
BRANCH   7   4
ATOM      4  N   UNL     1      11.074   4.021   2.843  0.00  0.00    -0.306 NA
ATOM     20  H   UNL     1      10.205   3.524   2.650  0.00  0.00    +0.123 HD
BRANCH   4   8
ATOM      5  N   UNL     1      12.573   3.458  -1.095  0.00  0.00    -0.305 NA
ATOM      8  C   UNL     1      11.775   4.302   1.591  0.00  0.00    +0.056 C 
ATOM     11  C   UNL     1      12.899   3.288   1.353  0.00  0.00    +0.034 C 
ATOM     12  C   UNL     1      10.792   4.277   0.417  0.00  0.00    +0.034 C 
ATOM     14  C   UNL     1      13.561   3.514  -0.009  0.00  0.00    +0.085 C 
ATOM     15  C   UNL     1      11.523   4.471  -0.914  0.00  0.00    +0.085 C 
ATOM     17  C   UNL     1      13.228   3.625  -2.392  0.00  0.00    +0.104 C 
ENDBRANCH   4   8
ENDBRANCH   7   4
BRANCH  10  16
ATOM     16  C   UNL     1      11.408   6.532   6.997  0.00  0.00    +0.138 C 
BRANCH  16   6
ATOM      3  O   UNL     1       9.027   6.525   8.657  0.00  0.00    -0.276 OA
ATOM      6  N   UNL     1      10.894   5.445   7.778  0.00  0.00    -0.313 N 
ATOM     18  C   UNL     1       9.739   5.530   8.547  0.00  0.00    +0.210 C 
ATOM     19  C   UNL     1       9.411   4.238   9.245  0.00  0.00    +0.109 C 
ATOM     22  H   UNL     1      11.409   4.569   7.763  0.00  0.00    +0.149 HD
ENDBRANCH  16   6
ENDBRANCH  10  16
TORSDOF 5
ENDMDL
MODEL 5
REMARK VINA RESULT:      -5.6     25.977     27.601
REMARK  Name = 75536806
REMARK  7 active torsions:
REMARK  status: ('A' for Active; 'I' for Inactive)
REMARK    1  A    between atoms: O_2  and  C_9
REMARK    2  A    between atoms: N_4  and  C_7
REMARK    3  A    between atoms: N_4  and  C_8
REMARK    4  A    between atoms: N_5  and  C_17
REMARK    5  A    between atoms: N_6  and  C_16
REMARK    6  A    between atoms: C_10  and  C_16
REMARK    7  A    between atoms: C_18  and  C_19
REMARK                            x       y       z     vdW  Elec       q    Type
REMARK                         _______ _______ _______ _____ _____    ______ ____
ROOT
ATOM      1  O   UNL     1      -3.936 -10.301  14.026  0.00  0.00    -0.371 OA
ATOM      7  C   UNL     1      -3.261 -10.872  16.230  0.00  0.00    +0.111 C 
ATOM      9  C   UNL     1      -2.258 -11.439  15.244  0.00  0.00    +0.164 C 
ATOM     10  C   UNL     1      -2.524 -10.569  14.023  0.00  0.00    +0.165 C 
ATOM     13  C   UNL     1      -4.457 -10.615  15.329  0.00  0.00    +0.181 C 
ENDROOT
BRANCH   9   2
ATOM      2  O   UNL     1      -0.922 -11.321  15.694  0.00  0.00    -0.388 OA
ATOM     21  H   UNL     1      -0.701 -12.116  16.207  0.00  0.00    +0.210 HD
ENDBRANCH   9   2
BRANCH   7   4
ATOM      4  N   UNL     1      -3.566 -11.770  17.333  0.00  0.00    -0.306 NA
ATOM     20  H   UNL     1      -3.027 -11.512  18.158  0.00  0.00    +0.123 HD
BRANCH   4   8
ATOM      5  N   UNL     1      -7.207 -12.516  19.396  0.00  0.00    -0.305 NA
ATOM      8  C   UNL     1      -4.994 -11.743  17.644  0.00  0.00    +0.056 C 
ATOM     11  C   UNL     1      -5.582 -13.158  17.643  0.00  0.00    +0.034 C 
ATOM     12  C   UNL     1      -5.228 -11.082  19.005  0.00  0.00    +0.034 C 
ATOM     14  C   UNL     1      -7.050 -13.142  18.076  0.00  0.00    +0.085 C 
ATOM     15  C   UNL     1      -6.708 -11.134  19.393  0.00  0.00    +0.085 C 
ATOM     17  C   UNL     1      -8.607 -12.554  19.817  0.00  0.00    +0.104 C 
ENDBRANCH   4   8
ENDBRANCH   7   4
BRANCH  10  16
ATOM     16  C   UNL     1      -2.130 -11.233  12.715  0.00  0.00    +0.138 C 
BRANCH  16   6
ATOM      3  O   UNL     1      -1.527  -9.082  10.861  0.00  0.00    -0.276 OA
ATOM      6  N   UNL     1      -2.942 -10.766  11.628  0.00  0.00    -0.313 N 
ATOM     18  C   UNL     1      -2.571  -9.724  10.786  0.00  0.00    +0.210 C 
ATOM     19  C   UNL     1      -3.593  -9.454   9.714  0.00  0.00    +0.109 C 
ATOM     22  H   UNL     1      -3.834 -11.226  11.475  0.00  0.00    +0.149 HD
ENDBRANCH  16   6
ENDBRANCH  10  16
TORSDOF 5
ENDMDL
MODEL 6
REMARK VINA RESULT:      -5.6      2.702      4.884
REMARK  Name = 75536806
REMARK  7 active torsions:
REMARK  status: ('A' for Active; 'I' for Inactive)
REMARK    1  A    between atoms: O_2  and  C_9
REMARK    2  A    between atoms: N_4  and  C_7
REMARK    3  A    between atoms: N_4  and  C_8
REMARK    4  A    between atoms: N_5  and  C_17
REMARK    5  A    between atoms: N_6  and  C_16
REMARK    6  A    between atoms: C_10  and  C_16
REMARK    7  A    between atoms: C_18  and  C_19
REMARK                            x       y       z     vdW  Elec       q    Type
REMARK                         _______ _______ _______ _____ _____    ______ ____
ROOT
ATOM      1  O   UNL     1      15.811   6.248  19.200  0.00  0.00    -0.371 OA
ATOM      7  C   UNL     1      17.028   6.683  21.193  0.00  0.00    +0.111 C 
ATOM      9  C   UNL     1      15.602   7.173  21.367  0.00  0.00    +0.164 C 
ATOM     10  C   UNL     1      14.884   6.370  20.291  0.00  0.00    +0.165 C 
ATOM     13  C   UNL     1      17.127   6.576  19.680  0.00  0.00    +0.181 C 
ENDROOT
BRANCH   9   2
ATOM      2  O   UNL     1      15.086   6.905  22.657  0.00  0.00    -0.388 OA
ATOM     21  H   UNL     1      15.692   6.294  23.107  0.00  0.00    +0.210 HD
ENDBRANCH   9   2
BRANCH   7   4
ATOM      4  N   UNL     1      18.024   7.576  21.763  0.00  0.00    -0.306 NA
ATOM     20  H   UNL     1      18.043   7.481  22.778  0.00  0.00    +0.123 HD
BRANCH   4   8
ATOM      5  N   UNL     1      22.250   7.156  21.572  0.00  0.00    -0.305 NA
ATOM      8  C   UNL     1      19.349   7.293  21.213  0.00  0.00    +0.056 C 
ATOM     11  C   UNL     1      20.230   8.546  21.235  0.00  0.00    +0.034 C 
ATOM     12  C   UNL     1      20.022   6.168  22.004  0.00  0.00    +0.034 C 
ATOM     14  C   UNL     1      21.651   8.226  20.763  0.00  0.00    +0.085 C 
ATOM     15  C   UNL     1      21.449   5.925  21.507  0.00  0.00    +0.085 C 
ATOM     17  C   UNL     1      23.623   6.897  21.141  0.00  0.00    +0.104 C 
ENDBRANCH   4   8
ENDBRANCH   7   4
BRANCH  10  16
ATOM     16  C   UNL     1      13.604   7.028  19.805  0.00  0.00    +0.138 C 
BRANCH  16   6
ATOM      3  O   UNL     1      10.933   8.155  19.648  0.00  0.00    -0.276 OA
ATOM      6  N   UNL     1      12.623   7.093  20.849  0.00  0.00    -0.313 N 
ATOM     18  C   UNL     1      11.361   7.653  20.684  0.00  0.00    +0.210 C 
ATOM     19  C   UNL     1      10.521   7.568  21.930  0.00  0.00    +0.109 C 
ATOM     22  H   UNL     1      12.872   6.708  21.755  0.00  0.00    +0.149 HD
ENDBRANCH  16   6
ENDBRANCH  10  16
TORSDOF 5
ENDMDL
MODEL 7
REMARK VINA RESULT:      -5.3     25.772     27.109
REMARK  Name = 75536806
REMARK  7 active torsions:
REMARK  status: ('A' for Active; 'I' for Inactive)
REMARK    1  A    between atoms: O_2  and  C_9
REMARK    2  A    between atoms: N_4  and  C_7
REMARK    3  A    between atoms: N_4  and  C_8
REMARK    4  A    between atoms: N_5  and  C_17
REMARK    5  A    between atoms: N_6  and  C_16
REMARK    6  A    between atoms: C_10  and  C_16
REMARK    7  A    between atoms: C_18  and  C_19
REMARK                            x       y       z     vdW  Elec       q    Type
REMARK                         _______ _______ _______ _____ _____    ______ ____
ROOT
ATOM      1  O   UNL     1      -3.608 -12.499  15.526  0.00  0.00    -0.371 OA
ATOM      7  C   UNL     1      -1.932 -11.926  13.944  0.00  0.00    +0.111 C 
ATOM      9  C   UNL     1      -2.506 -10.654  14.538  0.00  0.00    +0.164 C 
ATOM     10  C   UNL     1      -3.116 -11.183  15.829  0.00  0.00    +0.165 C 
ATOM     13  C   UNL     1      -3.014 -12.935  14.291  0.00  0.00    +0.181 C 
ENDROOT
BRANCH   9   2
ATOM      2  O   UNL     1      -1.518  -9.672  14.786  0.00  0.00    -0.388 OA
ATOM     21  H   UNL     1      -0.881 -10.034  15.425  0.00  0.00    +0.210 HD
ENDBRANCH   9   2
BRANCH   7   4
ATOM      4  N   UNL     1      -1.678 -11.838  12.514  0.00  0.00    -0.306 NA
ATOM     20  H   UNL     1      -1.568 -12.771  12.118  0.00  0.00    +0.123 HD
BRANCH   4   8
ATOM      5  N   UNL     1      -3.979 -10.160   9.359  0.00  0.00    -0.305 NA
ATOM      8  C   UNL     1      -2.766 -11.135  11.837  0.00  0.00    +0.056 C 
ATOM     11  C   UNL     1      -2.244  -9.895  11.104  0.00  0.00    +0.034 C 
ATOM     12  C   UNL     1      -3.466 -12.070  10.847  0.00  0.00    +0.034 C 
ATOM     14  C   UNL     1      -3.361  -9.220  10.305  0.00  0.00    +0.085 C 
ATOM     15  C   UNL     1      -4.543 -11.324  10.055  0.00  0.00    +0.085 C 
ATOM     17  C   UNL     1      -5.008  -9.487   8.568  0.00  0.00    +0.104 C 
ENDBRANCH   4   8
ENDBRANCH   7   4
BRANCH  10  16
ATOM     16  C   UNL     1      -4.249 -10.320  16.357  0.00  0.00    +0.138 C 
BRANCH  16   6
ATOM      3  O   UNL     1      -6.877 -10.167  17.581  0.00  0.00    -0.276 OA
ATOM      6  N   UNL     1      -4.610 -10.694  17.693  0.00  0.00    -0.313 N 
ATOM     18  C   UNL     1      -5.902 -10.587  18.198  0.00  0.00    +0.210 C 
ATOM     19  C   UNL     1      -6.010 -11.072  19.619  0.00  0.00    +0.109 C 
ATOM     22  H   UNL     1      -3.877 -11.053  18.297  0.00  0.00    +0.149 HD
ENDBRANCH  16   6
ENDBRANCH  10  16
TORSDOF 5
ENDMDL
MODEL 8
REMARK VINA RESULT:      -5.3     25.376     27.483
REMARK  Name = 75536806
REMARK  7 active torsions:
REMARK  status: ('A' for Active; 'I' for Inactive)
REMARK    1  A    between atoms: O_2  and  C_9
REMARK    2  A    between atoms: N_4  and  C_7
REMARK    3  A    between atoms: N_4  and  C_8
REMARK    4  A    between atoms: N_5  and  C_17
REMARK    5  A    between atoms: N_6  and  C_16
REMARK    6  A    between atoms: C_10  and  C_16
REMARK    7  A    between atoms: C_18  and  C_19
REMARK                            x       y       z     vdW  Elec       q    Type
REMARK                         _______ _______ _______ _____ _____    ______ ____
ROOT
ATOM      1  O   UNL     1      -1.242 -11.146  14.626  0.00  0.00    -0.371 OA
ATOM      7  C   UNL     1      -3.353 -10.865  15.678  0.00  0.00    +0.111 C 
ATOM      9  C   UNL     1      -3.521 -10.692  14.181  0.00  0.00    +0.164 C 
ATOM     10  C   UNL     1      -2.278 -11.403  13.663  0.00  0.00    +0.165 C 
ATOM     13  C   UNL     1      -1.854 -10.671  15.838  0.00  0.00    +0.181 C 
ENDROOT
BRANCH   9   2
ATOM      2  O   UNL     1      -4.709 -11.285  13.692  0.00  0.00    -0.388 OA
ATOM     21  H   UNL     1      -4.510 -11.713  12.843  0.00  0.00    +0.210 HD
ENDBRANCH   9   2
BRANCH   7   4
ATOM      4  N   UNL     1      -4.132  -9.922  16.465  0.00  0.00    -0.306 NA
ATOM     20  H   UNL     1      -4.411  -9.129  15.889  0.00  0.00    +0.123 HD
BRANCH   4   8
ATOM      5  N   UNL     1      -7.637 -10.472  18.807  0.00  0.00    -0.305 NA
ATOM      8  C   UNL     1      -5.316 -10.570  17.027  0.00  0.00    +0.056 C 
ATOM     11  C   UNL     1      -5.188 -10.722  18.546  0.00  0.00    +0.034 C 
ATOM     12  C   UNL     1      -6.573  -9.763  16.687  0.00  0.00    +0.034 C 
ATOM     14  C   UNL     1      -6.472 -11.299  19.149  0.00  0.00    +0.085 C 
ATOM     15  C   UNL     1      -7.811 -10.372  17.351  0.00  0.00    +0.085 C 
ATOM     17  C   UNL     1      -8.846 -11.008  19.432  0.00  0.00    +0.104 C 
ENDBRANCH   4   8
ENDBRANCH   7   4
BRANCH  10  16
ATOM     16  C   UNL     1      -1.836 -10.920  12.292  0.00  0.00    +0.138 C 
BRANCH  16   6
ATOM      3  O   UNL     1      -3.544 -11.122   9.953  0.00  0.00    -0.276 OA
ATOM      6  N   UNL     1      -2.731  -9.923  11.778  0.00  0.00    -0.313 N 
ATOM     18  C   UNL     1      -3.516 -10.108  10.646  0.00  0.00    +0.210 C 
ATOM     19  C   UNL     1      -4.382  -8.915  10.341  0.00  0.00    +0.109 C 
ATOM     22  H   UNL     1      -2.787  -9.039  12.274  0.00  0.00    +0.149 HD
ENDBRANCH  16   6
ENDBRANCH  10  16
TORSDOF 5
ENDMDL
MODEL 9
REMARK VINA RESULT:      -5.3      3.852      5.709
REMARK  Name = 75536806
REMARK  7 active torsions:
REMARK  status: ('A' for Active; 'I' for Inactive)
REMARK    1  A    between atoms: O_2  and  C_9
REMARK    2  A    between atoms: N_4  and  C_7
REMARK    3  A    between atoms: N_4  and  C_8
REMARK    4  A    between atoms: N_5  and  C_17
REMARK    5  A    between atoms: N_6  and  C_16
REMARK    6  A    between atoms: C_10  and  C_16
REMARK    7  A    between atoms: C_18  and  C_19
REMARK                            x       y       z     vdW  Elec       q    Type
REMARK                         _______ _______ _______ _____ _____    ______ ____
ROOT
ATOM      1  O   UNL     1      16.246   5.847  18.841  0.00  0.00    -0.371 OA
ATOM      7  C   UNL     1      18.124   6.163  20.261  0.00  0.00    +0.111 C 
ATOM      9  C   UNL     1      17.158   7.317  20.455  0.00  0.00    +0.164 C 
ATOM     10  C   UNL     1      15.866   6.709  19.926  0.00  0.00    +0.165 C 
ATOM     13  C   UNL     1      17.662   5.604  18.926  0.00  0.00    +0.181 C 
ENDROOT
BRANCH   9   2
ATOM      2  O   UNL     1      17.041   7.710  21.809  0.00  0.00    -0.388 OA
ATOM     21  H   UNL     1      16.546   7.023  22.285  0.00  0.00    +0.210 HD
ENDBRANCH   9   2
BRANCH   7   4
ATOM      4  N   UNL     1      19.521   6.567  20.252  0.00  0.00    -0.306 NA
ATOM     20  H   UNL     1      19.602   7.560  20.466  0.00  0.00    +0.123 HD
BRANCH   4   8
ATOM      5  N   UNL     1      22.860   4.692  22.096  0.00  0.00    -0.305 NA
ATOM      8  C   UNL     1      20.293   5.786  21.218  0.00  0.00    +0.056 C 
ATOM     11  C   UNL     1      20.934   4.567  20.547  0.00  0.00    +0.034 C 
ATOM     12  C   UNL     1      21.375   6.658  21.860  0.00  0.00    +0.034 C 
ATOM     14  C   UNL     1      21.831   3.810  21.530  0.00  0.00    +0.085 C 
ATOM     15  C   UNL     1      22.257   5.832  22.800  0.00  0.00    +0.085 C 
ATOM     17  C   UNL     1      23.740   3.942  22.993  0.00  0.00    +0.104 C 
ENDBRANCH   4   8
ENDBRANCH   7   4
BRANCH  10  16
ATOM     16  C   UNL     1      14.871   7.746  19.434  0.00  0.00    +0.138 C 
BRANCH  16   6
ATOM      3  O   UNL     1      14.247   8.729  22.094  0.00  0.00    -0.276 OA
ATOM      6  N   UNL     1      13.622   7.641  20.130  0.00  0.00    -0.313 N 
ATOM     18  C   UNL     1      13.411   8.145  21.409  0.00  0.00    +0.210 C 
ATOM     19  C   UNL     1      12.003   7.923  21.894  0.00  0.00    +0.109 C 
ATOM     22  H   UNL     1      12.856   7.172  19.657  0.00  0.00    +0.149 HD
ENDBRANCH  16   6
ENDBRANCH  10  16
TORSDOF 5
ENDMDL
MODEL 10
REMARK VINA RESULT:      -5.2      4.486      6.792
REMARK  Name = 75536806
REMARK  7 active torsions:
REMARK  status: ('A' for Active; 'I' for Inactive)
REMARK    1  A    between atoms: O_2  and  C_9
REMARK    2  A    between atoms: N_4  and  C_7
REMARK    3  A    between atoms: N_4  and  C_8
REMARK    4  A    between atoms: N_5  and  C_17
REMARK    5  A    between atoms: N_6  and  C_16
REMARK    6  A    between atoms: C_10  and  C_16
REMARK    7  A    between atoms: C_18  and  C_19
REMARK                            x       y       z     vdW  Elec       q    Type
REMARK                         _______ _______ _______ _____ _____    ______ ____
ROOT
ATOM      1  O   UNL     1      17.694   7.199  21.426  0.00  0.00    -0.371 OA
ATOM      7  C   UNL     1      19.227   5.987  20.076  0.00  0.00    +0.111 C 
ATOM      9  C   UNL     1      17.812   5.625  19.664  0.00  0.00    +0.164 C 
ATOM     10  C   UNL     1      17.035   6.817  20.207  0.00  0.00    +0.165 C 
ATOM     13  C   UNL     1      18.995   6.587  21.453  0.00  0.00    +0.181 C 
ENDROOT
BRANCH   9   2
ATOM      2  O   UNL     1      17.668   5.496  18.263  0.00  0.00    -0.388 OA
ATOM     21  H   UNL     1      16.887   6.005  17.988  0.00  0.00    +0.210 HD
ENDBRANCH   9   2
BRANCH   7   4
ATOM      4  N   UNL     1      20.136   4.852  20.099  0.00  0.00    -0.306 NA
ATOM     20  H   UNL     1      20.536   4.702  19.174  0.00  0.00    +0.123 HD
BRANCH   4   8
ATOM      5  N   UNL     1      23.982   4.653  21.898  0.00  0.00    -0.305 NA
ATOM      8  C   UNL     1      21.204   5.064  21.074  0.00  0.00    +0.056 C 
ATOM     11  C   UNL     1      21.700   3.729  21.641  0.00  0.00    +0.034 C 
ATOM     12  C   UNL     1      22.368   5.821  20.429  0.00  0.00    +0.034 C 
ATOM     14  C   UNL     1      22.892   3.941  22.579  0.00  0.00    +0.085 C 
ATOM     15  C   UNL     1      23.538   5.964  21.407  0.00  0.00    +0.085 C 
ATOM     17  C   UNL     1      25.131   4.802  22.791  0.00  0.00    +0.104 C 
ENDBRANCH   4   8
ENDBRANCH   7   4
BRANCH  10  16
ATOM     16  C   UNL     1      15.576   6.504  20.488  0.00  0.00    +0.138 C 
BRANCH  16   6
ATOM      3  O   UNL     1      12.684   6.761  20.475  0.00  0.00    -0.276 OA
ATOM      6  N   UNL     1      14.740   6.886  19.386  0.00  0.00    -0.313 N 
ATOM     18  C   UNL     1      13.355   6.984  19.471  0.00  0.00    +0.210 C 
ATOM     19  C   UNL     1      12.726   7.428  18.178  0.00  0.00    +0.109 C 
ATOM     22  H   UNL     1      15.192   7.092  18.501  0.00  0.00    +0.149 HD
ENDBRANCH  16   6
ENDBRANCH  10  16
TORSDOF 5
ENDMDL
