MODEL 1
REMARK VINA RESULT:      -6.6      0.000      0.000
REMARK  Name = 11885943
REMARK  9 active torsions:
REMARK  status: ('A' for Active; 'I' for Inactive)
REMARK    1  A    between atoms: O_3  and  C_13
REMARK    2  A    between atoms: O_3  and  C_17
REMARK    3  A    between atoms: O_6  and  C_26
REMARK    4  A    between atoms: O_6  and  C_27
REMARK    5  A    between atoms: N_8  and  C_12
REMARK    6  A    between atoms: N_9  and  C_21
REMARK    7  A    between atoms: C_16  and  C_18
REMARK    8  A    between atoms: C_21  and  C_25
REMARK    9  A    between atoms: C_22  and  C_26
REMARK                            x       y       z     vdW  Elec       q    Type
REMARK                         _______ _______ _______ _____ _____    ______ ____
ROOT
ATOM      1  O   UNL     1      12.587   7.752  21.995  0.00  0.00    -0.368 OA
ATOM      2  O   UNL     1      12.132   8.048  18.976  0.00  0.00    -0.368 OA
ATOM     10  C   UNL     1      13.303   8.260  19.792  0.00  0.00    +0.173 C 
ATOM     11  C   UNL     1      12.825   8.853  21.102  0.00  0.00    +0.192 C 
ATOM     12  C   UNL     1      13.904   6.933  20.192  0.00  0.00    +0.130 C 
ATOM     13  C   UNL     1      11.539   9.536  20.701  0.00  0.00    +0.235 C 
ATOM     14  C   UNL     1      13.046   6.537  21.382  0.00  0.00    +0.185 C 
ATOM     15  C   UNL     1      10.991   8.593  19.653  0.00  0.00    +0.207 C 
ENDROOT
BRANCH  12   8
ATOM      4  O   UNL     1      16.179   5.846  18.818  0.00  0.00    -0.270 OA
ATOM      8  N   UNL     1      15.289   7.079  20.569  0.00  0.00    -0.304 N 
ATOM     16  C   UNL     1      16.324   6.513  19.839  0.00  0.00    +0.244 C 
ATOM     28  H   UNL     1      15.479   7.522  21.462  0.00  0.00    +0.149 HD
BRANCH  16  18
ATOM     18  C   UNL     1      17.694   6.733  20.375  0.00  0.00    +0.037 A 
ATOM     19  C   UNL     1      18.687   5.776  20.163  0.00  0.00    +0.028 A 
ATOM     20  C   UNL     1      17.985   7.894  21.089  0.00  0.00    +0.013 A 
ATOM     22  C   UNL     1      19.971   5.982  20.666  0.00  0.00    +0.060 A 
ATOM     23  C   UNL     1      19.270   8.100  21.591  0.00  0.00    +0.002 A 
ATOM     24  C   UNL     1      20.263   7.144  21.380  0.00  0.00    +0.015 A 
BRANCH  22  26
ATOM      7  O   UNL     1      20.814   3.762  20.456  0.00  0.00    -0.245 OA
ATOM     26  C   UNL     1      21.007   4.985  20.446  0.00  0.00    +0.339 C 
BRANCH  26   6
ATOM      6  O   UNL     1      22.226   5.566  20.224  0.00  0.00    -0.464 OA
ATOM     27  C   UNL     1      23.340   5.024  20.943  0.00  0.00    +0.280 C 
ENDBRANCH  26   6
ENDBRANCH  22  26
ENDBRANCH  16  18
ENDBRANCH  12   8
BRANCH  13   3
ATOM      3  O   UNL     1      10.641   9.720  21.772  0.00  0.00    -0.442 OA
BRANCH   3  17
ATOM      5  O   UNL     1      11.127  10.586  23.843  0.00  0.00    -0.226 OA
ATOM      9  N   UNL     1      10.940  11.955  21.980  0.00  0.00    -0.281 N 
ATOM     17  C   UNL     1      10.922  10.746  22.644  0.00  0.00    +0.401 C 
ATOM     29  H   UNL     1      10.748  11.954  20.982  0.00  0.00    +0.152 HD
BRANCH   9  21
ATOM     21  C   UNL     1      11.207  13.221  22.623  0.00  0.00    +0.104 C 
ATOM     25  C   UNL     1      11.006  14.381  21.670  0.00  0.00    +0.024 C 
ENDBRANCH   9  21
ENDBRANCH   3  17
ENDBRANCH  13   3
TORSDOF 7
ENDMDL
MODEL 2
REMARK VINA RESULT:      -6.5     26.511     29.551
REMARK  Name = 11885943
REMARK  9 active torsions:
REMARK  status: ('A' for Active; 'I' for Inactive)
REMARK    1  A    between atoms: O_3  and  C_13
REMARK    2  A    between atoms: O_3  and  C_17
REMARK    3  A    between atoms: O_6  and  C_26
REMARK    4  A    between atoms: O_6  and  C_27
REMARK    5  A    between atoms: N_8  and  C_12
REMARK    6  A    between atoms: N_9  and  C_21
REMARK    7  A    between atoms: C_16  and  C_18
REMARK    8  A    between atoms: C_21  and  C_25
REMARK    9  A    between atoms: C_22  and  C_26
REMARK                            x       y       z     vdW  Elec       q    Type
REMARK                         _______ _______ _______ _____ _____    ______ ____
ROOT
ATOM      1  O   UNL     1      -4.075 -12.109  14.422  0.00  0.00    -0.368 OA
ATOM      2  O   UNL     1      -2.102 -10.891  16.430  0.00  0.00    -0.368 OA
ATOM     10  C   UNL     1      -3.493 -10.609  16.164  0.00  0.00    +0.173 C 
ATOM     11  C   UNL     1      -3.692 -10.745  14.668  0.00  0.00    +0.192 C 
ATOM     12  C   UNL     1      -4.363 -11.698  16.746  0.00  0.00    +0.130 C 
ATOM     13  C   UNL     1      -2.314 -10.446  14.128  0.00  0.00    +0.235 C 
ATOM     14  C   UNL     1      -4.291 -12.774  15.677  0.00  0.00    +0.185 C 
ATOM     15  C   UNL     1      -1.418 -11.060  15.181  0.00  0.00    +0.207 C 
ENDROOT
BRANCH  12   8
ATOM      4  O   UNL     1      -5.501 -10.687  19.182  0.00  0.00    -0.270 OA
ATOM      8  N   UNL     1      -5.717 -11.240  16.939  0.00  0.00    -0.304 N 
ATOM     16  C   UNL     1      -6.178 -10.766  18.159  0.00  0.00    +0.244 C 
ATOM     28  H   UNL     1      -6.364 -11.379  16.170  0.00  0.00    +0.149 HD
BRANCH  16  18
ATOM     18  C   UNL     1      -7.606 -10.356  18.201  0.00  0.00    +0.037 A 
ATOM     19  C   UNL     1      -8.086  -9.409  17.295  0.00  0.00    +0.028 A 
ATOM     20  C   UNL     1      -8.465 -10.918  19.145  0.00  0.00    +0.013 A 
ATOM     22  C   UNL     1      -9.427  -9.025  17.336  0.00  0.00    +0.060 A 
ATOM     23  C   UNL     1      -9.805 -10.533  19.184  0.00  0.00    +0.002 A 
ATOM     24  C   UNL     1     -10.286  -9.587  18.279  0.00  0.00    +0.015 A 
BRANCH  22  26
ATOM      7  O   UNL     1      -9.732  -8.075  15.171  0.00  0.00    -0.245 OA
ATOM     26  C   UNL     1      -9.929  -8.038  16.392  0.00  0.00    +0.339 C 
BRANCH  26   6
ATOM      6  O   UNL     1     -10.648  -7.060  17.022  0.00  0.00    -0.464 OA
ATOM     27  C   UNL     1     -11.272  -6.077  16.188  0.00  0.00    +0.280 C 
ENDBRANCH  26   6
ENDBRANCH  22  26
ENDBRANCH  16  18
ENDBRANCH  12   8
BRANCH  13   3
ATOM      3  O   UNL     1      -2.080 -10.991  12.849  0.00  0.00    -0.442 OA
BRANCH   3  17
ATOM      5  O   UNL     1      -0.957  -9.470  11.543  0.00  0.00    -0.226 OA
ATOM      9  N   UNL     1      -3.171 -10.018  11.119  0.00  0.00    -0.281 N 
ATOM     17  C   UNL     1      -1.978 -10.097  11.807  0.00  0.00    +0.401 C 
ATOM     29  H   UNL     1      -3.947 -10.588  11.443  0.00  0.00    +0.152 HD
BRANCH   9  21
ATOM     21  C   UNL     1      -3.381  -9.166   9.972  0.00  0.00    +0.104 C 
ATOM     25  C   UNL     1      -4.829  -8.733   9.860  0.00  0.00    +0.024 C 
ENDBRANCH   9  21
ENDBRANCH   3  17
ENDBRANCH  13   3
TORSDOF 7
ENDMDL
MODEL 3
REMARK VINA RESULT:      -6.4     14.329     15.682
REMARK  Name = 11885943
REMARK  9 active torsions:
REMARK  status: ('A' for Active; 'I' for Inactive)
REMARK    1  A    between atoms: O_3  and  C_13
REMARK    2  A    between atoms: O_3  and  C_17
REMARK    3  A    between atoms: O_6  and  C_26
REMARK    4  A    between atoms: O_6  and  C_27
REMARK    5  A    between atoms: N_8  and  C_12
REMARK    6  A    between atoms: N_9  and  C_21
REMARK    7  A    between atoms: C_16  and  C_18
REMARK    8  A    between atoms: C_21  and  C_25
REMARK    9  A    between atoms: C_22  and  C_26
REMARK                            x       y       z     vdW  Elec       q    Type
REMARK                         _______ _______ _______ _____ _____    ______ ____
ROOT
ATOM      1  O   UNL     1      13.545   7.142   4.944  0.00  0.00    -0.368 OA
ATOM      2  O   UNL     1      12.681   9.266   6.980  0.00  0.00    -0.368 OA
ATOM     10  C   UNL     1      13.889   8.483   6.869  0.00  0.00    +0.173 C 
ATOM     11  C   UNL     1      13.478   7.109   6.380  0.00  0.00    +0.192 C 
ATOM     12  C   UNL     1      14.754   9.022   5.754  0.00  0.00    +0.130 C 
ATOM     13  C   UNL     1      12.055   7.000   6.871  0.00  0.00    +0.235 C 
ATOM     14  C   UNL     1      14.130   8.385   4.525  0.00  0.00    +0.185 C 
ATOM     15  C   UNL     1      11.554   8.418   6.717  0.00  0.00    +0.207 C 
ENDROOT
BRANCH  12   8
ATOM      4  O   UNL     1      17.068  10.317   4.652  0.00  0.00    -0.270 OA
ATOM      8  N   UNL     1      16.128   8.614   5.915  0.00  0.00    -0.304 N 
ATOM     16  C   UNL     1      17.185   9.307   5.341  0.00  0.00    +0.244 C 
ATOM     28  H   UNL     1      16.294   7.727   6.378  0.00  0.00    +0.149 HD
BRANCH  16  18
ATOM     18  C   UNL     1      18.539   8.743   5.579  0.00  0.00    +0.037 A 
ATOM     19  C   UNL     1      19.209   8.080   4.551  0.00  0.00    +0.028 A 
ATOM     20  C   UNL     1      19.139   8.877   6.831  0.00  0.00    +0.013 A 
ATOM     22  C   UNL     1      20.480   7.550   4.776  0.00  0.00    +0.060 A 
ATOM     23  C   UNL     1      20.410   8.348   7.055  0.00  0.00    +0.002 A 
ATOM     24  C   UNL     1      21.081   7.685   6.027  0.00  0.00    +0.015 A 
BRANCH  22  26
ATOM      7  O   UNL     1      22.034   5.980   3.880  0.00  0.00    -0.245 OA
ATOM     26  C   UNL     1      21.179   6.858   3.704  0.00  0.00    +0.339 C 
BRANCH  26   6
ATOM      6  O   UNL     1      20.775   7.297   2.474  0.00  0.00    -0.464 OA
ATOM     27  C   UNL     1      21.728   7.207   1.409  0.00  0.00    +0.280 C 
ENDBRANCH  26   6
ENDBRANCH  22  26
ENDBRANCH  16  18
ENDBRANCH  12   8
BRANCH  13   3
ATOM      3  O   UNL     1      11.276   6.079   6.140  0.00  0.00    -0.442 OA
BRANCH   3  17
ATOM      5  O   UNL     1       9.020   5.783   6.454  0.00  0.00    -0.226 OA
ATOM      9  N   UNL     1      10.572   4.743   7.827  0.00  0.00    -0.281 N 
ATOM     17  C   UNL     1      10.178   5.552   6.782  0.00  0.00    +0.401 C 
ATOM     29  H   UNL     1      11.568   4.638   8.000  0.00  0.00    +0.152 HD
BRANCH   9  21
ATOM     21  C   UNL     1       9.651   4.045   8.693  0.00  0.00    +0.104 C 
ATOM     25  C   UNL     1       9.350   4.844   9.944  0.00  0.00    +0.024 C 
ENDBRANCH   9  21
ENDBRANCH   3  17
ENDBRANCH  13   3
TORSDOF 7
ENDMDL
MODEL 4
REMARK VINA RESULT:      -6.3     26.543     29.879
REMARK  Name = 11885943
REMARK  9 active torsions:
REMARK  status: ('A' for Active; 'I' for Inactive)
REMARK    1  A    between atoms: O_3  and  C_13
REMARK    2  A    between atoms: O_3  and  C_17
REMARK    3  A    between atoms: O_6  and  C_26
REMARK    4  A    between atoms: O_6  and  C_27
REMARK    5  A    between atoms: N_8  and  C_12
REMARK    6  A    between atoms: N_9  and  C_21
REMARK    7  A    between atoms: C_16  and  C_18
REMARK    8  A    between atoms: C_21  and  C_25
REMARK    9  A    between atoms: C_22  and  C_26
REMARK                            x       y       z     vdW  Elec       q    Type
REMARK                         _______ _______ _______ _____ _____    ______ ____
ROOT
ATOM      1  O   UNL     1      -4.025 -12.093  14.411  0.00  0.00    -0.368 OA
ATOM      2  O   UNL     1      -2.053 -10.952  16.465  0.00  0.00    -0.368 OA
ATOM     10  C   UNL     1      -3.424 -10.614  16.164  0.00  0.00    +0.173 C 
ATOM     11  C   UNL     1      -3.591 -10.747  14.664  0.00  0.00    +0.192 C 
ATOM     12  C   UNL     1      -4.353 -11.664  16.727  0.00  0.00    +0.130 C 
ATOM     13  C   UNL     1      -2.189 -10.507  14.158  0.00  0.00    +0.235 C 
ATOM     14  C   UNL     1      -4.299 -12.745  15.661  0.00  0.00    +0.185 C 
ATOM     15  C   UNL     1      -1.345 -11.154  15.233  0.00  0.00    +0.207 C 
ENDROOT
BRANCH  12   8
ATOM      4  O   UNL     1      -5.528 -10.654  19.145  0.00  0.00    -0.270 OA
ATOM      8  N   UNL     1      -5.690 -11.149  16.885  0.00  0.00    -0.304 N 
ATOM     16  C   UNL     1      -6.172 -10.681  18.099  0.00  0.00    +0.244 C 
ATOM     28  H   UNL     1      -6.317 -11.242  16.092  0.00  0.00    +0.149 HD
BRANCH  16  18
ATOM     18  C   UNL     1      -7.581 -10.207  18.102  0.00  0.00    +0.037 A 
ATOM     19  C   UNL     1      -8.493 -10.739  19.014  0.00  0.00    +0.028 A 
ATOM     20  C   UNL     1      -7.990  -9.232  17.194  0.00  0.00    +0.013 A 
ATOM     22  C   UNL     1      -9.815 -10.295  19.016  0.00  0.00    +0.060 A 
ATOM     23  C   UNL     1      -9.312  -8.788  17.197  0.00  0.00    +0.002 A 
ATOM     24  C   UNL     1     -10.225  -9.319  18.108  0.00  0.00    +0.015 A 
BRANCH  22  26
ATOM      7  O   UNL     1     -11.825 -10.298  20.298  0.00  0.00    -0.245 OA
ATOM     26  C   UNL     1     -10.767 -10.849  19.966  0.00  0.00    +0.339 C 
BRANCH  26   6
ATOM      6  O   UNL     1     -10.349 -12.058  20.451  0.00  0.00    -0.464 OA
ATOM     27  C   UNL     1     -11.359 -13.048  20.677  0.00  0.00    +0.280 C 
ENDBRANCH  26   6
ENDBRANCH  22  26
ENDBRANCH  16  18
ENDBRANCH  12   8
BRANCH  13   3
ATOM      3  O   UNL     1      -1.946 -11.065  12.886  0.00  0.00    -0.442 OA
BRANCH   3  17
ATOM      5  O   UNL     1      -1.060  -9.426  11.541  0.00  0.00    -0.226 OA
ATOM      9  N   UNL     1      -3.153 -10.330  11.117  0.00  0.00    -0.281 N 
ATOM     17  C   UNL     1      -1.972 -10.199  11.816  0.00  0.00    +0.401 C 
ATOM     29  H   UNL     1      -3.834 -11.006  11.452  0.00  0.00    +0.152 HD
BRANCH   9  21
ATOM     21  C   UNL     1      -3.480  -9.557   9.941  0.00  0.00    +0.104 C 
ATOM     25  C   UNL     1      -4.559  -8.535  10.231  0.00  0.00    +0.024 C 
ENDBRANCH   9  21
ENDBRANCH   3  17
ENDBRANCH  13   3
TORSDOF 7
ENDMDL
MODEL 5
REMARK VINA RESULT:      -6.2     27.328     31.093
REMARK  Name = 11885943
REMARK  9 active torsions:
REMARK  status: ('A' for Active; 'I' for Inactive)
REMARK    1  A    between atoms: O_3  and  C_13
REMARK    2  A    between atoms: O_3  and  C_17
REMARK    3  A    between atoms: O_6  and  C_26
REMARK    4  A    between atoms: O_6  and  C_27
REMARK    5  A    between atoms: N_8  and  C_12
REMARK    6  A    between atoms: N_9  and  C_21
REMARK    7  A    between atoms: C_16  and  C_18
REMARK    8  A    between atoms: C_21  and  C_25
REMARK    9  A    between atoms: C_22  and  C_26
REMARK                            x       y       z     vdW  Elec       q    Type
REMARK                         _______ _______ _______ _____ _____    ______ ____
ROOT
ATOM      1  O   UNL     1      -7.034 -12.140  17.433  0.00  0.00    -0.368 OA
ATOM      2  O   UNL     1      -6.593 -11.091  20.281  0.00  0.00    -0.368 OA
ATOM     10  C   UNL     1      -7.341 -10.554  19.170  0.00  0.00    +0.173 C 
ATOM     11  C   UNL     1      -6.554 -10.874  17.915  0.00  0.00    +0.192 C 
ATOM     12  C   UNL     1      -8.630 -11.322  18.994  0.00  0.00    +0.130 C 
ATOM     13  C   UNL     1      -5.140 -10.973  18.433  0.00  0.00    +0.235 C 
ATOM     14  C   UNL     1      -8.176 -12.539  18.207  0.00  0.00    +0.185 C 
ATOM     15  C   UNL     1      -5.342 -11.598  19.795  0.00  0.00    +0.207 C 
ENDROOT
BRANCH  12   8
ATOM      4  O   UNL     1     -10.863  -9.880  20.081  0.00  0.00    -0.270 OA
ATOM      8  N   UNL     1      -9.601 -10.552  18.255  0.00  0.00    -0.304 N 
ATOM     16  C   UNL     1     -10.651  -9.887  18.871  0.00  0.00    +0.244 C 
ATOM     28  H   UNL     1      -9.555 -10.603  17.243  0.00  0.00    +0.149 HD
BRANCH  16  18
ATOM     18  C   UNL     1     -11.580  -9.159  17.967  0.00  0.00    +0.037 A 
ATOM     19  C   UNL     1     -11.116  -8.085  17.208  0.00  0.00    +0.028 A 
ATOM     20  C   UNL     1     -12.916  -9.551  17.880  0.00  0.00    +0.013 A 
ATOM     22  C   UNL     1     -11.989  -7.402  16.361  0.00  0.00    +0.060 A 
ATOM     23  C   UNL     1     -13.788  -8.869  17.031  0.00  0.00    +0.002 A 
ATOM     24  C   UNL     1     -13.325  -7.794  16.272  0.00  0.00    +0.015 A 
BRANCH  22  26
ATOM      7  O   UNL     1     -10.313  -5.983  15.435  0.00  0.00    -0.245 OA
ATOM     26  C   UNL     1     -11.507  -6.282  15.568  0.00  0.00    +0.339 C 
BRANCH  26   6
ATOM      6  O   UNL     1     -12.537  -5.597  14.985  0.00  0.00    -0.464 OA
ATOM     27  C   UNL     1     -12.321  -5.113  13.654  0.00  0.00    +0.280 C 
ENDBRANCH  26   6
ENDBRANCH  22  26
ENDBRANCH  16  18
ENDBRANCH  12   8
BRANCH  13   3
ATOM      3  O   UNL     1      -4.292 -11.746  17.614  0.00  0.00    -0.442 OA
BRANCH   3  17
ATOM      5  O   UNL     1      -4.286 -10.221  15.897  0.00  0.00    -0.226 OA
ATOM      9  N   UNL     1      -2.468 -11.609  16.280  0.00  0.00    -0.281 N 
ATOM     17  C   UNL     1      -3.728 -11.109  16.533  0.00  0.00    +0.401 C 
ATOM     29  H   UNL     1      -2.120 -12.352  16.880  0.00  0.00    +0.152 HD
BRANCH   9  21
ATOM     21  C   UNL     1      -1.619 -11.144  15.208  0.00  0.00    +0.104 C 
ATOM     25  C   UNL     1      -0.858  -9.895  15.604  0.00  0.00    +0.024 C 
ENDBRANCH   9  21
ENDBRANCH   3  17
ENDBRANCH  13   3
TORSDOF 7
ENDMDL
MODEL 6
REMARK VINA RESULT:      -6.0     30.011     32.442
REMARK  Name = 11885943
REMARK  9 active torsions:
REMARK  status: ('A' for Active; 'I' for Inactive)
REMARK    1  A    between atoms: O_3  and  C_13
REMARK    2  A    between atoms: O_3  and  C_17
REMARK    3  A    between atoms: O_6  and  C_26
REMARK    4  A    between atoms: O_6  and  C_27
REMARK    5  A    between atoms: N_8  and  C_12
REMARK    6  A    between atoms: N_9  and  C_21
REMARK    7  A    between atoms: C_16  and  C_18
REMARK    8  A    between atoms: C_21  and  C_25
REMARK    9  A    between atoms: C_22  and  C_26
REMARK                            x       y       z     vdW  Elec       q    Type
REMARK                         _______ _______ _______ _____ _____    ______ ____
ROOT
ATOM      1  O   UNL     1     -14.638   3.774  30.925  0.00  0.00    -0.368 OA
ATOM      2  O   UNL     1     -14.999   1.805  33.249  0.00  0.00    -0.368 OA
ATOM     10  C   UNL     1     -14.215   3.011  33.130  0.00  0.00    +0.173 C 
ATOM     11  C   UNL     1     -13.679   3.049  31.713  0.00  0.00    +0.192 C 
ATOM     12  C   UNL     1     -15.113   4.223  33.211  0.00  0.00    +0.130 C 
ATOM     13  C   UNL     1     -13.639   1.587  31.341  0.00  0.00    +0.235 C 
ATOM     14  C   UNL     1     -15.641   4.328  31.791  0.00  0.00    +0.185 C 
ATOM     15  C   UNL     1     -14.866   1.045  32.040  0.00  0.00    +0.207 C 
ENDROOT
BRANCH  12   8
ATOM      4  O   UNL     1     -14.189   4.910  35.842  0.00  0.00    -0.270 OA
ATOM      8  N   UNL     1     -14.369   5.402  33.582  0.00  0.00    -0.304 N 
ATOM     16  C   UNL     1     -13.964   5.649  34.886  0.00  0.00    +0.244 C 
ATOM     28  H   UNL     1     -14.243   6.111  32.868  0.00  0.00    +0.149 HD
BRANCH  16  18
ATOM     18  C   UNL     1     -13.229   6.921  35.110  0.00  0.00    +0.037 A 
ATOM     19  C   UNL     1     -13.060   7.823  34.059  0.00  0.00    +0.028 A 
ATOM     20  C   UNL     1     -12.707   7.212  36.370  0.00  0.00    +0.013 A 
ATOM     22  C   UNL     1     -12.368   9.016  34.269  0.00  0.00    +0.060 A 
ATOM     23  C   UNL     1     -12.017   8.406  36.580  0.00  0.00    +0.002 A 
ATOM     24  C   UNL     1     -11.848   9.308  35.530  0.00  0.00    +0.015 A 
BRANCH  22  26
ATOM      7  O   UNL     1     -11.588  11.034  33.268  0.00  0.00    -0.245 OA
ATOM     26  C   UNL     1     -12.192   9.957  33.174  0.00  0.00    +0.339 C 
BRANCH  26   6
ATOM      6  O   UNL     1     -12.777   9.505  32.023  0.00  0.00    -0.464 OA
ATOM     27  C   UNL     1     -12.024   9.653  30.814  0.00  0.00    +0.280 C 
ENDBRANCH  26   6
ENDBRANCH  22  26
ENDBRANCH  16  18
ENDBRANCH  12   8
BRANCH  13   3
ATOM      3  O   UNL     1     -13.676   1.359  29.950  0.00  0.00    -0.442 OA
BRANCH   3  17
ATOM      5  O   UNL     1     -14.820  -0.571  29.453  0.00  0.00    -0.226 OA
ATOM      9  N   UNL     1     -15.733   1.516  29.016  0.00  0.00    -0.281 N 
ATOM     17  C   UNL     1     -14.756   0.654  29.468  0.00  0.00    +0.401 C 
ATOM     29  H   UNL     1     -15.555   2.514  29.079  0.00  0.00    +0.152 HD
BRANCH   9  21
ATOM     21  C   UNL     1     -16.989   1.081  28.452  0.00  0.00    +0.104 C 
ATOM     25  C   UNL     1     -16.931   1.031  26.939  0.00  0.00    +0.024 C 
ENDBRANCH   9  21
ENDBRANCH   3  17
ENDBRANCH  13   3
TORSDOF 7
ENDMDL
MODEL 7
REMARK VINA RESULT:      -6.0     27.235     29.913
REMARK  Name = 11885943
REMARK  9 active torsions:
REMARK  status: ('A' for Active; 'I' for Inactive)
REMARK    1  A    between atoms: O_3  and  C_13
REMARK    2  A    between atoms: O_3  and  C_17
REMARK    3  A    between atoms: O_6  and  C_26
REMARK    4  A    between atoms: O_6  and  C_27
REMARK    5  A    between atoms: N_8  and  C_12
REMARK    6  A    between atoms: N_9  and  C_21
REMARK    7  A    between atoms: C_16  and  C_18
REMARK    8  A    between atoms: C_21  and  C_25
REMARK    9  A    between atoms: C_22  and  C_26
REMARK                            x       y       z     vdW  Elec       q    Type
REMARK                         _______ _______ _______ _____ _____    ______ ____
ROOT
ATOM      1  O   UNL     1     -10.523  -7.370  17.018  0.00  0.00    -0.368 OA
ATOM      2  O   UNL     1     -11.984  -9.431  15.278  0.00  0.00    -0.368 OA
ATOM     10  C   UNL     1     -10.582  -9.251  15.575  0.00  0.00    +0.173 C 
ATOM     11  C   UNL     1     -10.337  -7.757  15.646  0.00  0.00    +0.192 C 
ATOM     12  C   UNL     1     -10.282  -9.735  16.974  0.00  0.00    +0.130 C 
ATOM     13  C   UNL     1     -11.424  -7.205  14.757  0.00  0.00    +0.235 C 
ATOM     14  C   UNL     1     -10.699  -8.546  17.823  0.00  0.00    +0.185 C 
ATOM     15  C   UNL     1     -12.575  -8.146  15.036  0.00  0.00    +0.207 C 
ENDROOT
BRANCH  12   8
ATOM      4  O   UNL     1      -9.095 -11.361  19.022  0.00  0.00    -0.270 OA
ATOM      8  N   UNL     1      -8.879 -10.028  17.136  0.00  0.00    -0.304 N 
ATOM     16  C   UNL     1      -8.397 -10.828  18.162  0.00  0.00    +0.244 C 
ATOM     28  H   UNL     1      -8.232  -9.534  16.530  0.00  0.00    +0.149 HD
BRANCH  16  18
ATOM     18  C   UNL     1      -6.923 -11.013  18.207  0.00  0.00    +0.037 A 
ATOM     19  C   UNL     1      -6.150 -10.727  17.081  0.00  0.00    +0.028 A 
ATOM     20  C   UNL     1      -6.314 -11.473  19.374  0.00  0.00    +0.013 A 
ATOM     22  C   UNL     1      -4.767 -10.901  17.124  0.00  0.00    +0.060 A 
ATOM     23  C   UNL     1      -4.930 -11.646  19.415  0.00  0.00    +0.002 A 
ATOM     24  C   UNL     1      -4.157 -11.360  18.291  0.00  0.00    +0.015 A 
BRANCH  22  26
ATOM      7  O   UNL     1      -4.420 -10.385  14.822  0.00  0.00    -0.245 OA
ATOM     26  C   UNL     1      -3.960 -10.603  15.951  0.00  0.00    +0.339 C 
BRANCH  26   6
ATOM      6  O   UNL     1      -2.624 -10.592  16.248  0.00  0.00    -0.464 OA
ATOM     27  C   UNL     1      -1.717 -10.488  15.145  0.00  0.00    +0.280 C 
ENDBRANCH  26   6
ENDBRANCH  22  26
ENDBRANCH  16  18
ENDBRANCH  12   8
BRANCH  13   3
ATOM      3  O   UNL     1     -11.756  -5.864  15.038  0.00  0.00    -0.442 OA
BRANCH   3  17
ATOM      5  O   UNL     1     -13.769  -5.388  14.039  0.00  0.00    -0.226 OA
ATOM      9  N   UNL     1     -11.805  -4.377  13.331  0.00  0.00    -0.281 N 
ATOM     17  C   UNL     1     -12.557  -5.220  14.122  0.00  0.00    +0.401 C 
ATOM     29  H   UNL     1     -10.804  -4.332  13.499  0.00  0.00    +0.152 HD
BRANCH   9  21
ATOM     21  C   UNL     1     -12.358  -3.561  12.275  0.00  0.00    +0.104 C 
ATOM     25  C   UNL     1     -12.098  -4.166  10.912  0.00  0.00    +0.024 C 
ENDBRANCH   9  21
ENDBRANCH   3  17
ENDBRANCH  13   3
TORSDOF 7
ENDMDL
MODEL 8
REMARK VINA RESULT:      -6.0     31.030     32.641
REMARK  Name = 11885943
REMARK  9 active torsions:
REMARK  status: ('A' for Active; 'I' for Inactive)
REMARK    1  A    between atoms: O_3  and  C_13
REMARK    2  A    between atoms: O_3  and  C_17
REMARK    3  A    between atoms: O_6  and  C_26
REMARK    4  A    between atoms: O_6  and  C_27
REMARK    5  A    between atoms: N_8  and  C_12
REMARK    6  A    between atoms: N_9  and  C_21
REMARK    7  A    between atoms: C_16  and  C_18
REMARK    8  A    between atoms: C_21  and  C_25
REMARK    9  A    between atoms: C_22  and  C_26
REMARK                            x       y       z     vdW  Elec       q    Type
REMARK                         _______ _______ _______ _____ _____    ______ ____
ROOT
ATOM      1  O   UNL     1     -14.787   3.765  30.946  0.00  0.00    -0.368 OA
ATOM      2  O   UNL     1     -14.931   1.781  33.280  0.00  0.00    -0.368 OA
ATOM     10  C   UNL     1     -14.208   3.021  33.122  0.00  0.00    +0.173 C 
ATOM     11  C   UNL     1     -13.755   3.083  31.677  0.00  0.00    +0.192 C 
ATOM     12  C   UNL     1     -15.153   4.192  33.257  0.00  0.00    +0.130 C 
ATOM     13  C   UNL     1     -13.672   1.624  31.298  0.00  0.00    +0.235 C 
ATOM     14  C   UNL     1     -15.763   4.275  31.868  0.00  0.00    +0.185 C 
ATOM     15  C   UNL     1     -14.833   1.029  32.063  0.00  0.00    +0.207 C 
ENDROOT
BRANCH  12   8
ATOM      4  O   UNL     1     -14.159   4.940  35.845  0.00  0.00    -0.270 OA
ATOM      8  N   UNL     1     -14.441   5.402  33.590  0.00  0.00    -0.304 N 
ATOM     16  C   UNL     1     -13.998   5.677  34.876  0.00  0.00    +0.244 C 
ATOM     28  H   UNL     1     -14.369   6.108  32.865  0.00  0.00    +0.149 HD
BRANCH  16  18
ATOM     18  C   UNL     1     -13.304   6.979  35.060  0.00  0.00    +0.037 A 
ATOM     19  C   UNL     1     -12.676   7.268  36.272  0.00  0.00    +0.028 A 
ATOM     20  C   UNL     1     -13.282   7.910  34.023  0.00  0.00    +0.013 A 
ATOM     22  C   UNL     1     -12.026   8.490  36.445  0.00  0.00    +0.060 A 
ATOM     23  C   UNL     1     -12.631   9.131  34.196  0.00  0.00    +0.002 A 
ATOM     24  C   UNL     1     -12.002   9.421  35.407  0.00  0.00    +0.015 A 
BRANCH  22  26
ATOM      7  O   UNL     1     -11.878   9.461  38.617  0.00  0.00    -0.245 OA
ATOM     26  C   UNL     1     -11.370   8.793  37.707  0.00  0.00    +0.339 C 
BRANCH  26   6
ATOM      6  O   UNL     1     -10.118   8.245  37.768  0.00  0.00    -0.464 OA
ATOM     27  C   UNL     1      -9.296   8.631  38.876  0.00  0.00    +0.280 C 
ENDBRANCH  26   6
ENDBRANCH  22  26
ENDBRANCH  16  18
ENDBRANCH  12   8
BRANCH  13   3
ATOM      3  O   UNL     1     -13.777   1.396  29.911  0.00  0.00    -0.442 OA
BRANCH   3  17
ATOM      5  O   UNL     1     -14.909  -0.564  29.519  0.00  0.00    -0.226 OA
ATOM      9  N   UNL     1     -15.860   1.494  29.030  0.00  0.00    -0.281 N 
ATOM     17  C   UNL     1     -14.860   0.661  29.486  0.00  0.00    +0.401 C 
ATOM     29  H   UNL     1     -15.693   2.496  29.051  0.00  0.00    +0.152 HD
BRANCH   9  21
ATOM     21  C   UNL     1     -17.126   1.023  28.517  0.00  0.00    +0.104 C 
ATOM     25  C   UNL     1     -17.134   0.989  27.003  0.00  0.00    +0.024 C 
ENDBRANCH   9  21
ENDBRANCH   3  17
ENDBRANCH  13   3
TORSDOF 7
ENDMDL
MODEL 9
REMARK VINA RESULT:      -5.9     27.482     29.536
REMARK  Name = 11885943
REMARK  9 active torsions:
REMARK  status: ('A' for Active; 'I' for Inactive)
REMARK    1  A    between atoms: O_3  and  C_13
REMARK    2  A    between atoms: O_3  and  C_17
REMARK    3  A    between atoms: O_6  and  C_26
REMARK    4  A    between atoms: O_6  and  C_27
REMARK    5  A    between atoms: N_8  and  C_12
REMARK    6  A    between atoms: N_9  and  C_21
REMARK    7  A    between atoms: C_16  and  C_18
REMARK    8  A    between atoms: C_21  and  C_25
REMARK    9  A    between atoms: C_22  and  C_26
REMARK                            x       y       z     vdW  Elec       q    Type
REMARK                         _______ _______ _______ _____ _____    ______ ____
ROOT
ATOM      1  O   UNL     1      -5.919 -11.031  10.655  0.00  0.00    -0.368 OA
ATOM      2  O   UNL     1      -3.401  -9.334  10.225  0.00  0.00    -0.368 OA
ATOM     10  C   UNL     1      -4.241  -9.523  11.384  0.00  0.00    +0.173 C 
ATOM     11  C   UNL     1      -5.666  -9.635  10.880  0.00  0.00    +0.192 C 
ATOM     12  C   UNL     1      -3.970 -10.872  12.007  0.00  0.00    +0.130 C 
ATOM     13  C   UNL     1      -5.616  -8.859   9.586  0.00  0.00    +0.235 C 
ATOM     14  C   UNL     1      -4.809 -11.799  11.145  0.00  0.00    +0.185 C 
ATOM     15  C   UNL     1      -4.235  -9.192   9.067  0.00  0.00    +0.207 C 
ENDROOT
BRANCH  12   8
ATOM      4  O   UNL     1      -2.356 -10.316  14.317  0.00  0.00    -0.270 OA
ATOM      8  N   UNL     1      -4.396 -10.907  13.384  0.00  0.00    -0.304 N 
ATOM     16  C   UNL     1      -3.540 -10.622  14.438  0.00  0.00    +0.244 C 
ATOM     28  H   UNL     1      -5.329 -11.261  13.569  0.00  0.00    +0.149 HD
BRANCH  16  18
ATOM     18  C   UNL     1      -4.126 -10.729  15.800  0.00  0.00    +0.037 A 
ATOM     19  C   UNL     1      -5.435 -10.305  16.031  0.00  0.00    +0.028 A 
ATOM     20  C   UNL     1      -3.366 -11.252  16.846  0.00  0.00    +0.013 A 
ATOM     22  C   UNL     1      -5.983 -10.405  17.310  0.00  0.00    +0.060 A 
ATOM     23  C   UNL     1      -3.916 -11.352  18.124  0.00  0.00    +0.002 A 
ATOM     24  C   UNL     1      -5.224 -10.929  18.356  0.00  0.00    +0.015 A 
BRANCH  22  26
ATOM      7  O   UNL     1      -8.072 -10.395  18.460  0.00  0.00    -0.245 OA
ATOM     26  C   UNL     1      -7.348  -9.964  17.552  0.00  0.00    +0.339 C 
BRANCH  26   6
ATOM      6  O   UNL     1      -7.736  -9.010  16.652  0.00  0.00    -0.464 OA
ATOM     27  C   UNL     1      -9.062  -8.489  16.792  0.00  0.00    +0.280 C 
ENDBRANCH  26   6
ENDBRANCH  22  26
ENDBRANCH  16  18
ENDBRANCH  12   8
BRANCH  13   3
ATOM      3  O   UNL     1      -6.628  -9.221   8.673  0.00  0.00    -0.442 OA
BRANCH   3  17
ATOM      5  O   UNL     1      -8.416  -7.934   9.322  0.00  0.00    -0.226 OA
ATOM      9  N   UNL     1      -7.599  -7.852   7.153  0.00  0.00    -0.281 N 
ATOM     17  C   UNL     1      -7.625  -8.297   8.458  0.00  0.00    +0.401 C 
ATOM     29  H   UNL     1      -6.893  -8.237   6.532  0.00  0.00    +0.152 HD
BRANCH   9  21
ATOM     21  C   UNL     1      -8.521  -6.877   6.618  0.00  0.00    +0.104 C 
ATOM     25  C   UNL     1      -9.301  -7.435   5.446  0.00  0.00    +0.024 C 
ENDBRANCH   9  21
ENDBRANCH   3  17
ENDBRANCH  13   3
TORSDOF 7
ENDMDL
MODEL 10
REMARK VINA RESULT:      -5.7     27.499     29.552
REMARK  Name = 11885943
REMARK  9 active torsions:
REMARK  status: ('A' for Active; 'I' for Inactive)
REMARK    1  A    between atoms: O_3  and  C_13
REMARK    2  A    between atoms: O_3  and  C_17
REMARK    3  A    between atoms: O_6  and  C_26
REMARK    4  A    between atoms: O_6  and  C_27
REMARK    5  A    between atoms: N_8  and  C_12
REMARK    6  A    between atoms: N_9  and  C_21
REMARK    7  A    between atoms: C_16  and  C_18
REMARK    8  A    between atoms: C_21  and  C_25
REMARK    9  A    between atoms: C_22  and  C_26
REMARK                            x       y       z     vdW  Elec       q    Type
REMARK                         _______ _______ _______ _____ _____    ______ ____
ROOT
ATOM      1  O   UNL     1      -4.299 -10.175  16.144  0.00  0.00    -0.368 OA
ATOM      2  O   UNL     1      -4.531 -13.222  16.413  0.00  0.00    -0.368 OA
ATOM     10  C   UNL     1      -4.891 -12.326  15.340  0.00  0.00    +0.173 C 
ATOM     11  C   UNL     1      -5.420 -11.060  15.982  0.00  0.00    +0.192 C 
ATOM     12  C   UNL     1      -3.650 -11.870  14.608  0.00  0.00    +0.130 C 
ATOM     13  C   UNL     1      -5.935 -11.560  17.311  0.00  0.00    +0.235 C 
ATOM     14  C   UNL     1      -3.151 -10.741  15.493  0.00  0.00    +0.185 C 
ATOM     15  C   UNL     1      -4.929 -12.634  17.660  0.00  0.00    +0.207 C 
ENDROOT
BRANCH  12   8
ATOM      4  O   UNL     1      -1.892 -11.809  12.338  0.00  0.00    -0.270 OA
ATOM      8  N   UNL     1      -3.969 -11.396  13.283  0.00  0.00    -0.304 N 
ATOM     16  C   UNL     1      -3.049 -11.406  12.245  0.00  0.00    +0.244 C 
ATOM     28  H   UNL     1      -4.870 -10.946  13.160  0.00  0.00    +0.149 HD
BRANCH  16  18
ATOM     18  C   UNL     1      -3.525 -10.859  10.947  0.00  0.00    +0.037 A 
ATOM     19  C   UNL     1      -4.036 -11.718   9.974  0.00  0.00    +0.028 A 
ATOM     20  C   UNL     1      -3.459  -9.488  10.704  0.00  0.00    +0.013 A 
ATOM     22  C   UNL     1      -4.482 -11.204   8.756  0.00  0.00    +0.060 A 
ATOM     23  C   UNL     1      -3.906  -8.975   9.486  0.00  0.00    +0.002 A 
ATOM     24  C   UNL     1      -4.417  -9.832   8.512  0.00  0.00    +0.015 A 
BRANCH  22  26
ATOM      7  O   UNL     1      -6.118 -11.959   7.196  0.00  0.00    -0.245 OA
ATOM     26  C   UNL     1      -5.015 -12.099   7.741  0.00  0.00    +0.339 C 
BRANCH  26   6
ATOM      6  O   UNL     1      -4.146 -13.118   7.461  0.00  0.00    -0.464 OA
ATOM     27  C   UNL     1      -3.488 -13.075   6.190  0.00  0.00    +0.280 C 
ENDBRANCH  26   6
ENDBRANCH  22  26
ENDBRANCH  16  18
ENDBRANCH  12   8
BRANCH  13   3
ATOM      3  O   UNL     1      -6.006 -10.558  18.300  0.00  0.00    -0.442 OA
BRANCH   3  17
ATOM      5  O   UNL     1      -6.538 -11.068  20.476  0.00  0.00    -0.226 OA
ATOM      9  N   UNL     1      -8.186 -10.615  18.908  0.00  0.00    -0.281 N 
ATOM     17  C   UNL     1      -6.885 -10.775  19.337  0.00  0.00    +0.401 C 
ATOM     29  H   UNL     1      -8.342 -10.376  17.933  0.00  0.00    +0.152 HD
BRANCH   9  21
ATOM     21  C   UNL     1      -9.339 -10.776  19.764  0.00  0.00    +0.104 C 
ATOM     25  C   UNL     1     -10.560 -10.091  19.186  0.00  0.00    +0.024 C 
ENDBRANCH   9  21
ENDBRANCH   3  17
ENDBRANCH  13   3
TORSDOF 7
ENDMDL
