MODEL 1
REMARK VINA RESULT:      -7.5      0.000      0.000
REMARK  Name = 38028057
REMARK  12 active torsions:
REMARK  status: ('A' for Active; 'I' for Inactive)
REMARK    1  A    between atoms: S_1  and  N_7
REMARK    2  A    between atoms: S_1  and  C_27
REMARK    3  A    between atoms: N_7  and  C_17
REMARK    4  A    between atoms: N_9  and  C_32
REMARK    5  A    between atoms: C_10  and  C_14
REMARK    6  A    between atoms: C_11  and  C_17
REMARK    7  A    between atoms: C_13  and  C_18
REMARK    8  A    between atoms: C_14  and  C_19
REMARK    9  A    between atoms: C_14  and  C_20
REMARK   10  A    between atoms: C_15  and  C_21
REMARK   11  A    between atoms: C_18  and  C_22
REMARK   12  A    between atoms: C_33  and  C_34
REMARK                            x       y       z     vdW  Elec       q    Type
REMARK                         _______ _______ _______ _____ _____    ______ ____
ROOT
ATOM     10  C   UNL     1      17.176   7.742  20.766  0.00  0.00    +0.000 C 
ATOM     11  C   UNL     1      15.798   7.479  21.421  0.00  0.00    +0.030 C 
ATOM     12  C   UNL     1      17.983   8.749  21.600  0.00  0.00    +0.012 C 
ATOM     13  C   UNL     1      17.252  10.096  21.756  0.00  0.00    +0.023 C 
ATOM     15  C   UNL     1      15.800   9.905  22.144  0.00  0.00    -0.073 C 
ATOM     16  C   UNL     1      15.170   8.726  21.999  0.00  0.00    -0.023 C 
ATOM     21  C   UNL     1      15.099  11.091  22.745  0.00  0.00    +0.039 C 
ENDROOT
BRANCH  10  14
ATOM     14  C   UNL     1      17.980   6.449  20.593  0.00  0.00    -0.013 C 
ATOM     19  C   UNL     1      17.716   5.840  19.219  0.00  0.00    +0.007 C 
ATOM     20  C   UNL     1      19.469   6.717  20.788  0.00  0.00    +0.007 C 
ENDBRANCH  10  14
BRANCH  11  17
ATOM     17  C   UNL     1      14.827   6.832  20.427  0.00  0.00    +0.113 C 
BRANCH  17   7
ATOM      7  N   UNL     1      13.609   6.420  21.143  0.00  0.00    -0.189 NA
ATOM     35  H   UNL     1      13.694   5.587  21.739  0.00  0.00    +0.148 HD
BRANCH   7   1
ATOM      1  S   UNL     1      12.073   6.756  20.488  0.00  0.00    +0.058 S 
ATOM      4  O   UNL     1      11.143   5.718  20.891  0.00  0.00    -0.153 OA
ATOM      5  O   UNL     1      12.219   7.100  19.087  0.00  0.00    -0.153 OA
BRANCH   1  27
ATOM     27  C   UNL     1      11.636   8.240  21.342  0.00  0.00    +0.105 A 
ATOM     28  C   UNL     1      10.888   8.174  22.518  0.00  0.00    +0.030 A 
ATOM     29  C   UNL     1      12.036   9.479  20.839  0.00  0.00    +0.030 A 
ATOM     30  C   UNL     1      10.542   9.345  23.191  0.00  0.00    +0.025 A 
ATOM     31  C   UNL     1      11.690  10.650  21.512  0.00  0.00    +0.025 A 
ATOM     32  C   UNL     1      10.944  10.584  22.688  0.00  0.00    +0.033 A 
BRANCH  32   9
ATOM      6  O   UNL     1      11.767  11.591  25.404  0.00  0.00    -0.276 OA
ATOM      9  N   UNL     1      10.599  11.756  23.363  0.00  0.00    -0.286 N 
ATOM     33  C   UNL     1      11.013  12.177  24.634  0.00  0.00    +0.214 C 
ATOM     34  C   UNL     1      10.413  13.510  25.004  0.00  0.00    +0.109 C 
ATOM     36  H   UNL     1       9.968  12.376  22.860  0.00  0.00    +0.155 HD
ENDBRANCH  32   9
ENDBRANCH   1  27
ENDBRANCH   7   1
ENDBRANCH  17   7
ENDBRANCH  11  17
BRANCH  13  18
ATOM     18  C   UNL     1      17.375  10.940  20.484  0.00  0.00    +0.103 C 
BRANCH  18  22
ATOM      2  O   UNL     1      18.632  12.365  21.901  0.00  0.00    -0.276 OA
ATOM      3  O   UNL     1      19.532  14.369  17.470  0.00  0.00    -0.377 OA
ATOM      8  N   UNL     1      18.423  13.026  19.686  0.00  0.00    -0.297 N 
ATOM     22  C   UNL     1      18.198  12.171  20.763  0.00  0.00    +0.216 C 
ATOM     23  C   UNL     1      19.217  14.242  19.868  0.00  0.00    +0.136 C 
ATOM     24  C   UNL     1      17.820  12.895  18.355  0.00  0.00    +0.136 C 
ATOM     25  C   UNL     1      20.212  14.401  18.728  0.00  0.00    +0.179 C 
ATOM     26  C   UNL     1      18.872  13.116  17.275  0.00  0.00    +0.179 C 
ENDBRANCH  18  22
ENDBRANCH  13  18
TORSDOF 8
ENDMDL
MODEL 2
REMARK VINA RESULT:      -7.0     28.474     32.196
REMARK  Name = 38028057
REMARK  12 active torsions:
REMARK  status: ('A' for Active; 'I' for Inactive)
REMARK    1  A    between atoms: S_1  and  N_7
REMARK    2  A    between atoms: S_1  and  C_27
REMARK    3  A    between atoms: N_7  and  C_17
REMARK    4  A    between atoms: N_9  and  C_32
REMARK    5  A    between atoms: C_10  and  C_14
REMARK    6  A    between atoms: C_11  and  C_17
REMARK    7  A    between atoms: C_13  and  C_18
REMARK    8  A    between atoms: C_14  and  C_19
REMARK    9  A    between atoms: C_14  and  C_20
REMARK   10  A    between atoms: C_15  and  C_21
REMARK   11  A    between atoms: C_18  and  C_22
REMARK   12  A    between atoms: C_33  and  C_34
REMARK                            x       y       z     vdW  Elec       q    Type
REMARK                         _______ _______ _______ _____ _____    ______ ____
ROOT
ATOM     10  C   UNL     1     -11.521  -9.811  18.761  0.00  0.00    +0.000 C 
ATOM     11  C   UNL     1     -10.311 -10.746  18.518  0.00  0.00    +0.030 C 
ATOM     12  C   UNL     1     -12.173  -9.418  17.427  0.00  0.00    +0.012 C 
ATOM     13  C   UNL     1     -11.186  -8.704  16.484  0.00  0.00    +0.023 C 
ATOM     15  C   UNL     1      -9.860  -9.432  16.401  0.00  0.00    -0.073 C 
ATOM     16  C   UNL     1      -9.492 -10.351  17.312  0.00  0.00    -0.023 C 
ATOM     21  C   UNL     1      -8.985  -9.113  15.222  0.00  0.00    +0.039 C 
ENDROOT
BRANCH  10  14
ATOM     14  C   UNL     1     -12.565 -10.458  19.678  0.00  0.00    -0.013 C 
ATOM     19  C   UNL     1     -12.893  -9.532  20.845  0.00  0.00    +0.007 C 
ATOM     20  C   UNL     1     -13.824 -10.803  18.891  0.00  0.00    +0.007 C 
ENDBRANCH  10  14
BRANCH  11  17
ATOM     17  C   UNL     1      -9.405 -10.811  19.752  0.00  0.00    +0.113 C 
BRANCH  17   7
ATOM      7  N   UNL     1      -8.031 -10.457  19.359  0.00  0.00    -0.189 NA
ATOM     35  H   UNL     1      -7.939  -9.813  18.564  0.00  0.00    +0.148 HD
BRANCH   7   1
ATOM      1  S   UNL     1      -6.753 -11.550  19.628  0.00  0.00    +0.058 S 
ATOM      4  O   UNL     1      -7.237 -12.906  19.450  0.00  0.00    -0.153 OA
ATOM      5  O   UNL     1      -6.058 -11.179  20.846  0.00  0.00    -0.153 OA
BRANCH   1  27
ATOM     27  C   UNL     1      -5.671 -11.176  18.282  0.00  0.00    +0.105 A 
ATOM     28  C   UNL     1      -6.093 -10.318  17.266  0.00  0.00    +0.030 A 
ATOM     29  C   UNL     1      -4.396 -11.740  18.233  0.00  0.00    +0.030 A 
ATOM     30  C   UNL     1      -5.240 -10.024  16.202  0.00  0.00    +0.025 A 
ATOM     31  C   UNL     1      -3.543 -11.446  17.170  0.00  0.00    +0.025 A 
ATOM     32  C   UNL     1      -3.964 -10.588  16.154  0.00  0.00    +0.033 A 
BRANCH  32   9
ATOM      6  O   UNL     1      -3.958 -11.589  13.315  0.00  0.00    -0.276 OA
ATOM      9  N   UNL     1      -3.110 -10.292  15.091  0.00  0.00    -0.286 N 
ATOM     33  C   UNL     1      -3.153 -10.792  13.783  0.00  0.00    +0.214 C 
ATOM     34  C   UNL     1      -2.046 -10.222  12.931  0.00  0.00    +0.109 C 
ATOM     36  H   UNL     1      -2.366  -9.630  15.303  0.00  0.00    +0.155 HD
ENDBRANCH  32   9
ENDBRANCH   1  27
ENDBRANCH   7   1
ENDBRANCH  17   7
ENDBRANCH  11  17
BRANCH  13  18
ATOM     18  C   UNL     1     -10.986  -7.243  16.900  0.00  0.00    +0.103 C 
BRANCH  18  22
ATOM      2  O   UNL     1     -10.065  -5.891  15.184  0.00  0.00    -0.276 OA
ATOM      3  O   UNL     1     -14.801  -6.141  13.781  0.00  0.00    -0.377 OA
ATOM      8  N   UNL     1     -12.377  -6.092  15.218  0.00  0.00    -0.297 N 
ATOM     22  C   UNL     1     -11.092  -6.347  15.692  0.00  0.00    +0.216 C 
ATOM     23  C   UNL     1     -12.570  -5.236  14.048  0.00  0.00    +0.136 C 
ATOM     24  C   UNL     1     -13.624  -6.511  15.870  0.00  0.00    +0.136 C 
ATOM     25  C   UNL     1     -13.578  -5.862  13.094  0.00  0.00    +0.179 C 
ATOM     26  C   UNL     1     -14.592  -7.079  14.840  0.00  0.00    +0.179 C 
ENDBRANCH  18  22
ENDBRANCH  13  18
TORSDOF 8
ENDMDL
MODEL 3
REMARK VINA RESULT:      -6.7     28.994     31.378
REMARK  Name = 38028057
REMARK  12 active torsions:
REMARK  status: ('A' for Active; 'I' for Inactive)
REMARK    1  A    between atoms: S_1  and  N_7
REMARK    2  A    between atoms: S_1  and  C_27
REMARK    3  A    between atoms: N_7  and  C_17
REMARK    4  A    between atoms: N_9  and  C_32
REMARK    5  A    between atoms: C_10  and  C_14
REMARK    6  A    between atoms: C_11  and  C_17
REMARK    7  A    between atoms: C_13  and  C_18
REMARK    8  A    between atoms: C_14  and  C_19
REMARK    9  A    between atoms: C_14  and  C_20
REMARK   10  A    between atoms: C_15  and  C_21
REMARK   11  A    between atoms: C_18  and  C_22
REMARK   12  A    between atoms: C_33  and  C_34
REMARK                            x       y       z     vdW  Elec       q    Type
REMARK                         _______ _______ _______ _____ _____    ______ ____
ROOT
ATOM     10  C   UNL     1      -5.443 -11.313  16.321  0.00  0.00    +0.000 C 
ATOM     11  C   UNL     1      -4.796 -12.315  15.333  0.00  0.00    +0.030 C 
ATOM     12  C   UNL     1      -6.964 -11.524  16.382  0.00  0.00    +0.012 C 
ATOM     13  C   UNL     1      -7.631 -11.351  15.004  0.00  0.00    +0.023 C 
ATOM     15  C   UNL     1      -6.886 -12.102  13.919  0.00  0.00    -0.073 C 
ATOM     16  C   UNL     1      -5.625 -12.537  14.089  0.00  0.00    -0.023 C 
ATOM     21  C   UNL     1      -7.640 -12.382  12.650  0.00  0.00    +0.039 C 
ENDROOT
BRANCH  10  14
ATOM     14  C   UNL     1      -4.846 -11.435  17.727  0.00  0.00    -0.013 C 
ATOM     19  C   UNL     1      -5.599 -10.539  18.704  0.00  0.00    +0.007 C 
ATOM     20  C   UNL     1      -4.875 -12.887  18.193  0.00  0.00    +0.007 C 
ENDBRANCH  10  14
BRANCH  11  17
ATOM     17  C   UNL     1      -3.386 -11.868  14.935  0.00  0.00    +0.113 C 
BRANCH  17   7
ATOM      7  N   UNL     1      -3.487 -10.762  13.969  0.00  0.00    -0.189 NA
ATOM     35  H   UNL     1      -4.353 -10.210  14.000  0.00  0.00    +0.148 HD
BRANCH   7   1
ATOM      1  S   UNL     1      -2.674 -10.851  12.475  0.00  0.00    +0.058 S 
ATOM      4  O   UNL     1      -2.662 -12.229  12.018  0.00  0.00    -0.153 OA
ATOM      5  O   UNL     1      -1.436 -10.101  12.561  0.00  0.00    -0.153 OA
BRANCH   1  27
ATOM     27  C   UNL     1      -3.759  -9.938  11.420  0.00  0.00    +0.105 A 
ATOM     28  C   UNL     1      -5.038  -9.599  11.861  0.00  0.00    +0.030 A 
ATOM     29  C   UNL     1      -3.337  -9.556  10.146  0.00  0.00    +0.030 A 
ATOM     30  C   UNL     1      -5.895  -8.879  11.029  0.00  0.00    +0.025 A 
ATOM     31  C   UNL     1      -4.194  -8.836   9.314  0.00  0.00    +0.025 A 
ATOM     32  C   UNL     1      -5.473  -8.497   9.755  0.00  0.00    +0.033 A 
BRANCH  32   9
ATOM      6  O   UNL     1      -7.889  -9.385   8.195  0.00  0.00    -0.276 OA
ATOM      9  N   UNL     1      -6.329  -7.775   8.923  0.00  0.00    -0.286 N 
ATOM     33  C   UNL     1      -7.445  -8.243   8.215  0.00  0.00    +0.214 C 
ATOM     34  C   UNL     1      -8.107  -7.142   7.426  0.00  0.00    +0.109 C 
ATOM     36  H   UNL     1      -6.107  -6.787   8.823  0.00  0.00    +0.155 HD
ENDBRANCH  32   9
ENDBRANCH   1  27
ENDBRANCH   7   1
ENDBRANCH  17   7
ENDBRANCH  11  17
BRANCH  13  18
ATOM     18  C   UNL     1      -7.778  -9.869  14.645  0.00  0.00    +0.103 C 
BRANCH  18  22
ATOM      2  O   UNL     1      -9.745  -9.732  13.329  0.00  0.00    -0.276 OA
ATOM      3  O   UNL     1     -11.515  -8.686  17.828  0.00  0.00    -0.377 OA
ATOM      8  N   UNL     1      -9.916  -9.013  15.530  0.00  0.00    -0.297 N 
ATOM     22  C   UNL     1      -9.232  -9.534  14.433  0.00  0.00    +0.216 C 
ATOM     23  C   UNL     1     -11.332  -8.665  15.412  0.00  0.00    +0.136 C 
ATOM     24  C   UNL     1      -9.311  -8.646  16.815  0.00  0.00    +0.136 C 
ATOM     25  C   UNL     1     -12.105  -9.176  16.620  0.00  0.00    +0.179 C 
ATOM     26  C   UNL     1     -10.170  -9.152  17.967  0.00  0.00    +0.179 C 
ENDBRANCH  18  22
ENDBRANCH  13  18
TORSDOF 8
ENDMDL
MODEL 4
REMARK VINA RESULT:      -6.6     16.762     18.988
REMARK  Name = 38028057
REMARK  12 active torsions:
REMARK  status: ('A' for Active; 'I' for Inactive)
REMARK    1  A    between atoms: S_1  and  N_7
REMARK    2  A    between atoms: S_1  and  C_27
REMARK    3  A    between atoms: N_7  and  C_17
REMARK    4  A    between atoms: N_9  and  C_32
REMARK    5  A    between atoms: C_10  and  C_14
REMARK    6  A    between atoms: C_11  and  C_17
REMARK    7  A    between atoms: C_13  and  C_18
REMARK    8  A    between atoms: C_14  and  C_19
REMARK    9  A    between atoms: C_14  and  C_20
REMARK   10  A    between atoms: C_15  and  C_21
REMARK   11  A    between atoms: C_18  and  C_22
REMARK   12  A    between atoms: C_33  and  C_34
REMARK                            x       y       z     vdW  Elec       q    Type
REMARK                         _______ _______ _______ _____ _____    ______ ____
ROOT
ATOM     10  C   UNL     1       9.862   8.859   1.732  0.00  0.00    +0.000 C 
ATOM     11  C   UNL     1       8.754   9.534   2.578  0.00  0.00    +0.030 C 
ATOM     12  C   UNL     1       9.565   7.363   1.554  0.00  0.00    +0.012 C 
ATOM     13  C   UNL     1       9.463   6.625   2.902  0.00  0.00    +0.023 C 
ATOM     15  C   UNL     1       8.593   7.374   3.890  0.00  0.00    -0.073 C 
ATOM     16  C   UNL     1       8.275   8.670   3.722  0.00  0.00    -0.023 C 
ATOM     21  C   UNL     1       8.057   6.588   5.053  0.00  0.00    +0.039 C 
ENDROOT
BRANCH  10  14
ATOM     14  C   UNL     1      10.014   9.525   0.360  0.00  0.00    -0.013 C 
ATOM     19  C   UNL     1      11.435  10.049   0.179  0.00  0.00    +0.007 C 
ATOM     20  C   UNL     1       9.654   8.544  -0.750  0.00  0.00    +0.007 C 
ENDBRANCH  10  14
BRANCH  11  17
ATOM     17  C   UNL     1       9.219  10.889   3.121  0.00  0.00    +0.113 C 
BRANCH  17   7
ATOM      7  N   UNL     1      10.536  10.725   3.758  0.00  0.00    -0.189 NA
ATOM     35  H   UNL     1      11.092   9.919   3.448  0.00  0.00    +0.148 HD
BRANCH   7   1
ATOM      1  S   UNL     1      10.798  11.289   5.344  0.00  0.00    +0.058 S 
ATOM      4  O   UNL     1       9.765  12.249   5.688  0.00  0.00    -0.153 OA
ATOM      5  O   UNL     1      12.197  11.635   5.501  0.00  0.00    -0.153 OA
BRANCH   1  27
ATOM     27  C   UNL     1      10.518   9.825   6.296  0.00  0.00    +0.105 A 
ATOM     28  C   UNL     1       9.382   9.721   7.098  0.00  0.00    +0.030 A 
ATOM     29  C   UNL     1      11.435   8.774   6.246  0.00  0.00    +0.030 A 
ATOM     30  C   UNL     1       9.161   8.567   7.849  0.00  0.00    +0.025 A 
ATOM     31  C   UNL     1      11.214   7.620   6.997  0.00  0.00    +0.025 A 
ATOM     32  C   UNL     1      10.078   7.516   7.799  0.00  0.00    +0.033 A 
BRANCH  32   9
ATOM      6  O   UNL     1       9.881   4.636   6.942  0.00  0.00    -0.276 OA
ATOM      9  N   UNL     1       9.857   6.361   8.549  0.00  0.00    -0.286 N 
ATOM     33  C   UNL     1       9.773   5.037   8.096  0.00  0.00    +0.214 C 
ATOM     34  C   UNL     1       9.523   4.074   9.229  0.00  0.00    +0.109 C 
ATOM     36  H   UNL     1       9.745   6.508   9.550  0.00  0.00    +0.155 HD
ENDBRANCH  32   9
ENDBRANCH   1  27
ENDBRANCH   7   1
ENDBRANCH  17   7
ENDBRANCH  11  17
BRANCH  13  18
ATOM     18  C   UNL     1      10.852   6.354   3.489  0.00  0.00    +0.103 C 
BRANCH  18  22
ATOM      2  O   UNL     1      10.755   3.997   3.720  0.00  0.00    -0.276 OA
ATOM      3  O   UNL     1      13.712   4.462  -0.217  0.00  0.00    -0.377 OA
ATOM      8  N   UNL     1      12.288   4.827   2.188  0.00  0.00    -0.297 N 
ATOM     22  C   UNL     1      11.289   4.952   3.150  0.00  0.00    +0.216 C 
ATOM     23  C   UNL     1      12.767   3.502   1.796  0.00  0.00    +0.136 C 
ATOM     24  C   UNL     1      13.032   5.939   1.584  0.00  0.00    +0.136 C 
ATOM     25  C   UNL     1      12.885   3.407   0.281  0.00  0.00    +0.179 C 
ATOM     26  C   UNL     1      13.145   5.741   0.077  0.00  0.00    +0.179 C 
ENDBRANCH  18  22
ENDBRANCH  13  18
TORSDOF 8
ENDMDL
MODEL 5
REMARK VINA RESULT:      -6.5     28.759     32.457
REMARK  Name = 38028057
REMARK  12 active torsions:
REMARK  status: ('A' for Active; 'I' for Inactive)
REMARK    1  A    between atoms: S_1  and  N_7
REMARK    2  A    between atoms: S_1  and  C_27
REMARK    3  A    between atoms: N_7  and  C_17
REMARK    4  A    between atoms: N_9  and  C_32
REMARK    5  A    between atoms: C_10  and  C_14
REMARK    6  A    between atoms: C_11  and  C_17
REMARK    7  A    between atoms: C_13  and  C_18
REMARK    8  A    between atoms: C_14  and  C_19
REMARK    9  A    between atoms: C_14  and  C_20
REMARK   10  A    between atoms: C_15  and  C_21
REMARK   11  A    between atoms: C_18  and  C_22
REMARK   12  A    between atoms: C_33  and  C_34
REMARK                            x       y       z     vdW  Elec       q    Type
REMARK                         _______ _______ _______ _____ _____    ______ ____
ROOT
ATOM     10  C   UNL     1      -9.298 -10.145  15.712  0.00  0.00    +0.000 C 
ATOM     11  C   UNL     1      -8.831  -9.370  16.969  0.00  0.00    +0.030 C 
ATOM     12  C   UNL     1      -9.569  -9.174  14.553  0.00  0.00    +0.012 C 
ATOM     13  C   UNL     1     -10.643  -8.128  14.908  0.00  0.00    +0.023 C 
ATOM     15  C   UNL     1     -10.396  -7.507  16.267  0.00  0.00    -0.073 C 
ATOM     16  C   UNL     1      -9.573  -8.069  17.170  0.00  0.00    -0.023 C 
ATOM     21  C   UNL     1     -11.081  -6.199  16.549  0.00  0.00    +0.039 C 
ENDROOT
BRANCH  10  14
ATOM     14  C   UNL     1      -8.271 -11.196  15.279  0.00  0.00    -0.013 C 
ATOM     19  C   UNL     1      -8.973 -12.407  14.674  0.00  0.00    +0.007 C 
ATOM     20  C   UNL     1      -7.279 -10.595  14.288  0.00  0.00    +0.007 C 
ENDBRANCH  10  14
BRANCH  11  17
ATOM     17  C   UNL     1      -8.959 -10.231  18.230  0.00  0.00    +0.113 C 
BRANCH  17   7
ATOM      7  N   UNL     1      -7.707 -10.146  19.000  0.00  0.00    -0.189 NA
ATOM     35  H   UNL     1      -7.205  -9.252  18.952  0.00  0.00    +0.148 HD
BRANCH   7   1
ATOM      1  S   UNL     1      -6.779 -11.546  19.284  0.00  0.00    +0.058 S 
ATOM      4  O   UNL     1      -7.621 -12.718  19.128  0.00  0.00    -0.153 OA
ATOM      5  O   UNL     1      -6.000 -11.363  20.493  0.00  0.00    -0.153 OA
BRANCH   1  27
ATOM     27  C   UNL     1      -5.645 -11.507  17.928  0.00  0.00    +0.105 A 
ATOM     28  C   UNL     1      -4.962 -10.329  17.625  0.00  0.00    +0.030 A 
ATOM     29  C   UNL     1      -5.434 -12.653  17.161  0.00  0.00    +0.030 A 
ATOM     30  C   UNL     1      -4.068 -10.296  16.555  0.00  0.00    +0.025 A 
ATOM     31  C   UNL     1      -4.540 -12.620  16.091  0.00  0.00    +0.025 A 
ATOM     32  C   UNL     1      -3.857 -11.443  15.787  0.00  0.00    +0.033 A 
BRANCH  32   9
ATOM      6  O   UNL     1      -4.158 -10.296  13.020  0.00  0.00    -0.276 OA
ATOM      9  N   UNL     1      -2.962 -11.412  14.718  0.00  0.00    -0.286 N 
ATOM     33  C   UNL     1      -3.156 -10.863  13.443  0.00  0.00    +0.214 C 
ATOM     34  C   UNL     1      -1.938 -11.034  12.570  0.00  0.00    +0.109 C 
ATOM     36  H   UNL     1      -2.057 -11.844  14.896  0.00  0.00    +0.155 HD
ENDBRANCH  32   9
ENDBRANCH   1  27
ENDBRANCH   7   1
ENDBRANCH  17   7
ENDBRANCH  11  17
BRANCH  13  18
ATOM     18  C   UNL     1     -12.049  -8.732  14.828  0.00  0.00    +0.103 C 
BRANCH  18  22
ATOM      2  O   UNL     1     -12.613  -7.657  12.792  0.00  0.00    -0.276 OA
ATOM      3  O   UNL     1     -16.718  -6.914  15.450  0.00  0.00    -0.377 OA
ATOM      8  N   UNL     1     -14.077  -7.352  14.568  0.00  0.00    -0.297 N 
ATOM     22  C   UNL     1     -12.931  -7.866  13.965  0.00  0.00    +0.216 C 
ATOM     23  C   UNL     1     -14.991  -6.506  13.801  0.00  0.00    +0.136 C 
ATOM     24  C   UNL     1     -14.420  -7.474  15.989  0.00  0.00    +0.136 C 
ATOM     25  C   UNL     1     -16.434  -6.923  14.048  0.00  0.00    +0.179 C 
ATOM     26  C   UNL     1     -15.888  -7.846  16.148  0.00  0.00    +0.179 C 
ENDBRANCH  18  22
ENDBRANCH  13  18
TORSDOF 8
ENDMDL
MODEL 6
REMARK VINA RESULT:      -6.5     28.097     30.900
REMARK  Name = 38028057
REMARK  12 active torsions:
REMARK  status: ('A' for Active; 'I' for Inactive)
REMARK    1  A    between atoms: S_1  and  N_7
REMARK    2  A    between atoms: S_1  and  C_27
REMARK    3  A    between atoms: N_7  and  C_17
REMARK    4  A    between atoms: N_9  and  C_32
REMARK    5  A    between atoms: C_10  and  C_14
REMARK    6  A    between atoms: C_11  and  C_17
REMARK    7  A    between atoms: C_13  and  C_18
REMARK    8  A    between atoms: C_14  and  C_19
REMARK    9  A    between atoms: C_14  and  C_20
REMARK   10  A    between atoms: C_15  and  C_21
REMARK   11  A    between atoms: C_18  and  C_22
REMARK   12  A    between atoms: C_33  and  C_34
REMARK                            x       y       z     vdW  Elec       q    Type
REMARK                         _______ _______ _______ _____ _____    ______ ____
ROOT
ATOM     10  C   UNL     1      -4.000 -11.847  11.776  0.00  0.00    +0.000 C 
ATOM     11  C   UNL     1      -2.901 -10.916  11.204  0.00  0.00    +0.030 C 
ATOM     12  C   UNL     1      -5.253 -11.806  10.890  0.00  0.00    +0.012 C 
ATOM     13  C   UNL     1      -5.834 -10.383  10.767  0.00  0.00    +0.023 C 
ATOM     15  C   UNL     1      -4.757  -9.361  10.465  0.00  0.00    -0.073 C 
ATOM     16  C   UNL     1      -3.452  -9.621  10.655  0.00  0.00    -0.023 C 
ATOM     21  C   UNL     1      -5.213  -8.046   9.898  0.00  0.00    +0.039 C 
ENDROOT
BRANCH  10  14
ATOM     14  C   UNL     1      -3.507 -13.292  11.912  0.00  0.00    -0.013 C 
ATOM     19  C   UNL     1      -4.102 -13.941  13.156  0.00  0.00    +0.007 C 
ATOM     20  C   UNL     1      -3.859 -14.093  10.662  0.00  0.00    +0.007 C 
ENDBRANCH  10  14
BRANCH  11  17
ATOM     17  C   UNL     1      -1.831 -10.611  12.258  0.00  0.00    +0.113 C 
BRANCH  17   7
ATOM      7  N   UNL     1      -2.491 -10.207  13.510  0.00  0.00    -0.189 NA
ATOM     35  H   UNL     1      -2.917  -9.273  13.518  0.00  0.00    +0.148 HD
BRANCH   7   1
ATOM      1  S   UNL     1      -1.953 -10.832  15.002  0.00  0.00    +0.058 S 
ATOM      4  O   UNL     1      -0.983  -9.921  15.580  0.00  0.00    -0.153 OA
ATOM      5  O   UNL     1      -1.630 -12.236  14.841  0.00  0.00    -0.153 OA
BRANCH   1  27
ATOM     27  C   UNL     1      -3.425 -10.749  15.977  0.00  0.00    +0.105 A 
ATOM     28  C   UNL     1      -4.617 -10.304  15.404  0.00  0.00    +0.030 A 
ATOM     29  C   UNL     1      -3.396 -11.127  17.319  0.00  0.00    +0.030 A 
ATOM     30  C   UNL     1      -5.779 -10.238  16.173  0.00  0.00    +0.025 A 
ATOM     31  C   UNL     1      -4.558 -11.061  18.088  0.00  0.00    +0.025 A 
ATOM     32  C   UNL     1      -5.749 -10.617  17.516  0.00  0.00    +0.033 A 
BRANCH  32   9
ATOM      6  O   UNL     1      -7.987 -12.604  17.848  0.00  0.00    -0.276 OA
ATOM      9  N   UNL     1      -6.911 -10.552  18.285  0.00  0.00    -0.286 N 
ATOM     33  C   UNL     1      -7.926 -11.511  18.402  0.00  0.00    +0.214 C 
ATOM     34  C   UNL     1      -9.018 -11.058  19.338  0.00  0.00    +0.109 C 
ATOM     36  H   UNL     1      -7.027  -9.697  18.825  0.00  0.00    +0.155 HD
ENDBRANCH  32   9
ENDBRANCH   1  27
ENDBRANCH   7   1
ENDBRANCH  17   7
ENDBRANCH  11  17
BRANCH  13  18
ATOM     18  C   UNL     1      -6.621  -9.999  12.024  0.00  0.00    +0.103 C 
BRANCH  18  22
ATOM      2  O   UNL     1      -8.426  -9.792  10.501  0.00  0.00    -0.276 OA
ATOM      3  O   UNL     1     -10.832 -10.278  14.795  0.00  0.00    -0.377 OA
ATOM      8  N   UNL     1      -8.961  -9.733  12.760  0.00  0.00    -0.297 N 
ATOM     22  C   UNL     1      -8.080  -9.831  11.684  0.00  0.00    +0.216 C 
ATOM     23  C   UNL     1     -10.395  -9.573  12.519  0.00  0.00    +0.136 C 
ATOM     24  C   UNL     1      -8.574  -9.647  14.172  0.00  0.00    +0.136 C 
ATOM     25  C   UNL     1     -11.191 -10.498  13.428  0.00  0.00    +0.179 C 
ATOM     26  C   UNL     1      -9.449 -10.566  15.015  0.00  0.00    +0.179 C 
ENDBRANCH  18  22
ENDBRANCH  13  18
TORSDOF 8
ENDMDL
MODEL 7
REMARK VINA RESULT:      -6.5     26.432     28.380
REMARK  Name = 38028057
REMARK  12 active torsions:
REMARK  status: ('A' for Active; 'I' for Inactive)
REMARK    1  A    between atoms: S_1  and  N_7
REMARK    2  A    between atoms: S_1  and  C_27
REMARK    3  A    between atoms: N_7  and  C_17
REMARK    4  A    between atoms: N_9  and  C_32
REMARK    5  A    between atoms: C_10  and  C_14
REMARK    6  A    between atoms: C_11  and  C_17
REMARK    7  A    between atoms: C_13  and  C_18
REMARK    8  A    between atoms: C_14  and  C_19
REMARK    9  A    between atoms: C_14  and  C_20
REMARK   10  A    between atoms: C_15  and  C_21
REMARK   11  A    between atoms: C_18  and  C_22
REMARK   12  A    between atoms: C_33  and  C_34
REMARK                            x       y       z     vdW  Elec       q    Type
REMARK                         _______ _______ _______ _____ _____    ______ ____
ROOT
ATOM     10  C   UNL     1     -12.993   7.998  20.647  0.00  0.00    +0.000 C 
ATOM     11  C   UNL     1     -12.438   9.210  21.435  0.00  0.00    +0.030 C 
ATOM     12  C   UNL     1     -11.953   7.494  19.636  0.00  0.00    +0.012 C 
ATOM     13  C   UNL     1     -11.543   8.585  18.628  0.00  0.00    +0.023 C 
ATOM     15  C   UNL     1     -11.235   9.899  19.316  0.00  0.00    -0.073 C 
ATOM     16  C   UNL     1     -11.632  10.156  20.575  0.00  0.00    -0.023 C 
ATOM     21  C   UNL     1     -10.422  10.896  18.539  0.00  0.00    +0.039 C 
ENDROOT
BRANCH  10  14
ATOM     14  C   UNL     1     -13.408   6.855  21.580  0.00  0.00    -0.013 C 
ATOM     19  C   UNL     1     -14.768   6.302  21.170  0.00  0.00    +0.007 C 
ATOM     20  C   UNL     1     -12.352   5.754  21.573  0.00  0.00    +0.007 C 
ENDBRANCH  10  14
BRANCH  11  17
ATOM     17  C   UNL     1     -13.565   9.984  22.128  0.00  0.00    +0.113 C 
BRANCH  17   7
ATOM      7  N   UNL     1     -13.289  10.046  23.572  0.00  0.00    -0.189 NA
ATOM     35  H   UNL     1     -13.852   9.426  24.168  0.00  0.00    +0.148 HD
BRANCH   7   1
ATOM      1  S   UNL     1     -12.708  11.485  24.274  0.00  0.00    +0.058 S 
ATOM      4  O   UNL     1     -13.771  12.473  24.291  0.00  0.00    -0.153 OA
ATOM      5  O   UNL     1     -11.420  11.811  23.693  0.00  0.00    -0.153 OA
BRANCH   1  27
ATOM     27  C   UNL     1     -12.410  10.977  25.940  0.00  0.00    +0.105 A 
ATOM     28  C   UNL     1     -11.156  10.486  26.306  0.00  0.00    +0.030 A 
ATOM     29  C   UNL     1     -13.428  11.067  26.890  0.00  0.00    +0.030 A 
ATOM     30  C   UNL     1     -10.921  10.084  27.620  0.00  0.00    +0.025 A 
ATOM     31  C   UNL     1     -13.192  10.665  28.205  0.00  0.00    +0.025 A 
ATOM     32  C   UNL     1     -11.939  10.174  28.571  0.00  0.00    +0.033 A 
BRANCH  32   9
ATOM      6  O   UNL     1     -10.912  11.732  30.934  0.00  0.00    -0.276 OA
ATOM      9  N   UNL     1     -11.703   9.774  29.886  0.00  0.00    -0.286 N 
ATOM     33  C   UNL     1     -11.220  10.545  30.952  0.00  0.00    +0.214 C 
ATOM     34  C   UNL     1     -11.106   9.736  32.220  0.00  0.00    +0.109 C 
ATOM     36  H   UNL     1     -11.912   8.798  30.087  0.00  0.00    +0.155 HD
ENDBRANCH  32   9
ENDBRANCH   1  27
ENDBRANCH   7   1
ENDBRANCH  17   7
ENDBRANCH  11  17
BRANCH  13  18
ATOM     18  C   UNL     1     -12.613   8.767  17.547  0.00  0.00    +0.103 C 
BRANCH  18  22
ATOM      2  O   UNL     1     -10.802   8.398  16.062  0.00  0.00    -0.276 OA
ATOM      3  O   UNL     1     -14.658   7.199  13.205  0.00  0.00    -0.377 OA
ATOM      8  N   UNL     1     -12.933   8.294  15.147  0.00  0.00    -0.297 N 
ATOM     22  C   UNL     1     -12.027   8.472  16.190  0.00  0.00    +0.216 C 
ATOM     23  C   UNL     1     -12.450   8.000  13.798  0.00  0.00    +0.136 C 
ATOM     24  C   UNL     1     -14.384   8.499  15.235  0.00  0.00    +0.136 C 
ATOM     25  C   UNL     1     -13.264   6.875  13.177  0.00  0.00    +0.179 C 
ATOM     26  C   UNL     1     -15.121   7.356  14.549  0.00  0.00    +0.179 C 
ENDBRANCH  18  22
ENDBRANCH  13  18
TORSDOF 8
ENDMDL
MODEL 8
REMARK VINA RESULT:      -6.4     14.583     16.096
REMARK  Name = 38028057
REMARK  12 active torsions:
REMARK  status: ('A' for Active; 'I' for Inactive)
REMARK    1  A    between atoms: S_1  and  N_7
REMARK    2  A    between atoms: S_1  and  C_27
REMARK    3  A    between atoms: N_7  and  C_17
REMARK    4  A    between atoms: N_9  and  C_32
REMARK    5  A    between atoms: C_10  and  C_14
REMARK    6  A    between atoms: C_11  and  C_17
REMARK    7  A    between atoms: C_13  and  C_18
REMARK    8  A    between atoms: C_14  and  C_19
REMARK    9  A    between atoms: C_14  and  C_20
REMARK   10  A    between atoms: C_15  and  C_21
REMARK   11  A    between atoms: C_18  and  C_22
REMARK   12  A    between atoms: C_33  and  C_34
REMARK                            x       y       z     vdW  Elec       q    Type
REMARK                         _______ _______ _______ _____ _____    ______ ____
ROOT
ATOM     10  C   UNL     1      10.145   6.915   4.102  0.00  0.00    +0.000 C 
ATOM     11  C   UNL     1       8.675   6.734   4.558  0.00  0.00    +0.030 C 
ATOM     12  C   UNL     1      11.070   5.974   4.888  0.00  0.00    +0.012 C 
ATOM     13  C   UNL     1      10.996   6.220   6.408  0.00  0.00    +0.023 C 
ATOM     15  C   UNL     1       9.565   6.322   6.892  0.00  0.00    -0.073 C 
ATOM     16  C   UNL     1       8.539   6.539   6.050  0.00  0.00    -0.023 C 
ATOM     21  C   UNL     1       9.333   6.124   8.364  0.00  0.00    +0.039 C 
ENDROOT
BRANCH  10  14
ATOM     14  C   UNL     1      10.308   6.666   2.599  0.00  0.00    -0.013 C 
ATOM     19  C   UNL     1      11.189   7.744   1.975  0.00  0.00    +0.007 C 
ATOM     20  C   UNL     1      10.891   5.279   2.349  0.00  0.00    +0.007 C 
ENDBRANCH  10  14
BRANCH  11  17
ATOM     17  C   UNL     1       7.809   7.919   4.116  0.00  0.00    +0.113 C 
BRANCH  17   7
ATOM      7  N   UNL     1       7.734   8.895   5.215  0.00  0.00    -0.189 NA
ATOM     35  H   UNL     1       6.962   8.772   5.880  0.00  0.00    +0.148 HD
BRANCH   7   1
ATOM      1  S   UNL     1       8.331  10.477   4.999  0.00  0.00    +0.058 S 
ATOM      4  O   UNL     1       7.221  11.377   4.749  0.00  0.00    -0.153 OA
ATOM      5  O   UNL     1       9.458  10.439   4.088  0.00  0.00    -0.153 OA
BRANCH   1  27
ATOM     27  C   UNL     1       8.976  10.839   6.604  0.00  0.00    +0.105 A 
ATOM     28  C   UNL     1       9.373   9.801   7.448  0.00  0.00    +0.030 A 
ATOM     29  C   UNL     1       9.088  12.164   7.029  0.00  0.00    +0.030 A 
ATOM     30  C   UNL     1       9.881  10.087   8.715  0.00  0.00    +0.025 A 
ATOM     31  C   UNL     1       9.596  12.450   8.296  0.00  0.00    +0.025 A 
ATOM     32  C   UNL     1       9.993  11.412   9.139  0.00  0.00    +0.033 A 
BRANCH  32   9
ATOM      6  O   UNL     1       8.575  12.044  11.719  0.00  0.00    -0.276 OA
ATOM      9  N   UNL     1      10.502  11.698  10.406  0.00  0.00    -0.286 N 
ATOM     33  C   UNL     1       9.792  11.989  11.579  0.00  0.00    +0.214 C 
ATOM     34  C   UNL     1      10.716  12.242  12.743  0.00  0.00    +0.109 C 
ATOM     36  H   UNL     1      11.518  11.693  10.477  0.00  0.00    +0.155 HD
ENDBRANCH  32   9
ENDBRANCH   1  27
ENDBRANCH   7   1
ENDBRANCH  17   7
ENDBRANCH  11  17
BRANCH  13  18
ATOM     18  C   UNL     1      11.801   7.461   6.804  0.00  0.00    +0.103 C 
BRANCH  18  22
ATOM      2  O   UNL     1      13.706   6.232   7.498  0.00  0.00    -0.276 OA
ATOM      3  O   UNL     1      15.578   8.901   3.778  0.00  0.00    -0.377 OA
ATOM      8  N   UNL     1      14.069   7.922   5.948  0.00  0.00    -0.297 N 
ATOM     22  C   UNL     1      13.275   7.144   6.789  0.00  0.00    +0.216 C 
ATOM     23  C   UNL     1      15.509   7.677   5.868  0.00  0.00    +0.136 C 
ATOM     24  C   UNL     1      13.614   9.092   5.189  0.00  0.00    +0.136 C 
ATOM     25  C   UNL     1      15.968   7.681   4.417  0.00  0.00    +0.179 C 
ATOM     26  C   UNL     1      14.155   9.042   3.766  0.00  0.00    +0.179 C 
ENDBRANCH  18  22
ENDBRANCH  13  18
TORSDOF 8
ENDMDL
MODEL 9
REMARK VINA RESULT:      -6.4     29.182     31.572
REMARK  Name = 38028057
REMARK  12 active torsions:
REMARK  status: ('A' for Active; 'I' for Inactive)
REMARK    1  A    between atoms: S_1  and  N_7
REMARK    2  A    between atoms: S_1  and  C_27
REMARK    3  A    between atoms: N_7  and  C_17
REMARK    4  A    between atoms: N_9  and  C_32
REMARK    5  A    between atoms: C_10  and  C_14
REMARK    6  A    between atoms: C_11  and  C_17
REMARK    7  A    between atoms: C_13  and  C_18
REMARK    8  A    between atoms: C_14  and  C_19
REMARK    9  A    between atoms: C_14  and  C_20
REMARK   10  A    between atoms: C_15  and  C_21
REMARK   11  A    between atoms: C_18  and  C_22
REMARK   12  A    between atoms: C_33  and  C_34
REMARK                            x       y       z     vdW  Elec       q    Type
REMARK                         _______ _______ _______ _____ _____    ______ ____
ROOT
ATOM     10  C   UNL     1      -4.194 -11.139  11.657  0.00  0.00    +0.000 C 
ATOM     11  C   UNL     1      -3.549 -12.357  10.949  0.00  0.00    +0.030 C 
ATOM     12  C   UNL     1      -3.284 -10.629  12.784  0.00  0.00    +0.012 C 
ATOM     13  C   UNL     1      -3.001 -11.715  13.841  0.00  0.00    +0.023 C 
ATOM     15  C   UNL     1      -2.614 -13.034  13.203  0.00  0.00    -0.073 C 
ATOM     16  C   UNL     1      -2.855 -13.298  11.907  0.00  0.00    -0.023 C 
ATOM     21  C   UNL     1      -1.903 -14.026  14.079  0.00  0.00    +0.039 C 
ENDROOT
BRANCH  10  14
ATOM     14  C   UNL     1      -4.490 -10.002  10.674  0.00  0.00    -0.013 C 
ATOM     19  C   UNL     1      -5.410  -8.969  11.318  0.00  0.00    +0.007 C 
ATOM     20  C   UNL     1      -3.192  -9.352  10.206  0.00  0.00    +0.007 C 
ENDBRANCH  10  14
BRANCH  11  17
ATOM     17  C   UNL     1      -4.585 -13.134  10.130  0.00  0.00    +0.113 C 
BRANCH  17   7
ATOM      7  N   UNL     1      -3.955 -13.613   8.889  0.00  0.00    -0.189 NA
ATOM     35  H   UNL     1      -2.944 -13.454   8.803  0.00  0.00    +0.148 HD
BRANCH   7   1
ATOM      1  S   UNL     1      -4.856 -13.695   7.445  0.00  0.00    +0.058 S 
ATOM      4  O   UNL     1      -5.909 -14.683   7.594  0.00  0.00    -0.153 OA
ATOM      5  O   UNL     1      -3.946 -13.763   6.319  0.00  0.00    -0.153 OA
BRANCH   1  27
ATOM     27  C   UNL     1      -5.612 -12.098   7.403  0.00  0.00    +0.105 A 
ATOM     28  C   UNL     1      -4.831 -10.962   7.187  0.00  0.00    +0.030 A 
ATOM     29  C   UNL     1      -6.989 -11.972   7.587  0.00  0.00    +0.030 A 
ATOM     30  C   UNL     1      -5.426  -9.702   7.154  0.00  0.00    +0.025 A 
ATOM     31  C   UNL     1      -7.585 -10.711   7.554  0.00  0.00    +0.025 A 
ATOM     32  C   UNL     1      -6.804  -9.576   7.338  0.00  0.00    +0.033 A 
BRANCH  32   9
ATOM      6  O   UNL     1      -8.233  -8.031   9.491  0.00  0.00    -0.276 OA
ATOM      9  N   UNL     1      -7.400  -8.315   7.304  0.00  0.00    -0.286 N 
ATOM     33  C   UNL     1      -8.058  -7.640   8.342  0.00  0.00    +0.214 C 
ATOM     34  C   UNL     1      -8.565  -6.291   7.898  0.00  0.00    +0.109 C 
ATOM     36  H   UNL     1      -7.346  -7.833   6.409  0.00  0.00    +0.155 HD
ENDBRANCH  32   9
ENDBRANCH   1  27
ENDBRANCH   7   1
ENDBRANCH  17   7
ENDBRANCH  11  17
BRANCH  13  18
ATOM     18  C   UNL     1      -4.195 -11.890  14.785  0.00  0.00    +0.103 C 
BRANCH  18  22
ATOM      2  O   UNL     1      -2.816 -10.798  16.375  0.00  0.00    -0.276 OA
ATOM      3  O   UNL     1      -6.500 -12.429  19.245  0.00  0.00    -0.377 OA
ATOM      8  N   UNL     1      -4.579 -12.052  17.216  0.00  0.00    -0.297 N 
ATOM     22  C   UNL     1      -3.794 -11.528  16.192  0.00  0.00    +0.216 C 
ATOM     23  C   UNL     1      -4.263 -11.747  18.612  0.00  0.00    +0.136 C 
ATOM     24  C   UNL     1      -5.668 -13.022  17.044  0.00  0.00    +0.136 C 
ATOM     25  C   UNL     1      -5.529 -11.386  19.375  0.00  0.00    +0.179 C 
ATOM     26  C   UNL     1      -6.875 -12.612  17.877  0.00  0.00    +0.179 C 
ENDBRANCH  18  22
ENDBRANCH  13  18
TORSDOF 8
ENDMDL
MODEL 10
REMARK VINA RESULT:      -6.3     16.850     19.135
REMARK  Name = 38028057
REMARK  12 active torsions:
REMARK  status: ('A' for Active; 'I' for Inactive)
REMARK    1  A    between atoms: S_1  and  N_7
REMARK    2  A    between atoms: S_1  and  C_27
REMARK    3  A    between atoms: N_7  and  C_17
REMARK    4  A    between atoms: N_9  and  C_32
REMARK    5  A    between atoms: C_10  and  C_14
REMARK    6  A    between atoms: C_11  and  C_17
REMARK    7  A    between atoms: C_13  and  C_18
REMARK    8  A    between atoms: C_14  and  C_19
REMARK    9  A    between atoms: C_14  and  C_20
REMARK   10  A    between atoms: C_15  and  C_21
REMARK   11  A    between atoms: C_18  and  C_22
REMARK   12  A    between atoms: C_33  and  C_34
REMARK                            x       y       z     vdW  Elec       q    Type
REMARK                         _______ _______ _______ _____ _____    ______ ____
ROOT
ATOM     10  C   UNL     1       9.832   6.232   6.972  0.00  0.00    +0.000 C 
ATOM     11  C   UNL     1       9.286   5.671   5.635  0.00  0.00    +0.030 C 
ATOM     12  C   UNL     1       8.833   7.223   7.587  0.00  0.00    +0.012 C 
ATOM     13  C   UNL     1       8.534   8.407   6.647  0.00  0.00    +0.023 C 
ATOM     15  C   UNL     1       8.246   7.944   5.233  0.00  0.00    -0.073 C 
ATOM     16  C   UNL     1       8.578   6.714   4.803  0.00  0.00    -0.023 C 
ATOM     21  C   UNL     1       7.527   8.914   4.337  0.00  0.00    +0.039 C 
ENDROOT
BRANCH  10  14
ATOM     14  C   UNL     1      10.137   5.113   7.975  0.00  0.00    -0.013 C 
ATOM     19  C   UNL     1       9.592   5.473   9.353  0.00  0.00    +0.007 C 
ATOM     20  C   UNL     1       9.553   3.791   7.490  0.00  0.00    +0.007 C 
ENDBRANCH  10  14
BRANCH  11  17
ATOM     17  C   UNL     1      10.404   5.029   4.806  0.00  0.00    +0.113 C 
BRANCH  17   7
ATOM      7  N   UNL     1      11.633   5.825   4.958  0.00  0.00    -0.189 NA
ATOM     35  H   UNL     1      11.873   6.111   5.914  0.00  0.00    +0.148 HD
BRANCH   7   1
ATOM      1  S   UNL     1      12.167   6.827   3.688  0.00  0.00    +0.058 S 
ATOM      4  O   UNL     1      13.616   6.890   3.705  0.00  0.00    -0.153 OA
ATOM      5  O   UNL     1      11.384   8.047   3.683  0.00  0.00    -0.153 OA
BRANCH   1  27
ATOM     27  C   UNL     1      11.680   5.895   2.266  0.00  0.00    +0.105 A 
ATOM     28  C   UNL     1      10.548   6.270   1.541  0.00  0.00    +0.030 A 
ATOM     29  C   UNL     1      12.426   4.785   1.870  0.00  0.00    +0.030 A 
ATOM     30  C   UNL     1      10.163   5.535   0.421  0.00  0.00    +0.025 A 
ATOM     31  C   UNL     1      12.040   4.050   0.749  0.00  0.00    +0.025 A 
ATOM     32  C   UNL     1      10.910   4.424   0.024  0.00  0.00    +0.033 A 
BRANCH  32   9
ATOM      6  O   UNL     1      11.902   4.532  -2.817  0.00  0.00    -0.276 OA
ATOM      9  N   UNL     1      10.525   3.689  -1.098  0.00  0.00    -0.286 N 
ATOM     33  C   UNL     1      11.023   3.782  -2.405  0.00  0.00    +0.214 C 
ATOM     34  C   UNL     1      10.340   2.809  -3.332  0.00  0.00    +0.109 C 
ATOM     36  H   UNL     1       9.792   3.002  -0.937  0.00  0.00    +0.155 HD
ENDBRANCH  32   9
ENDBRANCH   1  27
ENDBRANCH   7   1
ENDBRANCH  17   7
ENDBRANCH  11  17
BRANCH  13  18
ATOM     18  C   UNL     1       9.674   9.430   6.669  0.00  0.00    +0.103 C 
BRANCH  18  22
ATOM      2  O   UNL     1       9.426  10.286   8.866  0.00  0.00    -0.276 OA
ATOM      3  O   UNL     1       9.063  14.417   6.169  0.00  0.00    -0.377 OA
ATOM      8  N   UNL     1       9.019  11.765   7.123  0.00  0.00    -0.297 N 
ATOM     22  C   UNL     1       9.363  10.524   7.657  0.00  0.00    +0.216 C 
ATOM     23  C   UNL     1       8.707  12.884   8.011  0.00  0.00    +0.136 C 
ATOM     24  C   UNL     1       8.811  12.050   5.699  0.00  0.00    +0.136 C 
ATOM     25  C   UNL     1       9.402  14.150   7.534  0.00  0.00    +0.179 C 
ATOM     26  C   UNL     1       9.497  13.355   5.316  0.00  0.00    +0.179 C 
ENDBRANCH  18  22
ENDBRANCH  13  18
TORSDOF 8
ENDMDL
