MODEL 1
REMARK VINA RESULT:      -7.3      0.000      0.000
REMARK  Name = 75536074
REMARK  5 active torsions:
REMARK  status: ('A' for Active; 'I' for Inactive)
REMARK    1  A    between atoms: O_1  and  C_8
REMARK    2  A    between atoms: O_2  and  C_10
REMARK    3  A    between atoms: N_4  and  C_6
REMARK    4  A    between atoms: C_7  and  C_15
REMARK    5  A    between atoms: C_11  and  C_16
REMARK                            x       y       z     vdW  Elec       q    Type
REMARK                         _______ _______ _______ _____ _____    ______ ____
ROOT
ATOM      6  C   UNL     1      13.050   7.106  20.126  0.00  0.00    +0.111 C 
ATOM      7  C   UNL     1      13.094   8.628  19.860  0.00  0.00    +0.046 C 
ATOM      8  C   UNL     1      12.373   7.004  21.492  0.00  0.00    +0.164 C 
ATOM      9  C   UNL     1      11.968   9.242  20.731  0.00  0.00    +0.044 C 
ATOM     10  C   UNL     1      11.280   8.064  21.416  0.00  0.00    +0.145 C 
ENDROOT
BRANCH   7  15
ATOM      5  N   UNL     1      11.800   8.811  16.299  0.00  0.00    -0.263 NA
ATOM     15  C   UNL     1      13.004   8.973  18.388  0.00  0.00    -0.024 A 
ATOM     17  C   UNL     1      13.989   9.735  17.769  0.00  0.00    +0.007 A 
ATOM     18  C   UNL     1      11.939   8.539  17.615  0.00  0.00    +0.114 A 
ATOM     19  C   UNL     1      13.881  10.036  16.416  0.00  0.00    +0.020 A 
ATOM     20  C   UNL     1      12.777   9.554  15.732  0.00  0.00    +0.111 A 
ENDBRANCH   7  15
BRANCH   6   4
ATOM      3  O   UNL     1      15.217   7.763  21.893  0.00  0.00    -0.276 OA
ATOM      4  N   UNL     1      14.367   6.521  20.134  0.00  0.00    -0.309 N 
ATOM     16  C   UNL     1      15.365   6.896  21.025  0.00  0.00    +0.216 C 
ATOM     21  H   UNL     1      14.562   5.769  19.478  0.00  0.00    +0.149 HD
BRANCH  16  11
ATOM     11  C   UNL     1      16.679   6.135  20.826  0.00  0.00    +0.075 C 
ATOM     12  C   UNL     1      17.313   6.141  19.410  0.00  0.00    +0.013 C 
ATOM     13  C   UNL     1      17.983   6.819  21.313  0.00  0.00    +0.013 C 
ATOM     14  C   UNL     1      18.692   6.190  20.098  0.00  0.00    +0.001 C 
ENDBRANCH  16  11
ENDBRANCH   6   4
BRANCH   8   1
ATOM      1  O   UNL     1      11.825   5.720  21.725  0.00  0.00    -0.387 OA
ATOM     22  H   UNL     1      12.300   5.332  22.478  0.00  0.00    +0.210 HD
ENDBRANCH   8   1
BRANCH  10   2
ATOM      2  O   UNL     1      10.200   7.625  20.597  0.00  0.00    -0.389 OA
ATOM     23  H   UNL     1      10.569   7.030  19.922  0.00  0.00    +0.210 HD
ENDBRANCH  10   2
TORSDOF 5
ENDMDL
MODEL 2
REMARK VINA RESULT:      -7.2      2.166      2.524
REMARK  Name = 75536074
REMARK  5 active torsions:
REMARK  status: ('A' for Active; 'I' for Inactive)
REMARK    1  A    between atoms: O_1  and  C_8
REMARK    2  A    between atoms: O_2  and  C_10
REMARK    3  A    between atoms: N_4  and  C_6
REMARK    4  A    between atoms: C_7  and  C_15
REMARK    5  A    between atoms: C_11  and  C_16
REMARK                            x       y       z     vdW  Elec       q    Type
REMARK                         _______ _______ _______ _____ _____    ______ ____
ROOT
ATOM      6  C   UNL     1      12.962   7.292  20.847  0.00  0.00    +0.111 C 
ATOM      7  C   UNL     1      12.916   8.492  21.819  0.00  0.00    +0.046 C 
ATOM      8  C   UNL     1      11.826   6.394  21.336  0.00  0.00    +0.164 C 
ATOM      9  C   UNL     1      11.473   8.521  22.386  0.00  0.00    +0.044 C 
ATOM     10  C   UNL     1      10.726   7.389  21.686  0.00  0.00    +0.145 C 
ENDROOT
BRANCH   7  15
ATOM      5  N   UNL     1      13.071  11.439  19.436  0.00  0.00    -0.263 NA
ATOM     15  C   UNL     1      13.362   9.790  21.179  0.00  0.00    -0.024 A 
ATOM     17  C   UNL     1      14.427  10.517  21.699  0.00  0.00    +0.007 A 
ATOM     18  C   UNL     1      12.723  10.289  20.055  0.00  0.00    +0.114 A 
ATOM     19  C   UNL     1      14.815  11.704  21.089  0.00  0.00    +0.020 A 
ATOM     20  C   UNL     1      14.111  12.118  19.970  0.00  0.00    +0.111 A 
ENDBRANCH   7  15
BRANCH   6   4
ATOM      3  O   UNL     1      15.152   7.647  19.023  0.00  0.00    -0.276 OA
ATOM      4  N   UNL     1      14.235   6.616  20.882  0.00  0.00    -0.309 N 
ATOM     16  C   UNL     1      15.248   6.845  19.958  0.00  0.00    +0.216 C 
ATOM     21  H   UNL     1      14.413   5.968  21.645  0.00  0.00    +0.149 HD
BRANCH  16  11
ATOM     11  C   UNL     1      16.500   5.998  20.202  0.00  0.00    +0.075 C 
ATOM     12  C   UNL     1      17.534   5.882  19.051  0.00  0.00    +0.013 C 
ATOM     13  C   UNL     1      17.641   6.632  21.040  0.00  0.00    +0.013 C 
ATOM     14  C   UNL     1      18.637   5.891  20.128  0.00  0.00    +0.001 C 
ENDBRANCH  16  11
ENDBRANCH   6   4
BRANCH   8   1
ATOM      1  O   UNL     1      11.396   5.484  20.342  0.00  0.00    -0.387 OA
ATOM     22  H   UNL     1      11.858   5.711  19.518  0.00  0.00    +0.210 HD
ENDBRANCH   8   1
BRANCH  10   2
ATOM      2  O   UNL     1      10.112   7.905  20.508  0.00  0.00    -0.389 OA
ATOM     23  H   UNL     1       9.580   7.191  20.119  0.00  0.00    +0.210 HD
ENDBRANCH  10   2
TORSDOF 5
ENDMDL
MODEL 3
REMARK VINA RESULT:      -6.8      2.466      5.508
REMARK  Name = 75536074
REMARK  5 active torsions:
REMARK  status: ('A' for Active; 'I' for Inactive)
REMARK    1  A    between atoms: O_1  and  C_8
REMARK    2  A    between atoms: O_2  and  C_10
REMARK    3  A    between atoms: N_4  and  C_6
REMARK    4  A    between atoms: C_7  and  C_15
REMARK    5  A    between atoms: C_11  and  C_16
REMARK                            x       y       z     vdW  Elec       q    Type
REMARK                         _______ _______ _______ _____ _____    ______ ____
ROOT
ATOM      6  C   UNL     1      12.826   8.832  19.825  0.00  0.00    +0.111 C 
ATOM      7  C   UNL     1      14.088   9.020  18.952  0.00  0.00    +0.046 C 
ATOM      8  C   UNL     1      11.679   8.984  18.827  0.00  0.00    +0.164 C 
ATOM      9  C   UNL     1      13.655   8.677  17.503  0.00  0.00    +0.044 C 
ATOM     10  C   UNL     1      12.192   8.249  17.594  0.00  0.00    +0.145 C 
ENDROOT
BRANCH   7  15
ATOM      5  N   UNL     1      17.264   8.130  20.826  0.00  0.00    -0.263 NA
ATOM     15  C   UNL     1      15.277   8.227  19.453  0.00  0.00    -0.024 A 
ATOM     17  C   UNL     1      15.495   6.920  19.033  0.00  0.00    +0.007 A 
ATOM     18  C   UNL     1      16.183   8.782  20.343  0.00  0.00    +0.114 A 
ATOM     19  C   UNL     1      16.596   6.216  19.508  0.00  0.00    +0.020 A 
ATOM     20  C   UNL     1      17.443   6.861  20.395  0.00  0.00    +0.111 A 
ENDBRANCH   7  15
BRANCH   6   4
ATOM      3  O   UNL     1      11.446   8.552  22.328  0.00  0.00    -0.276 OA
ATOM      4  N   UNL     1      12.751   9.806  20.883  0.00  0.00    -0.309 N 
ATOM     16  C   UNL     1      12.059   9.594  22.071  0.00  0.00    +0.216 C 
ATOM     21  H   UNL     1      13.262  10.678  20.771  0.00  0.00    +0.149 HD
BRANCH  16  11
ATOM     11  C   UNL     1      12.119  10.782  23.033  0.00  0.00    +0.075 C 
ATOM     12  C   UNL     1      11.895  12.202  22.449  0.00  0.00    +0.013 C 
ATOM     13  C   UNL     1      10.874  11.051  23.919  0.00  0.00    +0.013 C 
ATOM     14  C   UNL     1      11.162  12.555  23.758  0.00  0.00    +0.001 C 
ENDBRANCH  16  11
ENDBRANCH   6   4
BRANCH   8   1
ATOM      1  O   UNL     1      10.476   8.409  19.301  0.00  0.00    -0.387 OA
ATOM     22  H   UNL     1      10.699   7.552  19.701  0.00  0.00    +0.210 HD
ENDBRANCH   8   1
BRANCH  10   2
ATOM      2  O   UNL     1      12.140   6.838  17.783  0.00  0.00    -0.389 OA
ATOM     23  H   UNL     1      11.305   6.523  17.396  0.00  0.00    +0.210 HD
ENDBRANCH  10   2
TORSDOF 5
ENDMDL
MODEL 4
REMARK VINA RESULT:      -6.5      2.019      5.265
REMARK  Name = 75536074
REMARK  5 active torsions:
REMARK  status: ('A' for Active; 'I' for Inactive)
REMARK    1  A    between atoms: O_1  and  C_8
REMARK    2  A    between atoms: O_2  and  C_10
REMARK    3  A    between atoms: N_4  and  C_6
REMARK    4  A    between atoms: C_7  and  C_15
REMARK    5  A    between atoms: C_11  and  C_16
REMARK                            x       y       z     vdW  Elec       q    Type
REMARK                         _______ _______ _______ _____ _____    ______ ____
ROOT
ATOM      6  C   UNL     1      14.565   7.638  19.669  0.00  0.00    +0.111 C 
ATOM      7  C   UNL     1      14.175   8.420  20.944  0.00  0.00    +0.046 C 
ATOM      8  C   UNL     1      16.064   7.398  19.845  0.00  0.00    +0.164 C 
ATOM      9  C   UNL     1      15.257   8.075  22.000  0.00  0.00    +0.044 C 
ATOM     10  C   UNL     1      16.191   7.070  21.328  0.00  0.00    +0.145 C 
ENDROOT
BRANCH   7  15
ATOM      5  N   UNL     1      10.956   6.565  21.707  0.00  0.00    -0.263 NA
ATOM     15  C   UNL     1      12.755   8.148  21.394  0.00  0.00    -0.024 A 
ATOM     17  C   UNL     1      11.952   9.170  21.889  0.00  0.00    +0.007 A 
ATOM     18  C   UNL     1      12.214   6.874  21.324  0.00  0.00    +0.114 A 
ATOM     19  C   UNL     1      10.651   8.891  22.293  0.00  0.00    +0.020 A 
ATOM     20  C   UNL     1      10.204   7.584  22.182  0.00  0.00    +0.111 A 
ENDBRANCH   7  15
BRANCH   6   4
ATOM      3  O   UNL     1      12.416   7.164  17.824  0.00  0.00    -0.276 OA
ATOM      4  N   UNL     1      14.276   8.382  18.470  0.00  0.00    -0.309 N 
ATOM     16  C   UNL     1      13.212   8.088  17.625  0.00  0.00    +0.216 C 
ATOM     21  H   UNL     1      14.859   9.186  18.251  0.00  0.00    +0.149 HD
BRANCH  16  11
ATOM     11  C   UNL     1      13.122   9.016  16.411  0.00  0.00    +0.075 C 
ATOM     12  C   UNL     1      13.431  10.521  16.623  0.00  0.00    +0.013 C 
ATOM     13  C   UNL     1      14.309   9.006  15.413  0.00  0.00    +0.013 C 
ATOM     14  C   UNL     1      14.081  10.518  15.225  0.00  0.00    +0.001 C 
ENDBRANCH  16  11
ENDBRANCH   6   4
BRANCH   8   1
ATOM      1  O   UNL     1      16.534   6.330  19.043  0.00  0.00    -0.387 OA
ATOM     22  H   UNL     1      17.363   6.619  18.629  0.00  0.00    +0.210 HD
ENDBRANCH   8   1
BRANCH  10   2
ATOM      2  O   UNL     1      15.719   5.754  21.602  0.00  0.00    -0.389 OA
ATOM     23  H   UNL     1      16.386   5.315  22.156  0.00  0.00    +0.210 HD
ENDBRANCH  10   2
TORSDOF 5
ENDMDL
MODEL 5
REMARK VINA RESULT:      -6.0      2.922      5.109
REMARK  Name = 75536074
REMARK  5 active torsions:
REMARK  status: ('A' for Active; 'I' for Inactive)
REMARK    1  A    between atoms: O_1  and  C_8
REMARK    2  A    between atoms: O_2  and  C_10
REMARK    3  A    between atoms: N_4  and  C_6
REMARK    4  A    between atoms: C_7  and  C_15
REMARK    5  A    between atoms: C_11  and  C_16
REMARK                            x       y       z     vdW  Elec       q    Type
REMARK                         _______ _______ _______ _____ _____    ______ ____
ROOT
ATOM      6  C   UNL     1      12.692   8.822  19.017  0.00  0.00    +0.111 C 
ATOM      7  C   UNL     1      13.152   9.217  20.439  0.00  0.00    +0.046 C 
ATOM      8  C   UNL     1      12.794   7.297  19.022  0.00  0.00    +0.164 C 
ATOM      9  C   UNL     1      12.917   7.964  21.323  0.00  0.00    +0.044 C 
ATOM     10  C   UNL     1      12.281   6.920  20.406  0.00  0.00    +0.145 C 
ENDROOT
BRANCH   7  15
ATOM      5  N   UNL     1      10.942  11.512  22.498  0.00  0.00    -0.263 NA
ATOM     15  C   UNL     1      12.482  10.475  20.949  0.00  0.00    -0.024 A 
ATOM     17  C   UNL     1      12.755  11.714  20.381  0.00  0.00    +0.007 A 
ATOM     18  C   UNL     1      11.575  10.428  21.996  0.00  0.00    +0.114 A 
ATOM     19  C   UNL     1      12.124  12.852  20.869  0.00  0.00    +0.020 A 
ATOM     20  C   UNL     1      11.233  12.699  21.920  0.00  0.00    +0.111 A 
ENDBRANCH   7  15
BRANCH   6   4
ATOM      3  O   UNL     1      12.097   9.024  16.215  0.00  0.00    -0.276 OA
ATOM      4  N   UNL     1      13.521   9.414  17.998  0.00  0.00    -0.309 N 
ATOM     16  C   UNL     1      13.160   9.472  16.656  0.00  0.00    +0.216 C 
ATOM     21  H   UNL     1      14.398   9.844  18.281  0.00  0.00    +0.149 HD
BRANCH  16  11
ATOM     11  C   UNL     1      14.213  10.139  15.769  0.00  0.00    +0.075 C 
ATOM     12  C   UNL     1      13.760  11.313  14.861  0.00  0.00    +0.013 C 
ATOM     13  C   UNL     1      15.177  11.152  16.440  0.00  0.00    +0.013 C 
ATOM     14  C   UNL     1      15.127  11.968  15.135  0.00  0.00    +0.001 C 
ENDBRANCH  16  11
ENDBRANCH   6   4
BRANCH   8   1
ATOM      1  O   UNL     1      12.006   6.704  18.006  0.00  0.00    -0.387 OA
ATOM     22  H   UNL     1      11.857   7.377  17.322  0.00  0.00    +0.210 HD
ENDBRANCH   8   1
BRANCH  10   2
ATOM      2  O   UNL     1      10.864   7.051  20.479  0.00  0.00    -0.389 OA
ATOM     23  H   UNL     1      10.661   7.589  21.263  0.00  0.00    +0.210 HD
ENDBRANCH  10   2
TORSDOF 5
ENDMDL
MODEL 6
REMARK VINA RESULT:      -6.0     30.806     31.857
REMARK  Name = 75536074
REMARK  5 active torsions:
REMARK  status: ('A' for Active; 'I' for Inactive)
REMARK    1  A    between atoms: O_1  and  C_8
REMARK    2  A    between atoms: O_2  and  C_10
REMARK    3  A    between atoms: N_4  and  C_6
REMARK    4  A    between atoms: C_7  and  C_15
REMARK    5  A    between atoms: C_11  and  C_16
REMARK                            x       y       z     vdW  Elec       q    Type
REMARK                         _______ _______ _______ _____ _____    ______ ____
ROOT
ATOM      6  C   UNL     1     -16.021   4.331  30.228  0.00  0.00    +0.111 C 
ATOM      7  C   UNL     1     -15.275   3.456  29.195  0.00  0.00    +0.046 C 
ATOM      8  C   UNL     1     -16.795   5.322  29.360  0.00  0.00    +0.164 C 
ATOM      9  C   UNL     1     -16.082   3.578  27.876  0.00  0.00    +0.044 C 
ATOM     10  C   UNL     1     -17.285   4.460  28.203  0.00  0.00    +0.145 C 
ENDROOT
BRANCH   7  15
ATOM      5  N   UNL     1     -15.970  -0.178  30.030  0.00  0.00    -0.263 NA
ATOM     15  C   UNL     1     -15.064   2.033  29.668  0.00  0.00    -0.024 A 
ATOM     17  C   UNL     1     -13.832   1.617  30.161  0.00  0.00    +0.007 A 
ATOM     18  C   UNL     1     -16.092   1.105  29.624  0.00  0.00    +0.114 A 
ATOM     19  C   UNL     1     -13.668   0.305  30.590  0.00  0.00    +0.020 A 
ATOM     20  C   UNL     1     -14.758  -0.546  30.505  0.00  0.00    +0.111 A 
ENDBRANCH   7  15
BRANCH   6   4
ATOM      3  O   UNL     1     -15.304   3.500  32.882  0.00  0.00    -0.276 OA
ATOM      4  N   UNL     1     -15.113   4.998  31.127  0.00  0.00    -0.309 N 
ATOM     16  C   UNL     1     -14.817   4.529  32.402  0.00  0.00    +0.216 C 
ATOM     21  H   UNL     1     -14.636   5.832  30.795  0.00  0.00    +0.149 HD
BRANCH  16  11
ATOM     11  C   UNL     1     -13.833   5.418  33.166  0.00  0.00    +0.075 C 
ATOM     12  C   UNL     1     -13.820   6.935  32.839  0.00  0.00    +0.013 C 
ATOM     13  C   UNL     1     -14.212   5.827  34.614  0.00  0.00    +0.013 C 
ATOM     14  C   UNL     1     -13.549   7.190  34.335  0.00  0.00    +0.001 C 
ENDBRANCH  16  11
ENDBRANCH   6   4
BRANCH   8   1
ATOM      1  O   UNL     1     -17.879   5.910  30.055  0.00  0.00    -0.387 OA
ATOM     22  H   UNL     1     -17.539   6.694  30.517  0.00  0.00    +0.210 HD
ENDBRANCH   8   1
BRANCH  10   2
ATOM      2  O   UNL     1     -18.366   3.626  28.610  0.00  0.00    -0.389 OA
ATOM     23  H   UNL     1     -18.581   3.042  27.864  0.00  0.00    +0.210 HD
ENDBRANCH  10   2
TORSDOF 5
ENDMDL
MODEL 7
REMARK VINA RESULT:      -5.9     25.469     26.910
REMARK  Name = 75536074
REMARK  5 active torsions:
REMARK  status: ('A' for Active; 'I' for Inactive)
REMARK    1  A    between atoms: O_1  and  C_8
REMARK    2  A    between atoms: O_2  and  C_10
REMARK    3  A    between atoms: N_4  and  C_6
REMARK    4  A    between atoms: C_7  and  C_15
REMARK    5  A    between atoms: C_11  and  C_16
REMARK                            x       y       z     vdW  Elec       q    Type
REMARK                         _______ _______ _______ _____ _____    ______ ____
ROOT
ATOM      6  C   UNL     1      -3.065 -12.799  13.902  0.00  0.00    +0.111 C 
ATOM      7  C   UNL     1      -3.810 -12.428  12.600  0.00  0.00    +0.046 C 
ATOM      8  C   UNL     1      -3.258 -14.311  14.003  0.00  0.00    +0.164 C 
ATOM      9  C   UNL     1      -3.858 -13.728  11.755  0.00  0.00    +0.044 C 
ATOM     10  C   UNL     1      -3.096 -14.777  12.561  0.00  0.00    +0.145 C 
ENDROOT
BRANCH   7  15
ATOM      5  N   UNL     1      -1.312  -9.756  11.591  0.00  0.00    -0.263 NA
ATOM     15  C   UNL     1      -3.197 -11.241  11.885  0.00  0.00    -0.024 A 
ATOM     17  C   UNL     1      -3.902 -10.553  10.905  0.00  0.00    +0.007 A 
ATOM     18  C   UNL     1      -1.917 -10.807  12.189  0.00  0.00    +0.114 A 
ATOM     19  C   UNL     1      -3.315  -9.466  10.267  0.00  0.00    +0.020 A 
ATOM     20  C   UNL     1      -2.029  -9.111  10.643  0.00  0.00    +0.111 A 
ENDBRANCH   7  15
BRANCH   6   4
ATOM      3  O   UNL     1      -1.655 -11.028  15.670  0.00  0.00    -0.276 OA
ATOM      4  N   UNL     1      -3.605 -12.110  15.047  0.00  0.00    -0.309 N 
ATOM     16  C   UNL     1      -2.853 -11.266  15.857  0.00  0.00    +0.216 C 
ATOM     21  H   UNL     1      -4.595 -12.218  15.250  0.00  0.00    +0.149 HD
BRANCH  16  11
ATOM     11  C   UNL     1      -3.649 -10.662  17.016  0.00  0.00    +0.075 C 
ATOM     12  C   UNL     1      -5.094 -10.177  16.728  0.00  0.00    +0.013 C 
ATOM     13  C   UNL     1      -4.280 -11.643  18.039  0.00  0.00    +0.013 C 
ATOM     14  C   UNL     1      -5.473 -10.672  18.138  0.00  0.00    +0.001 C 
ENDBRANCH  16  11
ENDBRANCH   6   4
BRANCH   8   1
ATOM      1  O   UNL     1      -2.299 -14.919  14.848  0.00  0.00    -0.387 OA
ATOM     22  H   UNL     1      -1.863 -15.621  14.337  0.00  0.00    +0.210 HD
ENDBRANCH   8   1
BRANCH  10   2
ATOM      2  O   UNL     1      -1.727 -14.752  12.167  0.00  0.00    -0.389 OA
ATOM     23  H   UNL     1      -1.393 -15.663  12.216  0.00  0.00    +0.210 HD
ENDBRANCH  10   2
TORSDOF 5
ENDMDL
MODEL 8
REMARK VINA RESULT:      -5.8     32.375     34.141
REMARK  Name = 75536074
REMARK  5 active torsions:
REMARK  status: ('A' for Active; 'I' for Inactive)
REMARK    1  A    between atoms: O_1  and  C_8
REMARK    2  A    between atoms: O_2  and  C_10
REMARK    3  A    between atoms: N_4  and  C_6
REMARK    4  A    between atoms: C_7  and  C_15
REMARK    5  A    between atoms: C_11  and  C_16
REMARK                            x       y       z     vdW  Elec       q    Type
REMARK                         _______ _______ _______ _____ _____    ______ ____
ROOT
ATOM      6  C   UNL     1       0.041 -13.348  -3.469  0.00  0.00    +0.111 C 
ATOM      7  C   UNL     1       0.159 -14.573  -2.533  0.00  0.00    +0.046 C 
ATOM      8  C   UNL     1      -1.326 -13.534  -4.126  0.00  0.00    +0.164 C 
ATOM      9  C   UNL     1      -1.296 -15.034  -2.255  0.00  0.00    +0.044 C 
ATOM     10  C   UNL     1      -2.196 -14.037  -2.981  0.00  0.00    +0.145 C 
ENDROOT
BRANCH   7  15
ATOM      5  N   UNL     1       1.024 -13.798   1.078  0.00  0.00    -0.263 NA
ATOM     15  C   UNL     1       0.973 -14.290  -1.288  0.00  0.00    -0.024 A 
ATOM     17  C   UNL     1       2.362 -14.254  -1.333  0.00  0.00    +0.007 A 
ATOM     18  C   UNL     1       0.357 -14.057  -0.069  0.00  0.00    +0.114 A 
ATOM     19  C   UNL     1       3.084 -13.990  -0.174  0.00  0.00    +0.020 A 
ATOM     20  C   UNL     1       2.374 -13.770   0.995  0.00  0.00    +0.111 A 
ENDBRANCH   7  15
BRANCH   6   4
ATOM      3  O   UNL     1       0.963 -11.045  -4.914  0.00  0.00    -0.276 OA
ATOM      4  N   UNL     1       1.104 -13.306  -4.440  0.00  0.00    -0.309 N 
ATOM     16  C   UNL     1       1.492 -12.145  -5.100  0.00  0.00    +0.216 C 
ATOM     21  H   UNL     1       1.621 -14.162  -4.623  0.00  0.00    +0.149 HD
BRANCH  16  11
ATOM     11  C   UNL     1       2.638 -12.361  -6.091  0.00  0.00    +0.075 C 
ATOM     12  C   UNL     1       3.497 -13.644  -5.942  0.00  0.00    +0.013 C 
ATOM     13  C   UNL     1       2.272 -12.881  -7.506  0.00  0.00    +0.013 C 
ATOM     14  C   UNL     1       3.585 -13.688  -7.480  0.00  0.00    +0.001 C 
ENDBRANCH  16  11
ENDBRANCH   6   4
BRANCH   8   1
ATOM      1  O   UNL     1      -1.833 -12.326  -4.662  0.00  0.00    -0.387 OA
ATOM     22  H   UNL     1      -1.099 -11.876  -5.113  0.00  0.00    +0.210 HD
ENDBRANCH   8   1
BRANCH  10   2
ATOM      2  O   UNL     1      -2.521 -12.978  -2.084  0.00  0.00    -0.389 OA
ATOM     23  H   UNL     1      -3.135 -12.383  -2.547  0.00  0.00    +0.210 HD
ENDBRANCH  10   2
TORSDOF 5
ENDMDL
MODEL 9
REMARK VINA RESULT:      -5.8     25.747     27.208
REMARK  Name = 75536074
REMARK  5 active torsions:
REMARK  status: ('A' for Active; 'I' for Inactive)
REMARK    1  A    between atoms: O_1  and  C_8
REMARK    2  A    between atoms: O_2  and  C_10
REMARK    3  A    between atoms: N_4  and  C_6
REMARK    4  A    between atoms: C_7  and  C_15
REMARK    5  A    between atoms: C_11  and  C_16
REMARK                            x       y       z     vdW  Elec       q    Type
REMARK                         _______ _______ _______ _____ _____    ______ ____
ROOT
ATOM      6  C   UNL     1      -5.202 -11.578  17.286  0.00  0.00    +0.111 C 
ATOM      7  C   UNL     1      -5.931 -10.300  17.756  0.00  0.00    +0.046 C 
ATOM      8  C   UNL     1      -4.740 -12.224  18.592  0.00  0.00    +0.164 C 
ATOM      9  C   UNL     1      -6.361 -10.572  19.221  0.00  0.00    +0.044 C 
ATOM     10  C   UNL     1      -5.924 -12.003  19.524  0.00  0.00    +0.145 C 
ENDROOT
BRANCH   7  15
ATOM      5  N   UNL     1      -8.048  -9.931  14.629  0.00  0.00    -0.263 NA
ATOM     15  C   UNL     1      -7.065  -9.894  16.837  0.00  0.00    -0.024 A 
ATOM     17  C   UNL     1      -8.134  -9.141  17.309  0.00  0.00    +0.007 A 
ATOM     18  C   UNL     1      -7.069 -10.260  15.501  0.00  0.00    +0.114 A 
ATOM     19  C   UNL     1      -9.161  -8.782  16.443  0.00  0.00    +0.020 A 
ATOM     20  C   UNL     1      -9.071  -9.198  15.124  0.00  0.00    +0.111 A 
ENDBRANCH   7  15
BRANCH   6   4
ATOM      3  O   UNL     1      -4.063 -13.305  15.293  0.00  0.00    -0.276 OA
ATOM      4  N   UNL     1      -4.095 -11.279  16.413  0.00  0.00    -0.309 N 
ATOM     16  C   UNL     1      -3.600 -12.173  15.470  0.00  0.00    +0.216 C 
ATOM     21  H   UNL     1      -3.681 -10.352  16.464  0.00  0.00    +0.149 HD
BRANCH  16  11
ATOM     11  C   UNL     1      -2.415 -11.626  14.672  0.00  0.00    +0.075 C 
ATOM     12  C   UNL     1      -2.698 -10.528  13.612  0.00  0.00    +0.013 C 
ATOM     13  C   UNL     1      -1.500 -10.585  15.371  0.00  0.00    +0.013 C 
ATOM     14  C   UNL     1      -1.348  -9.894  14.003  0.00  0.00    +0.001 C 
ENDBRANCH  16  11
ENDBRANCH   6   4
BRANCH   8   1
ATOM      1  O   UNL     1      -4.459 -13.602  18.438  0.00  0.00    -0.387 OA
ATOM     22  H   UNL     1      -3.988 -13.713  17.595  0.00  0.00    +0.210 HD
ENDBRANCH   8   1
BRANCH  10   2
ATOM      2  O   UNL     1      -6.996 -12.886  19.205  0.00  0.00    -0.389 OA
ATOM     23  H   UNL     1      -6.610 -13.758  19.015  0.00  0.00    +0.210 HD
ENDBRANCH  10   2
TORSDOF 5
ENDMDL
MODEL 10
REMARK VINA RESULT:      -5.8     30.849     32.347
REMARK  Name = 75536074
REMARK  5 active torsions:
REMARK  status: ('A' for Active; 'I' for Inactive)
REMARK    1  A    between atoms: O_1  and  C_8
REMARK    2  A    between atoms: O_2  and  C_10
REMARK    3  A    between atoms: N_4  and  C_6
REMARK    4  A    between atoms: C_7  and  C_15
REMARK    5  A    between atoms: C_11  and  C_16
REMARK                            x       y       z     vdW  Elec       q    Type
REMARK                         _______ _______ _______ _____ _____    ______ ____
ROOT
ATOM      6  C   UNL     1     -15.108   2.775  31.158  0.00  0.00    +0.111 C 
ATOM      7  C   UNL     1     -16.086   1.914  30.327  0.00  0.00    +0.046 C 
ATOM      8  C   UNL     1     -14.143   1.747  31.748  0.00  0.00    +0.164 C 
ATOM      9  C   UNL     1     -15.322   0.604  30.000  0.00  0.00    +0.044 C 
ATOM     10  C   UNL     1     -13.926   0.774  30.595  0.00  0.00    +0.145 C 
ENDROOT
BRANCH   7  15
ATOM      5  N   UNL     1     -18.498   3.694  28.003  0.00  0.00    -0.263 NA
ATOM     15  C   UNL     1     -16.628   2.640  29.113  0.00  0.00    -0.024 A 
ATOM     17  C   UNL     1     -15.813   2.919  28.022  0.00  0.00    +0.007 A 
ATOM     18  C   UNL     1     -17.952   3.045  29.055  0.00  0.00    +0.114 A 
ATOM     19  C   UNL     1     -16.339   3.585  26.921  0.00  0.00    +0.020 A 
ATOM     20  C   UNL     1     -17.676   3.948  26.960  0.00  0.00    +0.111 A 
ENDBRANCH   7  15
BRANCH   6   4
ATOM      3  O   UNL     1     -14.156   5.143  32.476  0.00  0.00    -0.276 OA
ATOM      4  N   UNL     1     -15.787   3.525  32.184  0.00  0.00    -0.309 N 
ATOM     16  C   UNL     1     -15.256   4.666  32.775  0.00  0.00    +0.216 C 
ATOM     21  H   UNL     1     -16.718   3.225  32.462  0.00  0.00    +0.149 HD
BRANCH  16  11
ATOM     11  C   UNL     1     -16.164   5.278  33.845  0.00  0.00    +0.075 C 
ATOM     12  C   UNL     1     -16.776   6.675  33.566  0.00  0.00    +0.013 C 
ATOM     13  C   UNL     1     -17.623   4.757  33.930  0.00  0.00    +0.013 C 
ATOM     14  C   UNL     1     -18.047   6.193  34.292  0.00  0.00    +0.001 C 
ENDBRANCH  16  11
ENDBRANCH   6   4
BRANCH   8   1
ATOM      1  O   UNL     1     -12.921   2.332  32.159  0.00  0.00    -0.387 OA
ATOM     22  H   UNL     1     -12.922   3.254  31.854  0.00  0.00    +0.210 HD
ENDBRANCH   8   1
BRANCH  10   2
ATOM      2  O   UNL     1     -13.074   1.340  29.603  0.00  0.00    -0.389 OA
ATOM     23  H   UNL     1     -12.473   1.959  30.053  0.00  0.00    +0.210 HD
ENDBRANCH  10   2
TORSDOF 5
ENDMDL
