MODEL 1
REMARK VINA RESULT:      -7.7      0.000      0.000
REMARK  Name = 40776929
REMARK  8 active torsions:
REMARK  status: ('A' for Active; 'I' for Inactive)
REMARK    1  A    between atoms: S_1  and  N_6
REMARK    2  A    between atoms: S_1  and  C_21
REMARK    3  A    between atoms: N_6  and  C_16
REMARK    4  A    between atoms: C_10  and  C_17
REMARK    5  A    between atoms: C_11  and  C_16
REMARK    6  A    between atoms: C_19  and  C_22
REMARK    7  A    between atoms: C_20  and  C_23
REMARK    8  A    between atoms: C_21  and  C_24
REMARK                            x       y       z     vdW  Elec       q    Type
REMARK                         _______ _______ _______ _____ _____    ______ ____
ROOT
ATOM      5  N   UNL     1      12.110  12.095  24.415  0.00  0.00    -0.297 NA
ATOM      9  C   UNL     1      11.253  12.239  21.960  0.00  0.00    +0.002 C 
ATOM     10  C   UNL     1      10.940  10.842  22.564  0.00  0.00    +0.055 C 
ATOM     11  C   UNL     1      13.189  12.607  23.529  0.00  0.00    +0.072 C 
ATOM     12  C   UNL     1      12.771  12.504  22.046  0.00  0.00    +0.024 C 
ATOM     13  C   UNL     1      10.558  13.280  22.863  0.00  0.00    +0.019 C 
ATOM     14  C   UNL     1      11.654  10.763  23.944  0.00  0.00    +0.094 C 
ATOM     15  C   UNL     1      10.966  13.034  24.326  0.00  0.00    +0.085 C 
ENDROOT
BRANCH  10  17
ATOM      7  N   UNL     1      10.756   8.433  22.184  0.00  0.00    -0.237 NA
ATOM      8  N   UNL     1      11.649   7.371  20.214  0.00  0.00    -0.232 NA
ATOM     17  C   UNL     1      11.204   9.613  21.707  0.00  0.00    +0.050 A 
ATOM     18  C   UNL     1      11.873   9.749  20.507  0.00  0.00    +0.052 A 
ATOM     19  C   UNL     1      12.070   8.583  19.797  0.00  0.00    +0.075 A 
ATOM     20  C   UNL     1      11.008   7.368  21.399  0.00  0.00    +0.127 A 
ATOM     23  C   UNL     1      10.530   6.046  21.896  0.00  0.00    +0.088 C 
BRANCH  19  22
ATOM      2  F   UNL     1      14.724   8.611  14.897  0.00  0.00    -0.205 F 
ATOM     22  C   UNL     1      12.757   8.590  18.528  0.00  0.00    +0.001 A 
ATOM     25  C   UNL     1      13.669   7.579  18.223  0.00  0.00    +0.013 A 
ATOM     26  C   UNL     1      12.509   9.607  17.607  0.00  0.00    +0.013 A 
ATOM     29  C   UNL     1      14.334   7.587  16.997  0.00  0.00    +0.039 A 
ATOM     30  C   UNL     1      13.173   9.614  16.379  0.00  0.00    +0.039 A 
ATOM     33  C   UNL     1      14.086   8.604  16.075  0.00  0.00    +0.123 A 
ENDBRANCH  19  22
ENDBRANCH  10  17
BRANCH  11  16
ATOM     16  C   UNL     1      14.532  11.922  23.791  0.00  0.00    +0.124 C 
BRANCH  16   6
ATOM      6  N   UNL     1      15.296  11.859  22.534  0.00  0.00    -0.193 NA
ATOM     35  H   UNL     1      16.120  12.475  22.523  0.00  0.00    +0.148 HD
BRANCH   6   1
ATOM      1  S   UNL     1      15.464  10.359  21.734  0.00  0.00    +0.034 S 
ATOM      3  O   UNL     1      15.139  10.513  20.328  0.00  0.00    -0.158 OA
ATOM      4  O   UNL     1      14.823   9.334  22.535  0.00  0.00    -0.158 OA
BRANCH   1  21
ATOM     21  C   UNL     1      17.221  10.116  21.865  0.00  0.00    +0.220 C 
BRANCH  21  24
ATOM     24  C   UNL     1      17.532   8.749  21.338  0.00  0.00    -0.025 A 
ATOM     27  C   UNL     1      18.673   8.076  21.773  0.00  0.00    +0.005 A 
ATOM     28  C   UNL     1      16.679   8.148  20.411  0.00  0.00    +0.005 A 
ATOM     31  C   UNL     1      18.964   6.804  21.282  0.00  0.00    +0.000 A 
ATOM     32  C   UNL     1      16.969   6.875  19.920  0.00  0.00    +0.000 A 
ATOM     34  C   UNL     1      18.111   6.203  20.355  0.00  0.00    +0.000 A 
ENDBRANCH  21  24
ENDBRANCH   1  21
ENDBRANCH   6   1
ENDBRANCH  16   6
ENDBRANCH  11  16
TORSDOF 7
ENDMDL
MODEL 2
REMARK VINA RESULT:      -7.7      1.945      3.855
REMARK  Name = 40776929
REMARK  8 active torsions:
REMARK  status: ('A' for Active; 'I' for Inactive)
REMARK    1  A    between atoms: S_1  and  N_6
REMARK    2  A    between atoms: S_1  and  C_21
REMARK    3  A    between atoms: N_6  and  C_16
REMARK    4  A    between atoms: C_10  and  C_17
REMARK    5  A    between atoms: C_11  and  C_16
REMARK    6  A    between atoms: C_19  and  C_22
REMARK    7  A    between atoms: C_20  and  C_23
REMARK    8  A    between atoms: C_21  and  C_24
REMARK                            x       y       z     vdW  Elec       q    Type
REMARK                         _______ _______ _______ _____ _____    ______ ____
ROOT
ATOM      5  N   UNL     1      13.032  13.230  23.511  0.00  0.00    -0.297 NA
ATOM      9  C   UNL     1      11.103  12.105  22.170  0.00  0.00    +0.002 C 
ATOM     10  C   UNL     1      11.803  11.067  23.089  0.00  0.00    +0.055 C 
ATOM     11  C   UNL     1      13.154  13.563  22.068  0.00  0.00    +0.072 C 
ATOM     12  C   UNL     1      12.148  12.743  21.231  0.00  0.00    +0.024 C 
ATOM     13  C   UNL     1      10.573  13.227  23.089  0.00  0.00    +0.019 C 
ATOM     14  C   UNL     1      13.058  11.757  23.697  0.00  0.00    +0.094 C 
ATOM     15  C   UNL     1      11.718  13.732  23.983  0.00  0.00    +0.085 C 
ENDROOT
BRANCH  10  17
ATOM      7  N   UNL     1      11.104   8.811  22.452  0.00  0.00    -0.237 NA
ATOM      8  N   UNL     1      12.633   7.217  21.487  0.00  0.00    -0.232 NA
ATOM     17  C   UNL     1      12.122   9.696  22.512  0.00  0.00    +0.050 A 
ATOM     18  C   UNL     1      13.404   9.417  22.084  0.00  0.00    +0.052 A 
ATOM     19  C   UNL     1      13.603   8.150  21.576  0.00  0.00    +0.075 A 
ATOM     20  C   UNL     1      11.424   7.609  21.936  0.00  0.00    +0.127 A 
ATOM     23  C   UNL     1      10.326   6.604  21.856  0.00  0.00    +0.088 C 
BRANCH  19  22
ATOM      2  F   UNL     1      18.608   6.544  19.726  0.00  0.00    -0.205 F 
ATOM     22  C   UNL     1      14.899   7.734  21.097  0.00  0.00    +0.001 A 
ATOM     25  C   UNL     1      16.056   8.316  21.618  0.00  0.00    +0.013 A 
ATOM     26  C   UNL     1      14.996   6.750  20.114  0.00  0.00    +0.013 A 
ATOM     29  C   UNL     1      17.308   7.914  21.155  0.00  0.00    +0.039 A 
ATOM     30  C   UNL     1      16.250   6.347  19.651  0.00  0.00    +0.039 A 
ATOM     33  C   UNL     1      17.405   6.930  20.171  0.00  0.00    +0.123 A 
ENDBRANCH  19  22
ENDBRANCH  10  17
BRANCH  11  16
ATOM     16  C   UNL     1      14.586  13.405  21.553  0.00  0.00    +0.124 C 
BRANCH  16   6
ATOM      6  N   UNL     1      14.684  12.162  20.769  0.00  0.00    -0.193 NA
ATOM     35  H   UNL     1      13.813  11.614  20.757  0.00  0.00    +0.148 HD
BRANCH   6   1
ATOM      1  S   UNL     1      15.600  12.155  19.327  0.00  0.00    +0.034 S 
ATOM      3  O   UNL     1      16.268  10.876  19.177  0.00  0.00    -0.158 OA
ATOM      4  O   UNL     1      16.347  13.395  19.249  0.00  0.00    -0.158 OA
BRANCH   1  21
ATOM     21  C   UNL     1      14.301  12.239  18.116  0.00  0.00    +0.220 C 
BRANCH  21  24
ATOM     24  C   UNL     1      13.874  10.836  17.809  0.00  0.00    -0.025 A 
ATOM     27  C   UNL     1      14.460  10.145  16.748  0.00  0.00    +0.005 A 
ATOM     28  C   UNL     1      12.891  10.220  18.584  0.00  0.00    +0.005 A 
ATOM     31  C   UNL     1      14.062   8.839  16.461  0.00  0.00    +0.000 A 
ATOM     32  C   UNL     1      12.494   8.914  18.297  0.00  0.00    +0.000 A 
ATOM     34  C   UNL     1      13.079   8.224  17.236  0.00  0.00    +0.000 A 
ENDBRANCH  21  24
ENDBRANCH   1  21
ENDBRANCH   6   1
ENDBRANCH  16   6
ENDBRANCH  11  16
TORSDOF 7
ENDMDL
MODEL 3
REMARK VINA RESULT:      -7.6     26.274     30.097
REMARK  Name = 40776929
REMARK  8 active torsions:
REMARK  status: ('A' for Active; 'I' for Inactive)
REMARK    1  A    between atoms: S_1  and  N_6
REMARK    2  A    between atoms: S_1  and  C_21
REMARK    3  A    between atoms: N_6  and  C_16
REMARK    4  A    between atoms: C_10  and  C_17
REMARK    5  A    between atoms: C_11  and  C_16
REMARK    6  A    between atoms: C_19  and  C_22
REMARK    7  A    between atoms: C_20  and  C_23
REMARK    8  A    between atoms: C_21  and  C_24
REMARK                            x       y       z     vdW  Elec       q    Type
REMARK                         _______ _______ _______ _____ _____    ______ ____
ROOT
ATOM      5  N   UNL     1      -6.057 -11.179  10.782  0.00  0.00    -0.297 NA
ATOM      9  C   UNL     1      -3.879  -9.842  11.282  0.00  0.00    +0.002 C 
ATOM     10  C   UNL     1      -3.953 -11.112  12.173  0.00  0.00    +0.055 C 
ATOM     11  C   UNL     1      -6.382  -9.747  11.016  0.00  0.00    +0.072 C 
ATOM     12  C   UNL     1      -5.138  -8.980  11.516  0.00  0.00    +0.024 C 
ATOM     13  C   UNL     1      -3.923 -10.323   9.816  0.00  0.00    +0.019 C 
ATOM     14  C   UNL     1      -5.360 -11.742  11.966  0.00  0.00    +0.094 C 
ATOM     15  C   UNL     1      -5.133 -11.252   9.624  0.00  0.00    +0.085 C 
ENDROOT
BRANCH  10  17
ATOM      7  N   UNL     1      -2.352 -10.523  13.926  0.00  0.00    -0.237 NA
ATOM      8  N   UNL     1      -2.882 -10.724  16.269  0.00  0.00    -0.232 NA
ATOM     17  C   UNL     1      -3.591 -10.980  13.645  0.00  0.00    +0.050 A 
ATOM     18  C   UNL     1      -4.517 -11.325  14.608  0.00  0.00    +0.052 A 
ATOM     19  C   UNL     1      -4.103 -11.175  15.916  0.00  0.00    +0.075 A 
ATOM     20  C   UNL     1      -2.068 -10.421  15.239  0.00  0.00    +0.127 A 
ATOM     23  C   UNL     1      -0.707  -9.921  15.589  0.00  0.00    +0.088 C 
BRANCH  19  22
ATOM      2  F   UNL     1      -7.479 -12.437  20.166  0.00  0.00    -0.205 F 
ATOM     22  C   UNL     1      -4.977 -11.502  17.016  0.00  0.00    +0.001 A 
ATOM     25  C   UNL     1      -5.770 -12.648  16.961  0.00  0.00    +0.013 A 
ATOM     26  C   UNL     1      -5.029 -10.672  18.136  0.00  0.00    +0.013 A 
ATOM     29  C   UNL     1      -6.616 -12.964  18.024  0.00  0.00    +0.039 A 
ATOM     30  C   UNL     1      -5.874 -10.988  19.201  0.00  0.00    +0.039 A 
ATOM     33  C   UNL     1      -6.668 -12.134  19.144  0.00  0.00    +0.123 A 
ENDBRANCH  19  22
ENDBRANCH  10  17
BRANCH  11  16
ATOM     16  C   UNL     1      -7.577  -9.566  11.954  0.00  0.00    +0.124 C 
BRANCH  16   6
ATOM      6  N   UNL     1      -8.566 -10.624  11.686  0.00  0.00    -0.193 NA
ATOM     35  H   UNL     1      -8.231 -11.344  11.032  0.00  0.00    +0.148 HD
BRANCH   6   1
ATOM      1  S   UNL     1      -9.570 -11.168  12.957  0.00  0.00    +0.034 S 
ATOM      3  O   UNL     1     -10.317 -12.334  12.526  0.00  0.00    -0.158 OA
ATOM      4  O   UNL     1     -10.250 -10.022  13.531  0.00  0.00    -0.158 OA
BRANCH   1  21
ATOM     21  C   UNL     1      -8.347 -11.704  14.131  0.00  0.00    +0.220 C 
BRANCH  21  24
ATOM     24  C   UNL     1      -8.622 -11.004  15.426  0.00  0.00    -0.025 A 
ATOM     27  C   UNL     1      -9.550 -11.534  16.322  0.00  0.00    +0.005 A 
ATOM     28  C   UNL     1      -7.949  -9.822  15.737  0.00  0.00    +0.005 A 
ATOM     31  C   UNL     1      -9.807 -10.883  17.529  0.00  0.00    +0.000 A 
ATOM     32  C   UNL     1      -8.205  -9.171  16.944  0.00  0.00    +0.000 A 
ATOM     34  C   UNL     1      -9.134  -9.701  17.840  0.00  0.00    +0.000 A 
ENDBRANCH  21  24
ENDBRANCH   1  21
ENDBRANCH   6   1
ENDBRANCH  16   6
ENDBRANCH  11  16
TORSDOF 7
ENDMDL
MODEL 4
REMARK VINA RESULT:      -7.5     14.413     17.806
REMARK  Name = 40776929
REMARK  8 active torsions:
REMARK  status: ('A' for Active; 'I' for Inactive)
REMARK    1  A    between atoms: S_1  and  N_6
REMARK    2  A    between atoms: S_1  and  C_21
REMARK    3  A    between atoms: N_6  and  C_16
REMARK    4  A    between atoms: C_10  and  C_17
REMARK    5  A    between atoms: C_11  and  C_16
REMARK    6  A    between atoms: C_19  and  C_22
REMARK    7  A    between atoms: C_20  and  C_23
REMARK    8  A    between atoms: C_21  and  C_24
REMARK                            x       y       z     vdW  Elec       q    Type
REMARK                         _______ _______ _______ _____ _____    ______ ____
ROOT
ATOM      5  N   UNL     1      10.644   5.564   7.756  0.00  0.00    -0.297 NA
ATOM      9  C   UNL     1       9.310   7.600   6.828  0.00  0.00    +0.002 C 
ATOM     10  C   UNL     1       9.200   6.390   5.859  0.00  0.00    +0.055 C 
ATOM     11  C   UNL     1      11.496   6.782   7.776  0.00  0.00    +0.072 C 
ATOM     12  C   UNL     1      10.798   7.948   7.042  0.00  0.00    +0.024 C 
ATOM     13  C   UNL     1       8.753   7.132   8.190  0.00  0.00    +0.019 C 
ATOM     14  C   UNL     1      10.176   5.294   6.373  0.00  0.00    +0.094 C 
ATOM     15  C   UNL     1       9.456   5.827   8.603  0.00  0.00    +0.085 C 
ENDROOT
BRANCH  10  17
ATOM      7  N   UNL     1       8.626   7.659   3.848  0.00  0.00    -0.237 NA
ATOM      8  N   UNL     1       9.588   7.157   1.696  0.00  0.00    -0.232 NA
ATOM     17  C   UNL     1       9.354   6.648   4.368  0.00  0.00    +0.050 A 
ATOM     18  C   UNL     1      10.209   5.860   3.625  0.00  0.00    +0.052 A 
ATOM     19  C   UNL     1      10.286   6.163   2.281  0.00  0.00    +0.075 A 
ATOM     20  C   UNL     1       8.788   7.855   2.526  0.00  0.00    +0.127 A 
ATOM     23  C   UNL     1       7.997   8.962   1.915  0.00  0.00    +0.088 C 
BRANCH  19  22
ATOM      2  F   UNL     1      13.596   3.262  -1.137  0.00  0.00    -0.205 F 
ATOM     22  C   UNL     1      11.143   5.412   1.396  0.00  0.00    +0.001 A 
ATOM     25  C   UNL     1      11.314   5.823   0.074  0.00  0.00    +0.013 A 
ATOM     26  C   UNL     1      11.802   4.274   1.862  0.00  0.00    +0.013 A 
ATOM     29  C   UNL     1      12.142   5.097  -0.782  0.00  0.00    +0.039 A 
ATOM     30  C   UNL     1      12.632   3.548   1.007  0.00  0.00    +0.039 A 
ATOM     33  C   UNL     1      12.801   3.960  -0.315  0.00  0.00    +0.123 A 
ENDBRANCH  19  22
ENDBRANCH  10  17
BRANCH  11  16
ATOM     16  C   UNL     1      12.900   6.521   7.225  0.00  0.00    +0.124 C 
BRANCH  16   6
ATOM      6  N   UNL     1      13.587   7.807   7.023  0.00  0.00    -0.193 NA
ATOM     35  H   UNL     1      14.114   8.125   7.848  0.00  0.00    +0.148 HD
BRANCH   6   1
ATOM      1  S   UNL     1      14.286   8.149   5.502  0.00  0.00    +0.034 S 
ATOM      3  O   UNL     1      15.617   7.575   5.433  0.00  0.00    -0.158 OA
ATOM      4  O   UNL     1      14.067   9.551   5.198  0.00  0.00    -0.158 OA
BRANCH   1  21
ATOM     21  C   UNL     1      13.225   7.202   4.436  0.00  0.00    +0.220 C 
BRANCH  21  24
ATOM     24  C   UNL     1      13.773   7.299   3.045  0.00  0.00    -0.025 A 
ATOM     27  C   UNL     1      14.689   6.351   2.589  0.00  0.00    +0.005 A 
ATOM     28  C   UNL     1      13.367   8.337   2.206  0.00  0.00    +0.005 A 
ATOM     31  C   UNL     1      15.199   6.441   1.294  0.00  0.00    +0.000 A 
ATOM     32  C   UNL     1      13.876   8.426   0.911  0.00  0.00    +0.000 A 
ATOM     34  C   UNL     1      14.793   7.479   0.455  0.00  0.00    +0.000 A 
ENDBRANCH  21  24
ENDBRANCH   1  21
ENDBRANCH   6   1
ENDBRANCH  16   6
ENDBRANCH  11  16
TORSDOF 7
ENDMDL
MODEL 5
REMARK VINA RESULT:      -7.3     27.619     29.481
REMARK  Name = 40776929
REMARK  8 active torsions:
REMARK  status: ('A' for Active; 'I' for Inactive)
REMARK    1  A    between atoms: S_1  and  N_6
REMARK    2  A    between atoms: S_1  and  C_21
REMARK    3  A    between atoms: N_6  and  C_16
REMARK    4  A    between atoms: C_10  and  C_17
REMARK    5  A    between atoms: C_11  and  C_16
REMARK    6  A    between atoms: C_19  and  C_22
REMARK    7  A    between atoms: C_20  and  C_23
REMARK    8  A    between atoms: C_21  and  C_24
REMARK                            x       y       z     vdW  Elec       q    Type
REMARK                         _______ _______ _______ _____ _____    ______ ____
ROOT
ATOM      5  N   UNL     1      -4.895 -12.766  17.214  0.00  0.00    -0.297 NA
ATOM      9  C   UNL     1      -5.533 -10.278  17.646  0.00  0.00    +0.002 C 
ATOM     10  C   UNL     1      -6.753 -11.063  17.089  0.00  0.00    +0.055 C 
ATOM     11  C   UNL     1      -3.888 -11.867  16.591  0.00  0.00    +0.072 C 
ATOM     12  C   UNL     1      -4.355 -10.396  16.657  0.00  0.00    +0.024 C 
ATOM     13  C   UNL     1      -5.106 -10.987  18.950  0.00  0.00    +0.019 C 
ATOM     14  C   UNL     1      -6.245 -12.472  16.669  0.00  0.00    +0.094 C 
ATOM     15  C   UNL     1      -4.914 -12.487  18.671  0.00  0.00    +0.085 C 
ENDROOT
BRANCH  10  17
ATOM      7  N   UNL     1      -8.472  -9.461  16.407  0.00  0.00    -0.237 NA
ATOM      8  N   UNL     1      -9.137  -9.194  14.106  0.00  0.00    -0.232 NA
ATOM     17  C   UNL     1      -7.595 -10.406  16.005  0.00  0.00    +0.050 A 
ATOM     18  C   UNL     1      -7.436 -10.793  14.690  0.00  0.00    +0.052 A 
ATOM     19  C   UNL     1      -8.241 -10.147  13.775  0.00  0.00    +0.075 A 
ATOM     20  C   UNL     1      -9.200  -8.905  15.420  0.00  0.00    +0.127 A 
ATOM     23  C   UNL     1     -10.181  -7.858  15.827  0.00  0.00    +0.088 C 
BRANCH  19  22
ATOM      2  F   UNL     1      -7.971 -11.360   8.343  0.00  0.00    -0.205 F 
ATOM     22  C   UNL     1      -8.171 -10.461  12.369  0.00  0.00    +0.001 A 
ATOM     25  C   UNL     1      -8.336  -9.452  11.419  0.00  0.00    +0.013 A 
ATOM     26  C   UNL     1      -7.939 -11.773  11.958  0.00  0.00    +0.013 A 
ATOM     29  C   UNL     1      -8.269  -9.756  10.059  0.00  0.00    +0.039 A 
ATOM     30  C   UNL     1      -7.870 -12.077  10.598  0.00  0.00    +0.039 A 
ATOM     33  C   UNL     1      -8.036 -11.068   9.649  0.00  0.00    +0.123 A 
ENDBRANCH  19  22
ENDBRANCH  10  17
BRANCH  11  16
ATOM     16  C   UNL     1      -3.534 -12.289  15.164  0.00  0.00    +0.124 C 
BRANCH  16   6
ATOM      6  N   UNL     1      -2.708 -11.242  14.541  0.00  0.00    -0.193 NA
ATOM     35  H   UNL     1      -1.813 -11.083  15.023  0.00  0.00    +0.148 HD
BRANCH   6   1
ATOM      1  S   UNL     1      -2.684 -11.101  12.838  0.00  0.00    +0.034 S 
ATOM      3  O   UNL     1      -2.378 -12.388  12.244  0.00  0.00    -0.158 OA
ATOM      4  O   UNL     1      -1.921  -9.919  12.484  0.00  0.00    -0.158 OA
BRANCH   1  21
ATOM     21  C   UNL     1      -4.396 -10.743  12.518  0.00  0.00    +0.220 C 
BRANCH  21  24
ATOM     24  C   UNL     1      -4.502 -10.252  11.107  0.00  0.00    -0.025 A 
ATOM     27  C   UNL     1      -4.357 -11.145  10.045  0.00  0.00    +0.005 A 
ATOM     28  C   UNL     1      -4.747  -8.902  10.854  0.00  0.00    +0.005 A 
ATOM     31  C   UNL     1      -4.456 -10.689   8.731  0.00  0.00    +0.000 A 
ATOM     32  C   UNL     1      -4.846  -8.446   9.540  0.00  0.00    +0.000 A 
ATOM     34  C   UNL     1      -4.700  -9.339   8.478  0.00  0.00    +0.000 A 
ENDBRANCH  21  24
ENDBRANCH   1  21
ENDBRANCH   6   1
ENDBRANCH  16   6
ENDBRANCH  11  16
TORSDOF 7
ENDMDL
MODEL 6
REMARK VINA RESULT:      -7.3      2.445      5.140
REMARK  Name = 40776929
REMARK  8 active torsions:
REMARK  status: ('A' for Active; 'I' for Inactive)
REMARK    1  A    between atoms: S_1  and  N_6
REMARK    2  A    between atoms: S_1  and  C_21
REMARK    3  A    between atoms: N_6  and  C_16
REMARK    4  A    between atoms: C_10  and  C_17
REMARK    5  A    between atoms: C_11  and  C_16
REMARK    6  A    between atoms: C_19  and  C_22
REMARK    7  A    between atoms: C_20  and  C_23
REMARK    8  A    between atoms: C_21  and  C_24
REMARK                            x       y       z     vdW  Elec       q    Type
REMARK                         _______ _______ _______ _____ _____    ______ ____
ROOT
ATOM      5  N   UNL     1      16.735  13.650  21.679  0.00  0.00    -0.297 NA
ATOM      9  C   UNL     1      17.558  11.464  22.831  0.00  0.00    +0.002 C 
ATOM     10  C   UNL     1      17.551  11.295  21.287  0.00  0.00    +0.055 C 
ATOM     11  C   UNL     1      15.788  13.253  22.755  0.00  0.00    +0.072 C 
ATOM     12  C   UNL     1      16.145  11.857  23.308  0.00  0.00    +0.024 C 
ATOM     13  C   UNL     1      18.491  12.654  23.144  0.00  0.00    +0.019 C 
ATOM     14  C   UNL     1      16.863  12.554  20.686  0.00  0.00    +0.094 C 
ATOM     15  C   UNL     1      18.063  13.868  22.301  0.00  0.00    +0.085 C 
ENDROOT
BRANCH  10  17
ATOM      7  N   UNL     1      17.685   8.872  20.973  0.00  0.00    -0.237 NA
ATOM      8  N   UNL     1      16.049   7.651  19.694  0.00  0.00    -0.232 NA
ATOM     17  C   UNL     1      16.996  10.002  20.708  0.00  0.00    +0.050 A 
ATOM     18  C   UNL     1      15.840  10.034  19.954  0.00  0.00    +0.052 A 
ATOM     19  C   UNL     1      15.409   8.817  19.468  0.00  0.00    +0.075 A 
ATOM     20  C   UNL     1      17.164   7.750  20.443  0.00  0.00    +0.127 A 
ATOM     23  C   UNL     1      17.901   6.482  20.713  0.00  0.00    +0.088 C 
BRANCH  19  22
ATOM      2  F   UNL     1      10.796   8.427  16.366  0.00  0.00    -0.205 F 
ATOM     22  C   UNL     1      14.215   8.715  18.665  0.00  0.00    +0.001 A 
ATOM     25  C   UNL     1      13.616   7.472  18.458  0.00  0.00    +0.013 A 
ATOM     26  C   UNL     1      13.658   9.861  18.095  0.00  0.00    +0.013 A 
ATOM     29  C   UNL     1      12.461   7.375  17.681  0.00  0.00    +0.039 A 
ATOM     30  C   UNL     1      12.503   9.763  17.319  0.00  0.00    +0.039 A 
ATOM     33  C   UNL     1      11.905   8.520  17.112  0.00  0.00    +0.123 A 
ENDBRANCH  19  22
ENDBRANCH  10  17
BRANCH  11  16
ATOM     16  C   UNL     1      14.328  13.332  22.304  0.00  0.00    +0.124 C 
BRANCH  16   6
ATOM      6  N   UNL     1      13.470  12.725  23.335  0.00  0.00    -0.193 NA
ATOM     35  H   UNL     1      13.546  13.182  24.254  0.00  0.00    +0.148 HD
BRANCH   6   1
ATOM      1  S   UNL     1      11.918  12.157  22.901  0.00  0.00    +0.034 S 
ATOM      3  O   UNL     1      11.013  13.280  22.738  0.00  0.00    -0.158 OA
ATOM      4  O   UNL     1      11.574  11.047  23.769  0.00  0.00    -0.158 OA
BRANCH   1  21
ATOM     21  C   UNL     1      12.256  11.488  21.289  0.00  0.00    +0.220 C 
BRANCH  21  24
ATOM     24  C   UNL     1      12.095  10.001  21.371  0.00  0.00    -0.025 A 
ATOM     27  C   UNL     1      10.968   9.390  20.823  0.00  0.00    +0.005 A 
ATOM     28  C   UNL     1      13.073   9.226  21.996  0.00  0.00    +0.005 A 
ATOM     31  C   UNL     1      10.817   8.005  20.899  0.00  0.00    +0.000 A 
ATOM     32  C   UNL     1      12.923   7.842  22.071  0.00  0.00    +0.000 A 
ATOM     34  C   UNL     1      11.795   7.231  21.523  0.00  0.00    +0.000 A 
ENDBRANCH  21  24
ENDBRANCH   1  21
ENDBRANCH   6   1
ENDBRANCH  16   6
ENDBRANCH  11  16
TORSDOF 7
ENDMDL
MODEL 7
REMARK VINA RESULT:      -7.2     26.231     29.646
REMARK  Name = 40776929
REMARK  8 active torsions:
REMARK  status: ('A' for Active; 'I' for Inactive)
REMARK    1  A    between atoms: S_1  and  N_6
REMARK    2  A    between atoms: S_1  and  C_21
REMARK    3  A    between atoms: N_6  and  C_16
REMARK    4  A    between atoms: C_10  and  C_17
REMARK    5  A    between atoms: C_11  and  C_16
REMARK    6  A    between atoms: C_19  and  C_22
REMARK    7  A    between atoms: C_20  and  C_23
REMARK    8  A    between atoms: C_21  and  C_24
REMARK                            x       y       z     vdW  Elec       q    Type
REMARK                         _______ _______ _______ _____ _____    ______ ____
ROOT
ATOM      5  N   UNL     1      -7.605 -10.626  17.161  0.00  0.00    -0.297 NA
ATOM      9  C   UNL     1      -5.307 -11.566  17.949  0.00  0.00    +0.002 C 
ATOM     10  C   UNL     1      -5.101 -10.357  16.995  0.00  0.00    +0.055 C 
ATOM     11  C   UNL     1      -7.564 -12.099  16.966  0.00  0.00    +0.072 C 
ATOM     12  C   UNL     1      -6.144 -12.646  17.231  0.00  0.00    +0.024 C 
ATOM     13  C   UNL     1      -6.148 -11.055  19.139  0.00  0.00    +0.019 C 
ATOM     14  C   UNL     1      -6.495  -9.984  16.412  0.00  0.00    +0.094 C 
ATOM     15  C   UNL     1      -7.408 -10.353  18.605  0.00  0.00    +0.085 C 
ENDROOT
BRANCH  10  17
ATOM      7  N   UNL     1      -2.750 -10.388  16.321  0.00  0.00    -0.237 NA
ATOM      8  N   UNL     1      -2.077 -10.656  14.022  0.00  0.00    -0.232 NA
ATOM     17  C   UNL     1      -4.035 -10.467  15.915  0.00  0.00    +0.050 A 
ATOM     18  C   UNL     1      -4.413 -10.639  14.599  0.00  0.00    +0.052 A 
ATOM     19  C   UNL     1      -3.381 -10.728  13.687  0.00  0.00    +0.075 A 
ATOM     20  C   UNL     1      -1.836 -10.489  15.337  0.00  0.00    +0.127 A 
ATOM     23  C   UNL     1      -0.404 -10.402  15.747  0.00  0.00    +0.088 C 
BRANCH  19  22
ATOM      2  F   UNL     1      -4.396 -11.417   8.252  0.00  0.00    -0.205 F 
ATOM     22  C   UNL     1      -3.644 -10.906  12.280  0.00  0.00    +0.001 A 
ATOM     25  C   UNL     1      -4.159 -12.116  11.814  0.00  0.00    +0.013 A 
ATOM     26  C   UNL     1      -3.383  -9.869  11.385  0.00  0.00    +0.013 A 
ATOM     29  C   UNL     1      -4.413 -12.289  10.454  0.00  0.00    +0.039 A 
ATOM     30  C   UNL     1      -3.638 -10.041  10.024  0.00  0.00    +0.039 A 
ATOM     33  C   UNL     1      -4.153 -11.252   9.558  0.00  0.00    +0.123 A 
ENDBRANCH  19  22
ENDBRANCH  10  17
BRANCH  11  16
ATOM     16  C   UNL     1      -8.089 -12.520  15.591  0.00  0.00    +0.124 C 
BRANCH  16   6
ATOM      6  N   UNL     1      -9.144 -11.584  15.170  0.00  0.00    -0.193 NA
ATOM     35  H   UNL     1      -9.289 -10.804  15.825  0.00  0.00    +0.148 HD
BRANCH   6   1
ATOM      1  S   UNL     1      -9.318 -11.215  13.510  0.00  0.00    +0.034 S 
ATOM      3  O   UNL     1      -9.805  -9.857  13.358  0.00  0.00    -0.158 OA
ATOM      4  O   UNL     1      -9.992 -12.323  12.860  0.00  0.00    -0.158 OA
BRANCH   1  21
ATOM     21  C   UNL     1      -7.618 -11.248  12.990  0.00  0.00    +0.220 C 
BRANCH  21  24
ATOM     24  C   UNL     1      -7.548 -10.643  11.622  0.00  0.00    -0.025 A 
ATOM     27  C   UNL     1      -7.957 -11.380  10.511  0.00  0.00    +0.005 A 
ATOM     28  C   UNL     1      -7.075  -9.340  11.459  0.00  0.00    +0.005 A 
ATOM     31  C   UNL     1      -7.892 -10.817   9.237  0.00  0.00    +0.000 A 
ATOM     32  C   UNL     1      -7.012  -8.776  10.185  0.00  0.00    +0.000 A 
ATOM     34  C   UNL     1      -7.420  -9.515   9.073  0.00  0.00    +0.000 A 
ENDBRANCH  21  24
ENDBRANCH   1  21
ENDBRANCH   6   1
ENDBRANCH  16   6
ENDBRANCH  11  16
TORSDOF 7
ENDMDL
MODEL 8
REMARK VINA RESULT:      -7.1     13.711     16.182
REMARK  Name = 40776929
REMARK  8 active torsions:
REMARK  status: ('A' for Active; 'I' for Inactive)
REMARK    1  A    between atoms: S_1  and  N_6
REMARK    2  A    between atoms: S_1  and  C_21
REMARK    3  A    between atoms: N_6  and  C_16
REMARK    4  A    between atoms: C_10  and  C_17
REMARK    5  A    between atoms: C_11  and  C_16
REMARK    6  A    between atoms: C_19  and  C_22
REMARK    7  A    between atoms: C_20  and  C_23
REMARK    8  A    between atoms: C_21  and  C_24
REMARK                            x       y       z     vdW  Elec       q    Type
REMARK                         _______ _______ _______ _____ _____    ______ ____
ROOT
ATOM      5  N   UNL     1      19.104  -3.636  30.823  0.00  0.00    -0.297 NA
ATOM      9  C   UNL     1      21.386  -3.153  29.665  0.00  0.00    +0.002 C 
ATOM     10  C   UNL     1      20.335  -2.084  29.259  0.00  0.00    +0.055 C 
ATOM     11  C   UNL     1      19.613  -4.869  30.167  0.00  0.00    +0.072 C 
ATOM     12  C   UNL     1      20.855  -4.556  29.304  0.00  0.00    +0.024 C 
ATOM     13  C   UNL     1      21.509  -3.095  31.203  0.00  0.00    +0.019 C 
ATOM     14  C   UNL     1      18.960  -2.550  29.821  0.00  0.00    +0.094 C 
ATOM     15  C   UNL     1      20.108  -3.208  31.828  0.00  0.00    +0.085 C 
ENDROOT
BRANCH  10  17
ATOM      7  N   UNL     1      21.248  -0.897  27.325  0.00  0.00    -0.237 NA
ATOM      8  N   UNL     1      20.156  -0.912  25.177  0.00  0.00    -0.232 NA
ATOM     17  C   UNL     1      20.252  -1.677  27.796  0.00  0.00    +0.050 A 
ATOM     18  C   UNL     1      19.190  -2.109  27.027  0.00  0.00    +0.052 A 
ATOM     19  C   UNL     1      19.194  -1.691  25.712  0.00  0.00    +0.075 A 
ATOM     20  C   UNL     1      21.140  -0.557  26.027  0.00  0.00    +0.127 A 
ATOM     23  C   UNL     1      22.221   0.307  25.473  0.00  0.00    +0.088 C 
BRANCH  19  22
ATOM      2  F   UNL     1      15.120  -3.165  22.209  0.00  0.00    -0.205 F 
ATOM     22  C   UNL     1      18.139  -2.073  24.805  0.00  0.00    +0.001 A 
ATOM     25  C   UNL     1      16.873  -2.388  25.300  0.00  0.00    +0.013 A 
ATOM     26  C   UNL     1      18.384  -2.125  23.433  0.00  0.00    +0.013 A 
ATOM     29  C   UNL     1      15.854  -2.758  24.424  0.00  0.00    +0.039 A 
ATOM     30  C   UNL     1      17.364  -2.494  22.556  0.00  0.00    +0.039 A 
ATOM     33  C   UNL     1      16.099  -2.810  23.051  0.00  0.00    +0.123 A 
ENDBRANCH  19  22
ENDBRANCH  10  17
BRANCH  11  16
ATOM     16  C   UNL     1      18.529  -5.591  29.364  0.00  0.00    +0.124 C 
BRANCH  16   6
ATOM      6  N   UNL     1      19.116  -6.775  28.714  0.00  0.00    -0.193 NA
ATOM     35  H   UNL     1      19.256  -7.568  29.355  0.00  0.00    +0.148 HD
BRANCH   6   1
ATOM      1  S   UNL     1      18.651  -7.167  27.118  0.00  0.00    +0.034 S 
ATOM      3  O   UNL     1      17.341  -7.789  27.127  0.00  0.00    -0.158 OA
ATOM      4  O   UNL     1      19.772  -7.807  26.455  0.00  0.00    -0.158 OA
BRANCH   1  21
ATOM     21  C   UNL     1      18.480  -5.540  26.421  0.00  0.00    +0.220 C 
BRANCH  21  24
ATOM     24  C   UNL     1      18.670  -5.657  24.939  0.00  0.00    -0.025 A 
ATOM     27  C   UNL     1      17.618  -6.090  24.133  0.00  0.00    +0.005 A 
ATOM     28  C   UNL     1      19.900  -5.333  24.366  0.00  0.00    +0.005 A 
ATOM     31  C   UNL     1      17.794  -6.199  22.754  0.00  0.00    +0.000 A 
ATOM     32  C   UNL     1      20.076  -5.441  22.987  0.00  0.00    +0.000 A 
ATOM     34  C   UNL     1      19.024  -5.875  22.180  0.00  0.00    +0.000 A 
ENDBRANCH  21  24
ENDBRANCH   1  21
ENDBRANCH   6   1
ENDBRANCH  16   6
ENDBRANCH  11  16
TORSDOF 7
ENDMDL
MODEL 9
REMARK VINA RESULT:      -7.1     14.106     17.009
REMARK  Name = 40776929
REMARK  8 active torsions:
REMARK  status: ('A' for Active; 'I' for Inactive)
REMARK    1  A    between atoms: S_1  and  N_6
REMARK    2  A    between atoms: S_1  and  C_21
REMARK    3  A    between atoms: N_6  and  C_16
REMARK    4  A    between atoms: C_10  and  C_17
REMARK    5  A    between atoms: C_11  and  C_16
REMARK    6  A    between atoms: C_19  and  C_22
REMARK    7  A    between atoms: C_20  and  C_23
REMARK    8  A    between atoms: C_21  and  C_24
REMARK                            x       y       z     vdW  Elec       q    Type
REMARK                         _______ _______ _______ _____ _____    ______ ____
ROOT
ATOM      5  N   UNL     1      14.529   8.619   6.474  0.00  0.00    -0.297 NA
ATOM      9  C   UNL     1      13.113   9.011   4.323  0.00  0.00    +0.002 C 
ATOM     10  C   UNL     1      12.763  10.070   5.405  0.00  0.00    +0.055 C 
ATOM     11  C   UNL     1      13.890   7.347   6.047  0.00  0.00    +0.072 C 
ATOM     12  C   UNL     1      12.886   7.598   4.901  0.00  0.00    +0.024 C 
ATOM     13  C   UNL     1      14.624   9.149   4.039  0.00  0.00    +0.019 C 
ATOM     14  C   UNL     1      13.490   9.653   6.715  0.00  0.00    +0.094 C 
ATOM     15  C   UNL     1      15.398   9.086   5.367  0.00  0.00    +0.085 C 
ENDROOT
BRANCH  10  17
ATOM      7  N   UNL     1      10.974  10.906   6.849  0.00  0.00    -0.237 NA
ATOM      8  N   UNL     1       8.679  11.012   6.119  0.00  0.00    -0.232 NA
ATOM     17  C   UNL     1      11.296  10.401   5.639  0.00  0.00    +0.050 A 
ATOM     18  C   UNL     1      10.378  10.177   4.633  0.00  0.00    +0.052 A 
ATOM     19  C   UNL     1       9.071  10.504   4.933  0.00  0.00    +0.075 A 
ATOM     20  C   UNL     1       9.668  11.185   7.019  0.00  0.00    +0.127 A 
ATOM     23  C   UNL     1       9.273  11.742   8.344  0.00  0.00    +0.088 C 
BRANCH  19  22
ATOM      2  F   UNL     1       4.996   9.779   1.202  0.00  0.00    -0.205 F 
ATOM     22  C   UNL     1       8.016  10.316   3.967  0.00  0.00    +0.001 A 
ATOM     25  C   UNL     1       6.685  10.292   4.384  0.00  0.00    +0.013 A 
ATOM     26  C   UNL     1       8.327  10.160   2.616  0.00  0.00    +0.013 A 
ATOM     29  C   UNL     1       5.665  10.110   3.450  0.00  0.00    +0.039 A 
ATOM     30  C   UNL     1       7.306   9.979   1.682  0.00  0.00    +0.039 A 
ATOM     33  C   UNL     1       5.976   9.954   2.099  0.00  0.00    +0.123 A 
ENDBRANCH  19  22
ENDBRANCH  10  17
BRANCH  11  16
ATOM     16  C   UNL     1      13.246   6.597   7.215  0.00  0.00    +0.124 C 
BRANCH  16   6
ATOM      6  N   UNL     1      11.987   5.983   6.760  0.00  0.00    -0.193 NA
ATOM     35  H   UNL     1      12.110   5.043   6.359  0.00  0.00    +0.148 HD
BRANCH   6   1
ATOM      1  S   UNL     1      10.560   6.238   7.663  0.00  0.00    +0.034 S 
ATOM      3  O   UNL     1      10.167   7.632   7.577  0.00  0.00    -0.158 OA
ATOM      4  O   UNL     1      10.706   5.587   8.951  0.00  0.00    -0.158 OA
BRANCH   1  21
ATOM     21  C   UNL     1       9.399   5.282   6.714  0.00  0.00    +0.220 C 
BRANCH  21  24
ATOM     24  C   UNL     1       9.687   5.526   5.264  0.00  0.00    -0.025 A 
ATOM     27  C   UNL     1       9.224   6.688   4.648  0.00  0.00    +0.005 A 
ATOM     28  C   UNL     1      10.418   4.592   4.531  0.00  0.00    +0.005 A 
ATOM     31  C   UNL     1       9.491   6.917   3.298  0.00  0.00    +0.000 A 
ATOM     32  C   UNL     1      10.686   4.820   3.181  0.00  0.00    +0.000 A 
ATOM     34  C   UNL     1      10.222   5.982   2.564  0.00  0.00    +0.000 A 
ENDBRANCH  21  24
ENDBRANCH   1  21
ENDBRANCH   6   1
ENDBRANCH  16   6
ENDBRANCH  11  16
TORSDOF 7
ENDMDL
MODEL 10
REMARK VINA RESULT:      -7.1     13.977     16.756
REMARK  Name = 40776929
REMARK  8 active torsions:
REMARK  status: ('A' for Active; 'I' for Inactive)
REMARK    1  A    between atoms: S_1  and  N_6
REMARK    2  A    between atoms: S_1  and  C_21
REMARK    3  A    between atoms: N_6  and  C_16
REMARK    4  A    between atoms: C_10  and  C_17
REMARK    5  A    between atoms: C_11  and  C_16
REMARK    6  A    between atoms: C_19  and  C_22
REMARK    7  A    between atoms: C_20  and  C_23
REMARK    8  A    between atoms: C_21  and  C_24
REMARK                            x       y       z     vdW  Elec       q    Type
REMARK                         _______ _______ _______ _____ _____    ______ ____
ROOT
ATOM      5  N   UNL     1       7.188  10.418   3.418  0.00  0.00    -0.297 NA
ATOM      9  C   UNL     1       9.358   9.552   2.268  0.00  0.00    +0.002 C 
ATOM     10  C   UNL     1       8.459   8.361   2.698  0.00  0.00    +0.055 C 
ATOM     11  C   UNL     1       8.379  11.069   4.024  0.00  0.00    +0.072 C 
ATOM     12  C   UNL     1       9.680  10.421   3.502  0.00  0.00    +0.024 C 
ATOM     13  C   UNL     1       8.517  10.421   1.307  0.00  0.00    +0.019 C 
ATOM     14  C   UNL     1       7.293   8.943   3.549  0.00  0.00    +0.094 C 
ATOM     15  C   UNL     1       7.171  10.755   1.974  0.00  0.00    +0.085 C 
ENDROOT
BRANCH  10  17
ATOM      7  N   UNL     1       9.833   6.341   2.570  0.00  0.00    -0.237 NA
ATOM      8  N   UNL     1      10.330   5.001   4.510  0.00  0.00    -0.232 NA
ATOM     17  C   UNL     1       9.120   7.165   3.367  0.00  0.00    +0.050 A 
ATOM     18  C   UNL     1       8.970   6.975   4.725  0.00  0.00    +0.052 A 
ATOM     19  C   UNL     1       9.602   5.866   5.248  0.00  0.00    +0.075 A 
ATOM     20  C   UNL     1      10.403   5.295   3.197  0.00  0.00    +0.127 A 
ATOM     23  C   UNL     1      11.196   4.361   2.348  0.00  0.00    +0.088 C 
BRANCH  19  22
ATOM      2  F   UNL     1       9.288   4.665  10.680  0.00  0.00    -0.205 F 
ATOM     22  C   UNL     1       9.521   5.554   6.654  0.00  0.00    +0.001 A 
ATOM     25  C   UNL     1       9.843   4.274   7.106  0.00  0.00    +0.013 A 
ATOM     26  C   UNL     1       9.121   6.534   7.563  0.00  0.00    +0.013 A 
ATOM     29  C   UNL     1       9.764   3.974   8.465  0.00  0.00    +0.039 A 
ATOM     30  C   UNL     1       9.043   6.234   8.923  0.00  0.00    +0.039 A 
ATOM     33  C   UNL     1       9.364   4.953   9.374  0.00  0.00    +0.123 A 
ENDBRANCH  19  22
ENDBRANCH  10  17
BRANCH  11  16
ATOM     16  C   UNL     1       8.322  11.081   5.553  0.00  0.00    +0.124 C 
BRANCH  16   6
ATOM      6  N   UNL     1       9.408  10.241   6.084  0.00  0.00    -0.193 NA
ATOM     35  H   UNL     1       9.949   9.758   5.354  0.00  0.00    +0.148 HD
BRANCH   6   1
ATOM      1  S   UNL     1      10.289  10.778   7.446  0.00  0.00    +0.034 S 
ATOM      3  O   UNL     1      10.294   9.746   8.465  0.00  0.00    -0.158 OA
ATOM      4  O   UNL     1       9.871  12.130   7.762  0.00  0.00    -0.158 OA
BRANCH   1  21
ATOM     21  C   UNL     1      11.925  10.874   6.756  0.00  0.00    +0.220 C 
BRANCH  21  24
ATOM     24  C   UNL     1      12.297   9.505   6.275  0.00  0.00    -0.025 A 
ATOM     27  C   UNL     1      12.474   8.468   7.190  0.00  0.00    +0.005 A 
ATOM     28  C   UNL     1      12.467   9.268   4.910  0.00  0.00    +0.005 A 
ATOM     31  C   UNL     1      12.820   7.193   6.742  0.00  0.00    +0.000 A 
ATOM     32  C   UNL     1      12.812   7.993   4.462  0.00  0.00    +0.000 A 
ATOM     34  C   UNL     1      12.990   6.956   5.377  0.00  0.00    +0.000 A 
ENDBRANCH  21  24
ENDBRANCH   1  21
ENDBRANCH   6   1
ENDBRANCH  16   6
ENDBRANCH  11  16
TORSDOF 7
ENDMDL
