MODEL 1
REMARK VINA RESULT:      -6.5      0.000      0.000
REMARK  Name = 45783792
REMARK  5 active torsions:
REMARK  status: ('A' for Active; 'I' for Inactive)
REMARK    1  A    between atoms: N_2  and  C_7
REMARK    2  A    between atoms: N_6  and  C_21
REMARK    3  A    between atoms: N_6  and  C_22
REMARK    4  A    between atoms: C_10  and  C_15
REMARK    5  A    between atoms: C_16  and  C_17
REMARK                            x       y       z     vdW  Elec       q    Type
REMARK                         _______ _______ _______ _____ _____    ______ ____
ROOT
ATOM      1  O   UNL     1      15.669   8.637  20.062  0.00  0.00    -0.336 OA
ATOM      3  N   UNL     1      16.273   6.512  19.692  0.00  0.00    -0.190 NA
ATOM      4  N   UNL     1      16.947   8.493  20.616  0.00  0.00    -0.056 NA
ATOM     15  C   UNL     1      15.347   7.425  19.539  0.00  0.00    +0.245 A 
ATOM     16  C   UNL     1      17.234   7.214  20.358  0.00  0.00    +0.204 A 
ENDROOT
BRANCH  16  17
ATOM      5  N   UNL     1      20.327   6.517  22.300  0.00  0.00    -0.240 NA
ATOM     17  C   UNL     1      18.473   6.606  20.753  0.00  0.00    +0.041 A 
ATOM     18  C   UNL     1      19.022   5.560  20.022  0.00  0.00    +0.016 A 
ATOM     19  C   UNL     1      19.158   7.045  21.874  0.00  0.00    +0.124 A 
ATOM     20  C   UNL     1      20.224   4.990  20.429  0.00  0.00    +0.044 A 
ATOM     21  C   UNL     1      20.831   5.501  21.565  0.00  0.00    +0.118 A 
BRANCH  21   6
ATOM      6  N   UNL     1      22.054   4.909  21.967  0.00  0.00    -0.332 N 
ATOM     22  C   UNL     1      22.155   3.540  22.357  0.00  0.00    +0.127 C 
ATOM     23  H   UNL     1      22.819   5.536  22.193  0.00  0.00    +0.147 HD
ENDBRANCH  21   6
ENDBRANCH  16  17
BRANCH  15  10
ATOM      2  N   UNL     1      12.992   8.218  19.482  0.00  0.00    -0.288 NA
ATOM     10  C   UNL     1      13.992   7.317  18.870  0.00  0.00    +0.146 C 
ATOM     12  C   UNL     1      12.059   8.586  18.416  0.00  0.00    +0.085 C 
ATOM     13  C   UNL     1      14.026   7.718  17.384  0.00  0.00    +0.030 C 
ATOM     14  C   UNL     1      12.994   8.828  17.249  0.00  0.00    +0.017 C 
BRANCH   2   7
ATOM      7  C   UNL     1      12.278   7.561  20.585  0.00  0.00    +0.057 C 
ATOM      8  C   UNL     1      12.582   8.296  21.908  0.00  0.00    +0.019 C 
ATOM      9  C   UNL     1      10.847   8.129  20.687  0.00  0.00    +0.019 C 
ATOM     11  C   UNL     1      11.070   8.212  22.211  0.00  0.00    +0.003 C 
ENDBRANCH   2   7
ENDBRANCH  15  10
TORSDOF 4
ENDMDL
MODEL 2
REMARK VINA RESULT:      -6.4     15.219     18.169
REMARK  Name = 45783792
REMARK  5 active torsions:
REMARK  status: ('A' for Active; 'I' for Inactive)
REMARK    1  A    between atoms: N_2  and  C_7
REMARK    2  A    between atoms: N_6  and  C_21
REMARK    3  A    between atoms: N_6  and  C_22
REMARK    4  A    between atoms: C_10  and  C_15
REMARK    5  A    between atoms: C_16  and  C_17
REMARK                            x       y       z     vdW  Elec       q    Type
REMARK                         _______ _______ _______ _____ _____    ______ ____
ROOT
ATOM      1  O   UNL     1      11.378   6.581   4.773  0.00  0.00    -0.336 OA
ATOM      3  N   UNL     1      10.200   5.004   3.703  0.00  0.00    -0.190 NA
ATOM      4  N   UNL     1      12.132   6.226   3.648  0.00  0.00    -0.056 NA
ATOM     15  C   UNL     1      10.256   5.814   4.730  0.00  0.00    +0.245 A 
ATOM     16  C   UNL     1      11.372   5.293   3.069  0.00  0.00    +0.204 A 
ENDROOT
BRANCH  16  17
ATOM      5  N   UNL     1      11.223   4.016  -0.420  0.00  0.00    -0.240 NA
ATOM     17  C   UNL     1      11.756   4.627   1.857  0.00  0.00    +0.041 A 
ATOM     18  C   UNL     1      12.973   3.965   1.758  0.00  0.00    +0.016 A 
ATOM     19  C   UNL     1      10.922   4.623   0.750  0.00  0.00    +0.124 A 
ATOM     20  C   UNL     1      13.318   3.328   0.571  0.00  0.00    +0.044 A 
ATOM     21  C   UNL     1      12.415   3.383  -0.479  0.00  0.00    +0.118 A 
BRANCH  21   6
ATOM      6  N   UNL     1      12.781   2.730  -1.683  0.00  0.00    -0.332 N 
ATOM     22  C   UNL     1      11.832   2.070  -2.520  0.00  0.00    +0.127 C 
ATOM     23  H   UNL     1      13.768   2.542  -1.826  0.00  0.00    +0.147 HD
ENDBRANCH  21   6
ENDBRANCH  16  17
BRANCH  15  10
ATOM      2  N   UNL     1       9.883   6.607   7.056  0.00  0.00    -0.288 NA
ATOM     10  C   UNL     1       9.260   6.012   5.854  0.00  0.00    +0.146 C 
ATOM     12  C   UNL     1       8.841   7.393   7.718  0.00  0.00    +0.085 C 
ATOM     13  C   UNL     1       8.123   6.981   5.481  0.00  0.00    +0.030 C 
ATOM     14  C   UNL     1       8.164   8.070   6.544  0.00  0.00    +0.017 C 
BRANCH   2   7
ATOM      7  C   UNL     1      10.400   5.571   7.963  0.00  0.00    +0.057 C 
ATOM      8  C   UNL     1       9.575   5.568   9.267  0.00  0.00    +0.019 C 
ATOM      9  C   UNL     1       9.739   4.217   7.631  0.00  0.00    +0.019 C 
ATOM     11  C   UNL     1       9.540   4.029   9.150  0.00  0.00    +0.003 C 
ENDBRANCH   2   7
ENDBRANCH  15  10
TORSDOF 4
ENDMDL
MODEL 3
REMARK VINA RESULT:      -6.3      1.379      2.893
REMARK  Name = 45783792
REMARK  5 active torsions:
REMARK  status: ('A' for Active; 'I' for Inactive)
REMARK    1  A    between atoms: N_2  and  C_7
REMARK    2  A    between atoms: N_6  and  C_21
REMARK    3  A    between atoms: N_6  and  C_22
REMARK    4  A    between atoms: C_10  and  C_15
REMARK    5  A    between atoms: C_16  and  C_17
REMARK                            x       y       z     vdW  Elec       q    Type
REMARK                         _______ _______ _______ _____ _____    ______ ____
ROOT
ATOM      1  O   UNL     1      15.126   9.709  21.591  0.00  0.00    -0.336 OA
ATOM      3  N   UNL     1      15.168   7.953  20.202  0.00  0.00    -0.190 NA
ATOM      4  N   UNL     1      16.401   9.144  21.715  0.00  0.00    -0.056 NA
ATOM     15  C   UNL     1      14.464   8.947  20.681  0.00  0.00    +0.245 A 
ATOM     16  C   UNL     1      16.349   8.116  20.865  0.00  0.00    +0.204 A 
ENDROOT
BRANCH  16  17
ATOM      5  N   UNL     1      19.672   6.504  21.301  0.00  0.00    -0.240 NA
ATOM     17  C   UNL     1      17.457   7.229  20.656  0.00  0.00    +0.041 A 
ATOM     18  C   UNL     1      17.425   6.265  19.656  0.00  0.00    +0.016 A 
ATOM     19  C   UNL     1      18.594   7.308  21.445  0.00  0.00    +0.124 A 
ATOM     20  C   UNL     1      18.515   5.419  19.477  0.00  0.00    +0.044 A 
ATOM     21  C   UNL     1      19.604   5.579  20.319  0.00  0.00    +0.118 A 
BRANCH  21   6
ATOM      6  N   UNL     1      20.706   4.710  20.125  0.00  0.00    -0.332 N 
ATOM     22  C   UNL     1      21.493   4.211  21.207  0.00  0.00    +0.127 C 
ATOM     23  H   UNL     1      21.070   4.627  19.182  0.00  0.00    +0.147 HD
ENDBRANCH  21   6
ENDBRANCH  16  17
BRANCH  15  10
ATOM      2  N   UNL     1      12.543   8.739  19.118  0.00  0.00    -0.288 NA
ATOM     10  C   UNL     1      13.040   9.357  20.366  0.00  0.00    +0.146 C 
ATOM     12  C   UNL     1      11.098   8.575  19.284  0.00  0.00    +0.085 C 
ATOM     13  C   UNL     1      12.038   8.917  21.449  0.00  0.00    +0.030 C 
ATOM     14  C   UNL     1      10.999   8.082  20.713  0.00  0.00    +0.017 C 
BRANCH   2   7
ATOM      7  C   UNL     1      12.834   9.580  17.948  0.00  0.00    +0.057 C 
ATOM      8  C   UNL     1      13.954   8.930  17.110  0.00  0.00    +0.019 C 
ATOM      9  C   UNL     1      11.869   9.220  16.800  0.00  0.00    +0.019 C 
ATOM     11  C   UNL     1      13.096   9.241  15.864  0.00  0.00    +0.003 C 
ENDBRANCH   2   7
ENDBRANCH  15  10
TORSDOF 4
ENDMDL
MODEL 4
REMARK VINA RESULT:      -6.2      1.309      2.780
REMARK  Name = 45783792
REMARK  5 active torsions:
REMARK  status: ('A' for Active; 'I' for Inactive)
REMARK    1  A    between atoms: N_2  and  C_7
REMARK    2  A    between atoms: N_6  and  C_21
REMARK    3  A    between atoms: N_6  and  C_22
REMARK    4  A    between atoms: C_10  and  C_15
REMARK    5  A    between atoms: C_16  and  C_17
REMARK                            x       y       z     vdW  Elec       q    Type
REMARK                         _______ _______ _______ _____ _____    ______ ____
ROOT
ATOM      1  O   UNL     1      15.789   6.237  18.794  0.00  0.00    -0.336 OA
ATOM      3  N   UNL     1      16.705   7.177  20.610  0.00  0.00    -0.190 NA
ATOM      4  N   UNL     1      17.055   5.656  18.937  0.00  0.00    -0.056 NA
ATOM     15  C   UNL     1      15.663   7.122  19.819  0.00  0.00    +0.245 A 
ATOM     16  C   UNL     1      17.532   6.260  20.029  0.00  0.00    +0.204 A 
ENDROOT
BRANCH  16  17
ATOM      5  N   UNL     1      20.537   6.447  22.211  0.00  0.00    -0.240 NA
ATOM     17  C   UNL     1      18.832   5.974  20.564  0.00  0.00    +0.041 A 
ATOM     18  C   UNL     1      19.639   4.993  20.000  0.00  0.00    +0.016 A 
ATOM     19  C   UNL     1      19.323   6.668  21.659  0.00  0.00    +0.124 A 
ATOM     20  C   UNL     1      20.895   4.738  20.540  0.00  0.00    +0.044 A 
ATOM     21  C   UNL     1      21.293   5.487  21.636  0.00  0.00    +0.118 A 
BRANCH  21   6
ATOM      6  N   UNL     1      22.575   5.214  22.175  0.00  0.00    -0.332 N 
ATOM     22  C   UNL     1      22.822   5.155  23.579  0.00  0.00    +0.127 C 
ATOM     23  H   UNL     1      23.367   5.286  21.545  0.00  0.00    +0.147 HD
ENDBRANCH  21   6
ENDBRANCH  16  17
BRANCH  15  10
ATOM      2  N   UNL     1      13.605   7.832  18.620  0.00  0.00    -0.288 NA
ATOM     10  C   UNL     1      14.361   7.892  19.889  0.00  0.00    +0.146 C 
ATOM     12  C   UNL     1      12.189   7.919  18.976  0.00  0.00    +0.085 C 
ATOM     13  C   UNL     1      13.393   7.334  20.949  0.00  0.00    +0.030 C 
ATOM     14  C   UNL     1      12.113   7.016  20.190  0.00  0.00    +0.017 C 
BRANCH   2   7
ATOM      7  C   UNL     1      13.978   8.933  17.720  0.00  0.00    +0.057 C 
ATOM      8  C   UNL     1      14.088   8.403  16.274  0.00  0.00    +0.019 C 
ATOM      9  C   UNL     1      12.707   9.682  17.267  0.00  0.00    +0.019 C 
ATOM     11  C   UNL     1      13.291   9.651  15.839  0.00  0.00    +0.003 C 
ENDBRANCH   2   7
ENDBRANCH  15  10
TORSDOF 4
ENDMDL
MODEL 5
REMARK VINA RESULT:      -6.1      4.766      7.775
REMARK  Name = 45783792
REMARK  5 active torsions:
REMARK  status: ('A' for Active; 'I' for Inactive)
REMARK    1  A    between atoms: N_2  and  C_7
REMARK    2  A    between atoms: N_6  and  C_21
REMARK    3  A    between atoms: N_6  and  C_22
REMARK    4  A    between atoms: C_10  and  C_15
REMARK    5  A    between atoms: C_16  and  C_17
REMARK                            x       y       z     vdW  Elec       q    Type
REMARK                         _______ _______ _______ _____ _____    ______ ____
ROOT
ATOM      1  O   UNL     1      14.437   9.488  14.717  0.00  0.00    -0.336 OA
ATOM      3  N   UNL     1      14.535  10.236  16.826  0.00  0.00    -0.190 NA
ATOM      4  N   UNL     1      13.974   8.442  15.523  0.00  0.00    -0.056 NA
ATOM     15  C   UNL     1      14.747  10.506  15.562  0.00  0.00    +0.245 A 
ATOM     16  C   UNL     1      14.060   8.959  16.751  0.00  0.00    +0.204 A 
ENDROOT
BRANCH  16  17
ATOM      5  N   UNL     1      11.933   7.431  19.391  0.00  0.00    -0.240 NA
ATOM     17  C   UNL     1      13.684   8.226  17.926  0.00  0.00    +0.041 A 
ATOM     18  C   UNL     1      14.642   7.617  18.728  0.00  0.00    +0.016 A 
ATOM     19  C   UNL     1      12.354   8.106  18.298  0.00  0.00    +0.124 A 
ATOM     20  C   UNL     1      14.247   6.914  19.861  0.00  0.00    +0.044 A 
ATOM     21  C   UNL     1      12.893   6.851  20.146  0.00  0.00    +0.118 A 
BRANCH  21   6
ATOM      6  N   UNL     1      12.507   6.131  21.303  0.00  0.00    -0.332 N 
ATOM     22  C   UNL     1      11.146   5.815  21.595  0.00  0.00    +0.127 C 
ATOM     23  H   UNL     1      13.196   6.038  22.042  0.00  0.00    +0.147 HD
ENDBRANCH  21   6
ENDBRANCH  16  17
BRANCH  15  10
ATOM      2  N   UNL     1      16.585  11.564  14.268  0.00  0.00    -0.288 NA
ATOM     10  C   UNL     1      15.279  11.774  14.927  0.00  0.00    +0.146 C 
ATOM     12  C   UNL     1      16.643  12.508  13.151  0.00  0.00    +0.085 C 
ATOM     13  C   UNL     1      14.360  12.315  13.815  0.00  0.00    +0.030 C 
ATOM     14  C   UNL     1      15.244  12.404  12.579  0.00  0.00    +0.017 C 
BRANCH   2   7
ATOM      7  C   UNL     1      17.700  11.800  15.197  0.00  0.00    +0.057 C 
ATOM      8  C   UNL     1      19.040  11.593  14.460  0.00  0.00    +0.019 C 
ATOM      9  C   UNL     1      18.037  13.305  15.230  0.00  0.00    +0.019 C 
ATOM     11  C   UNL     1      19.522  12.897  15.132  0.00  0.00    +0.003 C 
ENDBRANCH   2   7
ENDBRANCH  15  10
TORSDOF 4
ENDMDL
MODEL 6
REMARK VINA RESULT:      -6.0     26.396     28.681
REMARK  Name = 45783792
REMARK  5 active torsions:
REMARK  status: ('A' for Active; 'I' for Inactive)
REMARK    1  A    between atoms: N_2  and  C_7
REMARK    2  A    between atoms: N_6  and  C_21
REMARK    3  A    between atoms: N_6  and  C_22
REMARK    4  A    between atoms: C_10  and  C_15
REMARK    5  A    between atoms: C_16  and  C_17
REMARK                            x       y       z     vdW  Elec       q    Type
REMARK                         _______ _______ _______ _____ _____    ______ ____
ROOT
ATOM      1  O   UNL     1      -1.944 -10.742  14.602  0.00  0.00    -0.336 OA
ATOM      3  N   UNL     1      -4.163 -10.765  14.298  0.00  0.00    -0.190 NA
ATOM      4  N   UNL     1      -2.513 -10.634  15.877  0.00  0.00    -0.056 NA
ATOM     15  C   UNL     1      -2.984 -10.814  13.730  0.00  0.00    +0.245 A 
ATOM     16  C   UNL     1      -3.823 -10.656  15.614  0.00  0.00    +0.204 A 
ENDROOT
BRANCH  16  17
ATOM      5  N   UNL     1      -7.002  -9.802  17.343  0.00  0.00    -0.240 NA
ATOM     17  C   UNL     1      -4.818 -10.566  16.644  0.00  0.00    +0.041 A 
ATOM     18  C   UNL     1      -4.602 -11.121  17.899  0.00  0.00    +0.016 A 
ATOM     19  C   UNL     1      -6.024  -9.922  16.417  0.00  0.00    +0.124 A 
ATOM     20  C   UNL     1      -5.585 -11.018  18.877  0.00  0.00    +0.044 A 
ATOM     21  C   UNL     1      -6.757 -10.354  18.551  0.00  0.00    +0.118 A 
BRANCH  21   6
ATOM      6  N   UNL     1      -7.749 -10.259  19.559  0.00  0.00    -0.332 N 
ATOM     22  C   UNL     1      -8.944 -11.039  19.538  0.00  0.00    +0.127 C 
ATOM     23  H   UNL     1      -7.703  -9.458  20.179  0.00  0.00    +0.147 HD
ENDBRANCH  21   6
ENDBRANCH  16  17
BRANCH  15  10
ATOM      2  N   UNL     1      -3.798 -10.737  11.384  0.00  0.00    -0.288 NA
ATOM     10  C   UNL     1      -2.627 -10.938  12.264  0.00  0.00    +0.146 C 
ATOM     12  C   UNL     1      -3.287 -10.162  10.138  0.00  0.00    +0.085 C 
ATOM     13  C   UNL     1      -1.604  -9.882  11.806  0.00  0.00    +0.030 C 
ATOM     14  C   UNL     1      -2.275  -9.156  10.648  0.00  0.00    +0.017 C 
BRANCH   2   7
ATOM      7  C   UNL     1      -4.495 -12.003  11.117  0.00  0.00    +0.057 C 
ATOM      8  C   UNL     1      -4.675 -12.183   9.595  0.00  0.00    +0.019 C 
ATOM      9  C   UNL     1      -3.470 -13.154  11.055  0.00  0.00    +0.019 C 
ATOM     11  C   UNL     1      -4.208 -13.641   9.791  0.00  0.00    +0.003 C 
ENDBRANCH   2   7
ENDBRANCH  15  10
TORSDOF 4
ENDMDL
MODEL 7
REMARK VINA RESULT:      -6.0      2.662      9.059
REMARK  Name = 45783792
REMARK  5 active torsions:
REMARK  status: ('A' for Active; 'I' for Inactive)
REMARK    1  A    between atoms: N_2  and  C_7
REMARK    2  A    between atoms: N_6  and  C_21
REMARK    3  A    between atoms: N_6  and  C_22
REMARK    4  A    between atoms: C_10  and  C_15
REMARK    5  A    between atoms: C_16  and  C_17
REMARK                            x       y       z     vdW  Elec       q    Type
REMARK                         _______ _______ _______ _____ _____    ______ ____
ROOT
ATOM      1  O   UNL     1      21.210   5.890  23.101  0.00  0.00    -0.336 OA
ATOM      3  N   UNL     1      20.848   5.682  20.900  0.00  0.00    -0.190 NA
ATOM      4  N   UNL     1      19.892   6.305  22.882  0.00  0.00    -0.056 NA
ATOM     15  C   UNL     1      21.702   5.540  21.883  0.00  0.00    +0.245 A 
ATOM     16  C   UNL     1      19.752   6.153  21.562  0.00  0.00    +0.204 A 
ENDROOT
BRANCH  16  17
ATOM      5  N   UNL     1      16.541   7.825  20.714  0.00  0.00    -0.240 NA
ATOM     17  C   UNL     1      18.533   6.465  20.873  0.00  0.00    +0.041 A 
ATOM     18  C   UNL     1      18.149   5.756  19.741  0.00  0.00    +0.016 A 
ATOM     19  C   UNL     1      17.702   7.481  21.317  0.00  0.00    +0.124 A 
ATOM     20  C   UNL     1      16.961   6.081  19.095  0.00  0.00    +0.044 A 
ATOM     21  C   UNL     1      16.200   7.114  19.617  0.00  0.00    +0.118 A 
BRANCH  21   6
ATOM      6  N   UNL     1      14.994   7.434  18.946  0.00  0.00    -0.332 N 
ATOM     22  C   UNL     1      14.590   8.778  18.686  0.00  0.00    +0.127 C 
ATOM     23  H   UNL     1      14.306   6.694  18.853  0.00  0.00    +0.147 HD
ENDBRANCH  21   6
ENDBRANCH  16  17
BRANCH  15  10
ATOM      2  N   UNL     1      23.369   4.085  20.752  0.00  0.00    -0.288 NA
ATOM     10  C   UNL     1      23.134   5.048  21.849  0.00  0.00    +0.146 C 
ATOM     12  C   UNL     1      24.768   4.246  20.352  0.00  0.00    +0.085 C 
ATOM     13  C   UNL     1      24.149   6.180  21.603  0.00  0.00    +0.030 C 
ATOM     14  C   UNL     1      24.928   5.753  20.368  0.00  0.00    +0.017 C 
BRANCH   2   7
ATOM      7  C   UNL     1      23.114   2.704  21.184  0.00  0.00    +0.057 C 
ATOM      8  C   UNL     1      24.340   1.825  20.857  0.00  0.00    +0.019 C 
ATOM      9  C   UNL     1      23.494   2.549  22.671  0.00  0.00    +0.019 C 
ATOM     11  C   UNL     1      24.196   1.232  22.276  0.00  0.00    +0.003 C 
ENDBRANCH   2   7
ENDBRANCH  15  10
TORSDOF 4
ENDMDL
MODEL 8
REMARK VINA RESULT:      -5.9     27.123     29.815
REMARK  Name = 45783792
REMARK  5 active torsions:
REMARK  status: ('A' for Active; 'I' for Inactive)
REMARK    1  A    between atoms: N_2  and  C_7
REMARK    2  A    between atoms: N_6  and  C_21
REMARK    3  A    between atoms: N_6  and  C_22
REMARK    4  A    between atoms: C_10  and  C_15
REMARK    5  A    between atoms: C_16  and  C_17
REMARK                            x       y       z     vdW  Elec       q    Type
REMARK                         _______ _______ _______ _____ _____    ______ ____
ROOT
ATOM      1  O   UNL     1      -8.635 -10.920  20.088  0.00  0.00    -0.336 OA
ATOM      3  N   UNL     1      -8.032 -10.707  17.941  0.00  0.00    -0.190 NA
ATOM      4  N   UNL     1      -7.240 -11.035  20.062  0.00  0.00    -0.056 NA
ATOM     15  C   UNL     1      -9.021 -10.730  18.799  0.00  0.00    +0.245 A 
ATOM     16  C   UNL     1      -6.960 -10.898  18.763  0.00  0.00    +0.204 A 
ENDROOT
BRANCH  16  17
ATOM      5  N   UNL     1      -4.038 -10.318  16.537  0.00  0.00    -0.240 NA
ATOM     17  C   UNL     1      -5.620 -10.949  18.253  0.00  0.00    +0.041 A 
ATOM     18  C   UNL     1      -4.623 -11.646  18.926  0.00  0.00    +0.016 A 
ATOM     19  C   UNL     1      -5.280 -10.308  17.072  0.00  0.00    +0.124 A 
ATOM     20  C   UNL     1      -3.334 -11.679  18.406  0.00  0.00    +0.044 A 
ATOM     21  C   UNL     1      -3.095 -11.005  17.220  0.00  0.00    +0.118 A 
BRANCH  21   6
ATOM      6  N   UNL     1      -1.776 -11.048  16.704  0.00  0.00    -0.332 N 
ATOM     22  C   UNL     1      -1.443 -10.565  15.403  0.00  0.00    +0.127 C 
ATOM     23  H   UNL     1      -1.109 -11.638  17.189  0.00  0.00    +0.147 HD
ENDBRANCH  21   6
ENDBRANCH  16  17
BRANCH  15  10
ATOM      2  N   UNL     1     -10.797  -9.848  17.301  0.00  0.00    -0.288 NA
ATOM     10  C   UNL     1     -10.508 -10.574  18.555  0.00  0.00    +0.146 C 
ATOM     12  C   UNL     1     -12.073 -10.366  16.806  0.00  0.00    +0.085 C 
ATOM     13  C   UNL     1     -11.233 -11.924  18.404  0.00  0.00    +0.030 C 
ATOM     14  C   UNL     1     -11.924 -11.854  17.049  0.00  0.00    +0.017 C 
BRANCH   2   7
ATOM      7  C   UNL     1     -10.884  -8.398  17.526  0.00  0.00    +0.057 C 
ATOM      8  C   UNL     1      -9.811  -7.678  16.682  0.00  0.00    +0.019 C 
ATOM      9  C   UNL     1     -11.933  -7.788  16.574  0.00  0.00    +0.019 C 
ATOM     11  C   UNL     1     -10.910  -6.669  16.286  0.00  0.00    +0.003 C 
ENDBRANCH   2   7
ENDBRANCH  15  10
TORSDOF 4
ENDMDL
MODEL 9
REMARK VINA RESULT:      -5.8      2.092      7.747
REMARK  Name = 45783792
REMARK  5 active torsions:
REMARK  status: ('A' for Active; 'I' for Inactive)
REMARK    1  A    between atoms: N_2  and  C_7
REMARK    2  A    between atoms: N_6  and  C_21
REMARK    3  A    between atoms: N_6  and  C_22
REMARK    4  A    between atoms: C_10  and  C_15
REMARK    5  A    between atoms: C_16  and  C_17
REMARK                            x       y       z     vdW  Elec       q    Type
REMARK                         _______ _______ _______ _____ _____    ______ ____
ROOT
ATOM      1  O   UNL     1      18.839   9.546  21.761  0.00  0.00    -0.336 OA
ATOM      3  N   UNL     1      18.265   7.449  21.222  0.00  0.00    -0.190 NA
ATOM      4  N   UNL     1      17.446   9.547  21.621  0.00  0.00    -0.056 NA
ATOM     15  C   UNL     1      19.242   8.272  21.508  0.00  0.00    +0.245 A 
ATOM     16  C   UNL     1      17.183   8.276  21.304  0.00  0.00    +0.204 A 
ENDROOT
BRANCH  16  17
ATOM      5  N   UNL     1      13.590   7.492  21.856  0.00  0.00    -0.240 NA
ATOM     17  C   UNL     1      15.852   7.800  21.060  0.00  0.00    +0.041 A 
ATOM     18  C   UNL     1      15.515   7.203  19.851  0.00  0.00    +0.016 A 
ATOM     19  C   UNL     1      14.863   7.920  22.023  0.00  0.00    +0.124 A 
ATOM     20  C   UNL     1      14.217   6.750  19.643  0.00  0.00    +0.044 A 
ATOM     21  C   UNL     1      13.300   6.918  20.668  0.00  0.00    +0.118 A 
BRANCH  21   6
ATOM      6  N   UNL     1      11.981   6.452  20.441  0.00  0.00    -0.332 N 
ATOM     22  C   UNL     1      11.159   5.930  21.483  0.00  0.00    +0.127 C 
ATOM     23  H   UNL     1      11.709   6.285  19.478  0.00  0.00    +0.147 HD
ENDBRANCH  21   6
ENDBRANCH  16  17
BRANCH  15  10
ATOM      2  N   UNL     1      21.144   6.861  20.758  0.00  0.00    -0.288 NA
ATOM     10  C   UNL     1      20.730   8.005  21.597  0.00  0.00    +0.146 C 
ATOM     12  C   UNL     1      22.520   7.132  20.337  0.00  0.00    +0.085 C 
ATOM     13  C   UNL     1      21.580   9.188  21.096  0.00  0.00    +0.030 C 
ATOM     14  C   UNL     1      22.460   8.607  19.999  0.00  0.00    +0.017 C 
BRANCH   2   7
ATOM      7  C   UNL     1      21.074   5.595  21.502  0.00  0.00    +0.057 C 
ATOM      8  C   UNL     1      20.601   4.468  20.560  0.00  0.00    +0.019 C 
ATOM      9  C   UNL     1      22.459   4.915  21.496  0.00  0.00    +0.019 C 
ATOM     11  C   UNL     1      21.726   3.599  21.161  0.00  0.00    +0.003 C 
ENDBRANCH   2   7
ENDBRANCH  15  10
TORSDOF 4
ENDMDL
MODEL 10
REMARK VINA RESULT:      -5.8     26.952     30.367
REMARK  Name = 45783792
REMARK  5 active torsions:
REMARK  status: ('A' for Active; 'I' for Inactive)
REMARK    1  A    between atoms: N_2  and  C_7
REMARK    2  A    between atoms: N_6  and  C_21
REMARK    3  A    between atoms: N_6  and  C_22
REMARK    4  A    between atoms: C_10  and  C_15
REMARK    5  A    between atoms: C_16  and  C_17
REMARK                            x       y       z     vdW  Elec       q    Type
REMARK                         _______ _______ _______ _____ _____    ______ ____
ROOT
ATOM      1  O   UNL     1     -13.113   5.299  22.202  0.00  0.00    -0.336 OA
ATOM      3  N   UNL     1     -13.884   7.010  20.979  0.00  0.00    -0.190 NA
ATOM      4  N   UNL     1     -12.014   5.798  21.493  0.00  0.00    -0.056 NA
ATOM     15  C   UNL     1     -14.174   6.068  21.841  0.00  0.00    +0.245 A 
ATOM     16  C   UNL     1     -12.548   6.805  20.797  0.00  0.00    +0.204 A 
ENDROOT
BRANCH  16  17
ATOM      5  N   UNL     1     -10.780   7.931  17.725  0.00  0.00    -0.240 NA
ATOM     17  C   UNL     1     -11.775   7.623  19.906  0.00  0.00    +0.041 A 
ATOM     18  C   UNL     1     -11.277   8.854  20.316  0.00  0.00    +0.016 A 
ATOM     19  C   UNL     1     -11.501   7.209  18.613  0.00  0.00    +0.124 A 
ATOM     20  C   UNL     1     -10.531   9.625  19.431  0.00  0.00    +0.044 A 
ATOM     21  C   UNL     1     -10.313   9.123  18.159  0.00  0.00    +0.118 A 
BRANCH  21   6
ATOM      6  N   UNL     1      -9.552   9.921  17.269  0.00  0.00    -0.332 N 
ATOM     22  C   UNL     1      -9.870  11.285  16.994  0.00  0.00    +0.127 C 
ATOM     23  H   UNL     1      -8.907   9.439  16.651  0.00  0.00    +0.147 HD
ENDBRANCH  21   6
ENDBRANCH  16  17
BRANCH  15  10
ATOM      2  N   UNL     1     -16.331   4.853  21.621  0.00  0.00    -0.288 NA
ATOM     10  C   UNL     1     -15.504   5.727  22.480  0.00  0.00    +0.146 C 
ATOM     12  C   UNL     1     -17.145   4.035  22.521  0.00  0.00    +0.085 C 
ATOM     13  C   UNL     1     -15.350   4.948  23.800  0.00  0.00    +0.030 C 
ATOM     14  C   UNL     1     -16.146   3.666  23.599  0.00  0.00    +0.017 C 
BRANCH   2   7
ATOM      7  C   UNL     1     -17.190   5.638  20.723  0.00  0.00    +0.057 C 
ATOM      8  C   UNL     1     -16.951   5.198  19.263  0.00  0.00    +0.019 C 
ATOM      9  C   UNL     1     -18.576   4.970  20.618  0.00  0.00    +0.019 C 
ATOM     11  C   UNL     1     -18.486   5.197  19.095  0.00  0.00    +0.003 C 
ENDBRANCH   2   7
ENDBRANCH  15  10
TORSDOF 4
ENDMDL
