MODEL 1
REMARK VINA RESULT:      -6.1      0.000      0.000
REMARK  Name = 56774302
REMARK  12 active torsions:
REMARK  status: ('A' for Active; 'I' for Inactive)
REMARK    1  A    between atoms: N_3  and  C_7
REMARK    2  A    between atoms: C_5  and  C_10
REMARK    3  A    between atoms: C_5  and  C_11
REMARK    4  A    between atoms: C_6  and  C_9
REMARK    5  A    between atoms: C_9  and  C_12
REMARK    6  A    between atoms: C_13  and  C_15
REMARK    7  A    between atoms: C_15  and  C_18
REMARK    8  A    between atoms: C_15  and  C_19
REMARK    9  A    between atoms: C_16  and  C_17
REMARK   10  A    between atoms: C_17  and  C_20
REMARK   11  A    between atoms: C_17  and  C_21
REMARK   12  A    between atoms: C_17  and  C_22
REMARK                            x       y       z     vdW  Elec       q    Type
REMARK                         _______ _______ _______ _____ _____    ______ ____
ROOT
ATOM      5  C   UNL     1      15.886   8.109  20.483  0.00  0.00    -0.013 C 
ATOM      6  C   UNL     1      17.072   7.217  20.908  0.00  0.00    +0.004 C 
ATOM      7  C   UNL     1      15.152   7.599  21.741  0.00  0.00    +0.079 C 
ATOM      8  C   UNL     1      16.047   6.345  21.661  0.00  0.00    +0.027 C 
ATOM     10  C   UNL     1      15.283   7.720  19.152  0.00  0.00    +0.013 C 
ATOM     11  C   UNL     1      16.138   9.606  20.516  0.00  0.00    +0.013 C 
ENDROOT
BRANCH   7   3
ATOM      2  O   UNL     1      12.949   9.371  22.306  0.00  0.00    -0.276 OA
ATOM      3  N   UNL     1      13.718   7.313  21.570  0.00  0.00    -0.312 N 
ATOM     13  C   UNL     1      12.729   8.241  21.874  0.00  0.00    +0.216 C 
ATOM     23  H   UNL     1      13.427   6.406  21.214  0.00  0.00    +0.149 HD
BRANCH  13  15
ATOM     15  C   UNL     1      11.321   7.708  21.620  0.00  0.00    +0.069 C 
ATOM     18  C   UNL     1      10.741   8.334  20.354  0.00  0.00    +0.017 C 
ATOM     19  C   UNL     1      11.322   6.185  21.511  0.00  0.00    +0.017 C 
ENDBRANCH  13  15
ENDBRANCH   7   3
BRANCH   6   9
ATOM      9  C   UNL     1      17.830   6.505  19.812  0.00  0.00    +0.063 C 
BRANCH   9  12
ATOM      1  O   UNL     1      20.680   4.433  20.588  0.00  0.00    -0.359 OA
ATOM      4  N   UNL     1      19.523   4.715  19.872  0.00  0.00    -0.083 NA
ATOM     12  C   UNL     1      19.087   5.878  20.364  0.00  0.00    +0.084 A 
ATOM     14  C   UNL     1      19.920   6.372  21.384  0.00  0.00    +0.071 A 
ATOM     16  C   UNL     1      20.906   5.426  21.485  0.00  0.00    +0.143 A 
BRANCH  16  17
ATOM     17  C   UNL     1      22.096   5.286  22.332  0.00  0.00    +0.023 C 
ATOM     20  C   UNL     1      22.388   3.789  22.697  0.00  0.00    +0.019 C 
ATOM     21  C   UNL     1      22.054   6.030  23.720  0.00  0.00    +0.019 C 
ATOM     22  C   UNL     1      23.386   5.838  21.630  0.00  0.00    +0.019 C 
ENDBRANCH  16  17
ENDBRANCH   9  12
ENDBRANCH   6   9
TORSDOF 5
ENDMDL
MODEL 2
REMARK VINA RESULT:      -6.0      2.456      8.677
REMARK  Name = 56774302
REMARK  12 active torsions:
REMARK  status: ('A' for Active; 'I' for Inactive)
REMARK    1  A    between atoms: N_3  and  C_7
REMARK    2  A    between atoms: C_5  and  C_10
REMARK    3  A    between atoms: C_5  and  C_11
REMARK    4  A    between atoms: C_6  and  C_9
REMARK    5  A    between atoms: C_9  and  C_12
REMARK    6  A    between atoms: C_13  and  C_15
REMARK    7  A    between atoms: C_15  and  C_18
REMARK    8  A    between atoms: C_15  and  C_19
REMARK    9  A    between atoms: C_16  and  C_17
REMARK   10  A    between atoms: C_17  and  C_20
REMARK   11  A    between atoms: C_17  and  C_21
REMARK   12  A    between atoms: C_17  and  C_22
REMARK                            x       y       z     vdW  Elec       q    Type
REMARK                         _______ _______ _______ _____ _____    ______ ____
ROOT
ATOM      5  C   UNL     1      20.976   6.333  21.124  0.00  0.00    -0.013 C 
ATOM      6  C   UNL     1      19.626   6.201  20.388  0.00  0.00    +0.004 C 
ATOM      7  C   UNL     1      21.401   5.028  20.418  0.00  0.00    +0.079 C 
ATOM      8  C   UNL     1      19.900   4.685  20.316  0.00  0.00    +0.027 C 
ATOM     10  C   UNL     1      20.853   6.268  22.631  0.00  0.00    +0.013 C 
ATOM     11  C   UNL     1      21.833   7.521  20.729  0.00  0.00    +0.013 C 
ENDROOT
BRANCH   7   3
ATOM      2  O   UNL     1      24.088   4.099  19.940  0.00  0.00    -0.276 OA
ATOM      3  N   UNL     1      22.170   4.078  21.239  0.00  0.00    -0.312 N 
ATOM     13  C   UNL     1      23.466   3.693  20.920  0.00  0.00    +0.216 C 
ATOM     23  H   UNL     1      21.748   3.685  22.077  0.00  0.00    +0.149 HD
BRANCH  13  15
ATOM     15  C   UNL     1      24.048   2.695  21.919  0.00  0.00    +0.069 C 
ATOM     18  C   UNL     1      23.125   2.561  23.128  0.00  0.00    +0.017 C 
ATOM     19  C   UNL     1      24.274   1.334  21.266  0.00  0.00    +0.017 C 
ENDBRANCH  13  15
ENDBRANCH   7   3
BRANCH   6   9
ATOM      9  C   UNL     1      18.381   6.587  21.152  0.00  0.00    +0.063 C 
BRANCH   9  12
ATOM      1  O   UNL     1      15.912   6.248  18.542  0.00  0.00    -0.359 OA
ATOM      4  N   UNL     1      17.081   5.862  19.188  0.00  0.00    -0.083 NA
ATOM     12  C   UNL     1      17.205   6.710  20.213  0.00  0.00    +0.084 A 
ATOM     14  C   UNL     1      16.156   7.644  20.263  0.00  0.00    +0.071 A 
ATOM     16  C   UNL     1      15.371   7.309  19.191  0.00  0.00    +0.143 A 
BRANCH  16  17
ATOM     17  C   UNL     1      14.123   7.849  18.638  0.00  0.00    +0.023 C 
ATOM     20  C   UNL     1      14.078   7.744  17.074  0.00  0.00    +0.019 C 
ATOM     21  C   UNL     1      13.827   9.366  18.941  0.00  0.00    +0.019 C 
ATOM     22  C   UNL     1      12.862   7.087  19.177  0.00  0.00    +0.019 C 
ENDBRANCH  16  17
ENDBRANCH   9  12
ENDBRANCH   6   9
TORSDOF 5
ENDMDL
MODEL 3
REMARK VINA RESULT:      -5.8     28.130     32.233
REMARK  Name = 56774302
REMARK  12 active torsions:
REMARK  status: ('A' for Active; 'I' for Inactive)
REMARK    1  A    between atoms: N_3  and  C_7
REMARK    2  A    between atoms: C_5  and  C_10
REMARK    3  A    between atoms: C_5  and  C_11
REMARK    4  A    between atoms: C_6  and  C_9
REMARK    5  A    between atoms: C_9  and  C_12
REMARK    6  A    between atoms: C_13  and  C_15
REMARK    7  A    between atoms: C_15  and  C_18
REMARK    8  A    between atoms: C_15  and  C_19
REMARK    9  A    between atoms: C_16  and  C_17
REMARK   10  A    between atoms: C_17  and  C_20
REMARK   11  A    between atoms: C_17  and  C_21
REMARK   12  A    between atoms: C_17  and  C_22
REMARK                            x       y       z     vdW  Elec       q    Type
REMARK                         _______ _______ _______ _____ _____    ______ ____
ROOT
ATOM      5  C   UNL     1     -14.148   6.900  21.236  0.00  0.00    -0.013 C 
ATOM      6  C   UNL     1     -13.817   5.539  21.885  0.00  0.00    +0.004 C 
ATOM      7  C   UNL     1     -12.789   6.799  20.512  0.00  0.00    +0.079 C 
ATOM      8  C   UNL     1     -12.330   5.884  21.665  0.00  0.00    +0.027 C 
ATOM     10  C   UNL     1     -14.292   8.028  22.234  0.00  0.00    +0.013 C 
ATOM     11  C   UNL     1     -15.326   6.908  20.278  0.00  0.00    +0.013 C 
ENDROOT
BRANCH   7   3
ATOM      2  O   UNL     1     -11.141   7.657  18.307  0.00  0.00    -0.276 OA
ATOM      3  N   UNL     1     -12.024   8.053  20.412  0.00  0.00    -0.312 N 
ATOM     13  C   UNL     1     -11.257   8.374  19.299  0.00  0.00    +0.216 C 
ATOM     23  H   UNL     1     -12.055   8.720  21.179  0.00  0.00    +0.149 HD
BRANCH  13  15
ATOM     15  C   UNL     1     -10.553   9.722  19.436  0.00  0.00    +0.069 C 
ATOM     18  C   UNL     1     -10.077  10.209  18.069  0.00  0.00    +0.017 C 
ATOM     19  C   UNL     1     -11.472  10.758  20.081  0.00  0.00    +0.017 C 
ENDBRANCH  13  15
ENDBRANCH   7   3
BRANCH   6   9
ATOM      9  C   UNL     1     -14.219   5.344  23.328  0.00  0.00    +0.063 C 
BRANCH   9  12
ATOM      1  O   UNL     1     -16.857   2.940  22.799  0.00  0.00    -0.359 OA
ATOM      4  N   UNL     1     -15.977   3.919  22.353  0.00  0.00    -0.083 NA
ATOM     12  C   UNL     1     -15.287   4.283  23.437  0.00  0.00    +0.084 A 
ATOM     14  C   UNL     1     -15.684   3.575  24.586  0.00  0.00    +0.071 A 
ATOM     16  C   UNL     1     -16.674   2.745  24.129  0.00  0.00    +0.143 A 
BRANCH  16  17
ATOM     17  C   UNL     1     -17.529   1.737  24.768  0.00  0.00    +0.023 C 
ATOM     20  C   UNL     1     -18.150   0.744  23.724  0.00  0.00    +0.019 C 
ATOM     21  C   UNL     1     -18.765   2.285  25.576  0.00  0.00    +0.019 C 
ATOM     22  C   UNL     1     -16.737   0.864  25.804  0.00  0.00    +0.019 C 
ENDBRANCH  16  17
ENDBRANCH   9  12
ENDBRANCH   6   9
TORSDOF 5
ENDMDL
MODEL 4
REMARK VINA RESULT:      -5.7     18.366     20.558
REMARK  Name = 56774302
REMARK  12 active torsions:
REMARK  status: ('A' for Active; 'I' for Inactive)
REMARK    1  A    between atoms: N_3  and  C_7
REMARK    2  A    between atoms: C_5  and  C_10
REMARK    3  A    between atoms: C_5  and  C_11
REMARK    4  A    between atoms: C_6  and  C_9
REMARK    5  A    between atoms: C_9  and  C_12
REMARK    6  A    between atoms: C_13  and  C_15
REMARK    7  A    between atoms: C_15  and  C_18
REMARK    8  A    between atoms: C_15  and  C_19
REMARK    9  A    between atoms: C_16  and  C_17
REMARK   10  A    between atoms: C_17  and  C_20
REMARK   11  A    between atoms: C_17  and  C_21
REMARK   12  A    between atoms: C_17  and  C_22
REMARK                            x       y       z     vdW  Elec       q    Type
REMARK                         _______ _______ _______ _____ _____    ______ ____
ROOT
ATOM      5  C   UNL     1      10.736   6.958   3.703  0.00  0.00    -0.013 C 
ATOM      6  C   UNL     1      10.890   6.020   2.487  0.00  0.00    +0.004 C 
ATOM      7  C   UNL     1      11.254   5.792   4.570  0.00  0.00    +0.079 C 
ATOM      8  C   UNL     1      10.734   4.843   3.472  0.00  0.00    +0.027 C 
ATOM     10  C   UNL     1       9.309   7.395   3.953  0.00  0.00    +0.013 C 
ATOM     11  C   UNL     1      11.655   8.166   3.729  0.00  0.00    +0.013 C 
ENDROOT
BRANCH   7   3
ATOM      2  O   UNL     1      12.129   6.800   7.127  0.00  0.00    -0.276 OA
ATOM      3  N   UNL     1      10.584   5.616   5.870  0.00  0.00    -0.312 N 
ATOM     13  C   UNL     1      11.091   6.145   7.050  0.00  0.00    +0.216 C 
ATOM     23  H   UNL     1       9.714   5.093   5.917  0.00  0.00    +0.149 HD
BRANCH  13  15
ATOM     15  C   UNL     1      10.222   5.821   8.263  0.00  0.00    +0.069 C 
ATOM     18  C   UNL     1       8.978   6.706   8.271  0.00  0.00    +0.017 C 
ATOM     19  C   UNL     1       9.829   4.346   8.278  0.00  0.00    +0.017 C 
ENDBRANCH  13  15
ENDBRANCH   7   3
BRANCH   6   9
ATOM      9  C   UNL     1       9.829   6.097   1.414  0.00  0.00    +0.063 C 
BRANCH   9  12
ATOM      1  O   UNL     1      10.083   4.255  -1.678  0.00  0.00    -0.359 OA
ATOM      4  N   UNL     1       9.354   4.904  -0.689  0.00  0.00    -0.083 NA
ATOM     12  C   UNL     1      10.266   5.333   0.187  0.00  0.00    +0.084 A 
ATOM     14  C   UNL     1      11.575   4.987  -0.192  0.00  0.00    +0.071 A 
ATOM     16  C   UNL     1      11.404   4.310  -1.371  0.00  0.00    +0.143 A 
BRANCH  16  17
ATOM     17  C   UNL     1      12.325   3.668  -2.316  0.00  0.00    +0.023 C 
ATOM     20  C   UNL     1      12.134   2.112  -2.360  0.00  0.00    +0.019 C 
ATOM     21  C   UNL     1      13.862   3.870  -2.036  0.00  0.00    +0.019 C 
ATOM     22  C   UNL     1      12.120   4.188  -3.782  0.00  0.00    +0.019 C 
ENDBRANCH  16  17
ENDBRANCH   9  12
ENDBRANCH   6   9
TORSDOF 5
ENDMDL
MODEL 5
REMARK VINA RESULT:      -5.7     26.444     31.019
REMARK  Name = 56774302
REMARK  12 active torsions:
REMARK  status: ('A' for Active; 'I' for Inactive)
REMARK    1  A    between atoms: N_3  and  C_7
REMARK    2  A    between atoms: C_5  and  C_10
REMARK    3  A    between atoms: C_5  and  C_11
REMARK    4  A    between atoms: C_6  and  C_9
REMARK    5  A    between atoms: C_9  and  C_12
REMARK    6  A    between atoms: C_13  and  C_15
REMARK    7  A    between atoms: C_15  and  C_18
REMARK    8  A    between atoms: C_15  and  C_19
REMARK    9  A    between atoms: C_16  and  C_17
REMARK   10  A    between atoms: C_17  and  C_20
REMARK   11  A    between atoms: C_17  and  C_21
REMARK   12  A    between atoms: C_17  and  C_22
REMARK                            x       y       z     vdW  Elec       q    Type
REMARK                         _______ _______ _______ _____ _____    ______ ____
ROOT
ATOM      5  C   UNL     1      -5.771 -11.332  16.931  0.00  0.00    -0.013 C 
ATOM      6  C   UNL     1      -6.034 -11.662  18.416  0.00  0.00    +0.004 C 
ATOM      7  C   UNL     1      -4.457 -12.130  17.066  0.00  0.00    +0.079 C 
ATOM      8  C   UNL     1      -4.506 -11.809  18.574  0.00  0.00    +0.027 C 
ATOM     10  C   UNL     1      -5.628  -9.851  16.656  0.00  0.00    +0.013 C 
ATOM     11  C   UNL     1      -6.734 -11.950  15.934  0.00  0.00    +0.013 C 
ENDROOT
BRANCH   7   3
ATOM      2  O   UNL     1      -3.478 -12.816  14.442  0.00  0.00    -0.276 OA
ATOM      3  N   UNL     1      -3.288 -11.558  16.378  0.00  0.00    -0.312 N 
ATOM     13  C   UNL     1      -2.898 -11.960  15.106  0.00  0.00    +0.216 C 
ATOM     23  H   UNL     1      -2.740 -10.836  16.839  0.00  0.00    +0.149 HD
BRANCH  13  15
ATOM     15  C   UNL     1      -1.654 -11.226  14.611  0.00  0.00    +0.069 C 
ATOM     18  C   UNL     1      -1.983 -10.419  13.357  0.00  0.00    +0.017 C 
ATOM     19  C   UNL     1      -1.085 -10.315  15.697  0.00  0.00    +0.017 C 
ENDBRANCH  13  15
ENDBRANCH   7   3
BRANCH   6   9
ATOM      9  C   UNL     1      -6.660 -10.580  19.265  0.00  0.00    +0.063 C 
BRANCH   9  12
ATOM      1  O   UNL     1     -10.184 -11.252  19.643  0.00  0.00    -0.359 OA
ATOM      4  N   UNL     1      -8.853 -11.435  19.995  0.00  0.00    -0.083 NA
ATOM     12  C   UNL     1      -8.165 -10.642  19.169  0.00  0.00    +0.084 A 
ATOM     14  C   UNL     1      -9.001  -9.942  18.281  0.00  0.00    +0.071 A 
ATOM     16  C   UNL     1     -10.260 -10.361  18.622  0.00  0.00    +0.143 A 
BRANCH  16  17
ATOM     17  C   UNL     1     -11.605 -10.050  18.122  0.00  0.00    +0.023 C 
ATOM     20  C   UNL     1     -12.632  -9.834  19.288  0.00  0.00    +0.019 C 
ATOM     21  C   UNL     1     -12.275 -11.139  17.203  0.00  0.00    +0.019 C 
ATOM     22  C   UNL     1     -11.623  -8.740  17.258  0.00  0.00    +0.019 C 
ENDBRANCH  16  17
ENDBRANCH   9  12
ENDBRANCH   6   9
TORSDOF 5
ENDMDL
MODEL 6
REMARK VINA RESULT:      -5.6     31.899     33.667
REMARK  Name = 56774302
REMARK  12 active torsions:
REMARK  status: ('A' for Active; 'I' for Inactive)
REMARK    1  A    between atoms: N_3  and  C_7
REMARK    2  A    between atoms: C_5  and  C_10
REMARK    3  A    between atoms: C_5  and  C_11
REMARK    4  A    between atoms: C_6  and  C_9
REMARK    5  A    between atoms: C_9  and  C_12
REMARK    6  A    between atoms: C_13  and  C_15
REMARK    7  A    between atoms: C_15  and  C_18
REMARK    8  A    between atoms: C_15  and  C_19
REMARK    9  A    between atoms: C_16  and  C_17
REMARK   10  A    between atoms: C_17  and  C_20
REMARK   11  A    between atoms: C_17  and  C_21
REMARK   12  A    between atoms: C_17  and  C_22
REMARK                            x       y       z     vdW  Elec       q    Type
REMARK                         _______ _______ _______ _____ _____    ______ ____
ROOT
ATOM      5  C   UNL     1     -15.705   4.635  32.499  0.00  0.00    -0.013 C 
ATOM      6  C   UNL     1     -14.488   5.405  33.055  0.00  0.00    +0.004 C 
ATOM      7  C   UNL     1     -14.841   3.360  32.588  0.00  0.00    +0.079 C 
ATOM      8  C   UNL     1     -13.607   4.279  32.475  0.00  0.00    +0.027 C 
ATOM     10  C   UNL     1     -16.113   5.070  31.108  0.00  0.00    +0.013 C 
ATOM     11  C   UNL     1     -16.924   4.584  33.400  0.00  0.00    +0.013 C 
ENDROOT
BRANCH   7   3
ATOM      2  O   UNL     1     -14.864   0.480  32.736  0.00  0.00    -0.276 OA
ATOM      3  N   UNL     1     -14.978   2.415  31.467  0.00  0.00    -0.312 N 
ATOM     13  C   UNL     1     -14.977   1.037  31.646  0.00  0.00    +0.216 C 
ATOM     23  H   UNL     1     -15.083   2.773  30.521  0.00  0.00    +0.149 HD
BRANCH  13  15
ATOM     15  C   UNL     1     -15.126   0.271  30.333  0.00  0.00    +0.069 C 
ATOM     18  C   UNL     1     -15.783   1.159  29.278  0.00  0.00    +0.017 C 
ATOM     19  C   UNL     1     -13.774  -0.237  29.838  0.00  0.00    +0.017 C 
ENDBRANCH  13  15
ENDBRANCH   7   3
BRANCH   6   9
ATOM      9  C   UNL     1     -14.219   6.779  32.486  0.00  0.00    +0.063 C 
BRANCH   9  12
ATOM      1  O   UNL     1     -11.823   9.003  34.011  0.00  0.00    -0.359 OA
ATOM      4  N   UNL     1     -12.487   8.479  32.909  0.00  0.00    -0.083 NA
ATOM     12  C   UNL     1     -13.320   7.564  33.410  0.00  0.00    +0.084 A 
ATOM     14  C   UNL     1     -13.227   7.466  34.810  0.00  0.00    +0.071 A 
ATOM     16  C   UNL     1     -12.272   8.393  35.137  0.00  0.00    +0.143 A 
BRANCH  16  17
ATOM     17  C   UNL     1     -11.673   8.829  36.403  0.00  0.00    +0.023 C 
ATOM     20  C   UNL     1     -10.553   9.906  36.185  0.00  0.00    +0.019 C 
ATOM     21  C   UNL     1     -10.980   7.709  37.268  0.00  0.00    +0.019 C 
ATOM     22  C   UNL     1     -12.732   9.471  37.366  0.00  0.00    +0.019 C 
ENDBRANCH  16  17
ENDBRANCH   9  12
ENDBRANCH   6   9
TORSDOF 5
ENDMDL
MODEL 7
REMARK VINA RESULT:      -5.6     27.095     29.582
REMARK  Name = 56774302
REMARK  12 active torsions:
REMARK  status: ('A' for Active; 'I' for Inactive)
REMARK    1  A    between atoms: N_3  and  C_7
REMARK    2  A    between atoms: C_5  and  C_10
REMARK    3  A    between atoms: C_5  and  C_11
REMARK    4  A    between atoms: C_6  and  C_9
REMARK    5  A    between atoms: C_9  and  C_12
REMARK    6  A    between atoms: C_13  and  C_15
REMARK    7  A    between atoms: C_15  and  C_18
REMARK    8  A    between atoms: C_15  and  C_19
REMARK    9  A    between atoms: C_16  and  C_17
REMARK   10  A    between atoms: C_17  and  C_20
REMARK   11  A    between atoms: C_17  and  C_21
REMARK   12  A    between atoms: C_17  and  C_22
REMARK                            x       y       z     vdW  Elec       q    Type
REMARK                         _______ _______ _______ _____ _____    ______ ____
ROOT
ATOM      5  C   UNL     1      -6.751 -10.583  17.117  0.00  0.00    -0.013 C 
ATOM      6  C   UNL     1      -5.321 -10.427  17.679  0.00  0.00    +0.004 C 
ATOM      7  C   UNL     1      -7.259 -10.038  18.468  0.00  0.00    +0.079 C 
ATOM      8  C   UNL     1      -5.943 -10.556  19.085  0.00  0.00    +0.027 C 
ATOM     10  C   UNL     1      -7.120 -12.014  16.791  0.00  0.00    +0.013 C 
ATOM     11  C   UNL     1      -7.105  -9.682  15.948  0.00  0.00    +0.013 C 
ENDROOT
BRANCH   7   3
ATOM      2  O   UNL     1     -10.003  -9.279  18.009  0.00  0.00    -0.276 OA
ATOM      3  N   UNL     1      -8.462 -10.692  19.008  0.00  0.00    -0.312 N 
ATOM     13  C   UNL     1      -9.747 -10.245  18.725  0.00  0.00    +0.216 C 
ATOM     23  H   UNL     1      -8.363 -11.506  19.609  0.00  0.00    +0.149 HD
BRANCH  13  15
ATOM     15  C   UNL     1     -10.827 -11.082  19.407  0.00  0.00    +0.069 C 
ATOM     18  C   UNL     1     -10.186 -12.173  20.262  0.00  0.00    +0.017 C 
ATOM     19  C   UNL     1     -11.744 -10.207  20.257  0.00  0.00    +0.017 C 
ENDBRANCH  13  15
ENDBRANCH   7   3
BRANCH   6   9
ATOM      9  C   UNL     1      -4.318 -11.500  17.327  0.00  0.00    +0.063 C 
BRANCH   9  12
ATOM      1  O   UNL     1      -2.081 -10.457  14.695  0.00  0.00    -0.359 OA
ATOM      4  N   UNL     1      -2.410 -10.626  16.034  0.00  0.00    -0.083 NA
ATOM     12  C   UNL     1      -3.631 -11.169  16.024  0.00  0.00    +0.084 A 
ATOM     14  C   UNL     1      -4.118 -11.364  14.719  0.00  0.00    +0.071 A 
ATOM     16  C   UNL     1      -3.105 -10.899  13.922  0.00  0.00    +0.143 A 
BRANCH  16  17
ATOM     17  C   UNL     1      -2.923 -10.794  12.469  0.00  0.00    +0.023 C 
ATOM     20  C   UNL     1      -2.804 -12.201  11.786  0.00  0.00    +0.019 C 
ATOM     21  C   UNL     1      -1.646 -10.011  11.983  0.00  0.00    +0.019 C 
ATOM     22  C   UNL     1      -4.123 -10.058  11.777  0.00  0.00    +0.019 C 
ENDBRANCH  16  17
ENDBRANCH   9  12
ENDBRANCH   6   9
TORSDOF 5
ENDMDL
MODEL 8
REMARK VINA RESULT:      -5.6     18.634     21.185
REMARK  Name = 56774302
REMARK  12 active torsions:
REMARK  status: ('A' for Active; 'I' for Inactive)
REMARK    1  A    between atoms: N_3  and  C_7
REMARK    2  A    between atoms: C_5  and  C_10
REMARK    3  A    between atoms: C_5  and  C_11
REMARK    4  A    between atoms: C_6  and  C_9
REMARK    5  A    between atoms: C_9  and  C_12
REMARK    6  A    between atoms: C_13  and  C_15
REMARK    7  A    between atoms: C_15  and  C_18
REMARK    8  A    between atoms: C_15  and  C_19
REMARK    9  A    between atoms: C_16  and  C_17
REMARK   10  A    between atoms: C_17  and  C_20
REMARK   11  A    between atoms: C_17  and  C_21
REMARK   12  A    between atoms: C_17  and  C_22
REMARK                            x       y       z     vdW  Elec       q    Type
REMARK                         _______ _______ _______ _____ _____    ______ ____
ROOT
ATOM      5  C   UNL     1      12.091   4.626   1.200  0.00  0.00    -0.013 C 
ATOM      6  C   UNL     1      10.949   4.901   2.202  0.00  0.00    +0.004 C 
ATOM      7  C   UNL     1      11.042   4.786   0.079  0.00  0.00    +0.079 C 
ATOM      8  C   UNL     1       9.979   4.382   1.120  0.00  0.00    +0.027 C 
ATOM     10  C   UNL     1      12.708   3.252   1.347  0.00  0.00    +0.013 C 
ATOM     11  C   UNL     1      13.185   5.676   1.137  0.00  0.00    +0.013 C 
ENDROOT
BRANCH   7   3
ATOM      2  O   UNL     1       9.946   5.094  -2.571  0.00  0.00    -0.276 OA
ATOM      3  N   UNL     1      11.159   3.842  -1.045  0.00  0.00    -0.312 N 
ATOM     13  C   UNL     1      10.591   4.085  -2.289  0.00  0.00    +0.216 C 
ATOM     23  H   UNL     1      11.677   2.976  -0.919  0.00  0.00    +0.149 HD
BRANCH  13  15
ATOM     15  C   UNL     1      10.843   2.956  -3.285  0.00  0.00    +0.069 C 
ATOM     18  C   UNL     1      11.706   1.871  -2.643  0.00  0.00    +0.017 C 
ATOM     19  C   UNL     1       9.528   2.365  -3.788  0.00  0.00    +0.017 C 
ENDBRANCH  13  15
ENDBRANCH   7   3
BRANCH   6   9
ATOM      9  C   UNL     1      10.951   4.109   3.488  0.00  0.00    +0.063 C 
BRANCH   9  12
ATOM      1  O   UNL     1       9.408   5.363   6.498  0.00  0.00    -0.359 OA
ATOM      4  N   UNL     1       9.820   4.329   5.666  0.00  0.00    -0.083 NA
ATOM     12  C   UNL     1      10.379   4.934   4.614  0.00  0.00    +0.084 A 
ATOM     14  C   UNL     1      10.348   6.336   4.726  0.00  0.00    +0.071 A 
ATOM     16  C   UNL     1       9.727   6.552   5.928  0.00  0.00    +0.143 A 
BRANCH  16  17
ATOM     17  C   UNL     1       9.360   7.759   6.679  0.00  0.00    +0.023 C 
ATOM     20  C   UNL     1       8.836   7.421   8.119  0.00  0.00    +0.019 C 
ATOM     21  C   UNL     1       8.228   8.654   6.047  0.00  0.00    +0.019 C 
ATOM     22  C   UNL     1      10.577   8.732   6.860  0.00  0.00    +0.019 C 
ENDBRANCH  16  17
ENDBRANCH   9  12
ENDBRANCH   6   9
TORSDOF 5
ENDMDL
MODEL 9
REMARK VINA RESULT:      -5.5     27.629     29.710
REMARK  Name = 56774302
REMARK  12 active torsions:
REMARK  status: ('A' for Active; 'I' for Inactive)
REMARK    1  A    between atoms: N_3  and  C_7
REMARK    2  A    between atoms: C_5  and  C_10
REMARK    3  A    between atoms: C_5  and  C_11
REMARK    4  A    between atoms: C_6  and  C_9
REMARK    5  A    between atoms: C_9  and  C_12
REMARK    6  A    between atoms: C_13  and  C_15
REMARK    7  A    between atoms: C_15  and  C_18
REMARK    8  A    between atoms: C_15  and  C_19
REMARK    9  A    between atoms: C_16  and  C_17
REMARK   10  A    between atoms: C_17  and  C_20
REMARK   11  A    between atoms: C_17  and  C_21
REMARK   12  A    between atoms: C_17  and  C_22
REMARK                            x       y       z     vdW  Elec       q    Type
REMARK                         _______ _______ _______ _____ _____    ______ ____
ROOT
ATOM      5  C   UNL     1      -4.209  -9.820  10.855  0.00  0.00    -0.013 C 
ATOM      6  C   UNL     1      -3.920 -10.769  12.037  0.00  0.00    +0.004 C 
ATOM      7  C   UNL     1      -4.735 -11.054  10.092  0.00  0.00    +0.079 C 
ATOM      8  C   UNL     1      -3.826 -11.907  11.000  0.00  0.00    +0.027 C 
ATOM     10  C   UNL     1      -2.969  -9.163  10.289  0.00  0.00    +0.013 C 
ATOM     11  C   UNL     1      -5.282  -8.773  11.092  0.00  0.00    +0.013 C 
ENDROOT
BRANCH   7   3
ATOM      2  O   UNL     1      -6.537 -11.379   7.865  0.00  0.00    -0.276 OA
ATOM      3  N   UNL     1      -4.378 -11.123   8.665  0.00  0.00    -0.312 N 
ATOM     13  C   UNL     1      -5.328 -11.282   7.664  0.00  0.00    +0.216 C 
ATOM     23  H   UNL     1      -3.402 -11.048   8.389  0.00  0.00    +0.149 HD
BRANCH  13  15
ATOM     15  C   UNL     1      -4.711 -11.333   6.268  0.00  0.00    +0.069 C 
ATOM     18  C   UNL     1      -3.889 -12.609   6.102  0.00  0.00    +0.017 C 
ATOM     19  C   UNL     1      -5.788 -11.248   5.189  0.00  0.00    +0.017 C 
ENDBRANCH  13  15
ENDBRANCH   7   3
BRANCH   6   9
ATOM      9  C   UNL     1      -2.658 -10.524  12.829  0.00  0.00    +0.063 C 
BRANCH   9  12
ATOM      1  O   UNL     1      -2.506 -10.771  16.425  0.00  0.00    -0.359 OA
ATOM      4  N   UNL     1      -1.950 -10.469  15.189  0.00  0.00    -0.083 NA
ATOM     12  C   UNL     1      -2.911 -10.740  14.301  0.00  0.00    +0.084 A 
ATOM     14  C   UNL     1      -4.084 -11.213  14.914  0.00  0.00    +0.071 A 
ATOM     16  C   UNL     1      -3.777 -11.214  16.249  0.00  0.00    +0.143 A 
BRANCH  16  17
ATOM     17  C   UNL     1      -4.518 -11.581  17.461  0.00  0.00    +0.023 C 
ATOM     20  C   UNL     1      -5.561 -10.483  17.871  0.00  0.00    +0.019 C 
ATOM     21  C   UNL     1      -3.656 -11.811  18.760  0.00  0.00    +0.019 C 
ATOM     22  C   UNL     1      -5.320 -12.918  17.280  0.00  0.00    +0.019 C 
ENDBRANCH  16  17
ENDBRANCH   9  12
ENDBRANCH   6   9
TORSDOF 5
ENDMDL
MODEL 10
REMARK VINA RESULT:      -5.5      2.553      9.012
REMARK  Name = 56774302
REMARK  12 active torsions:
REMARK  status: ('A' for Active; 'I' for Inactive)
REMARK    1  A    between atoms: N_3  and  C_7
REMARK    2  A    between atoms: C_5  and  C_10
REMARK    3  A    between atoms: C_5  and  C_11
REMARK    4  A    between atoms: C_6  and  C_9
REMARK    5  A    between atoms: C_9  and  C_12
REMARK    6  A    between atoms: C_13  and  C_15
REMARK    7  A    between atoms: C_15  and  C_18
REMARK    8  A    between atoms: C_15  and  C_19
REMARK    9  A    between atoms: C_16  and  C_17
REMARK   10  A    between atoms: C_17  and  C_20
REMARK   11  A    between atoms: C_17  and  C_21
REMARK   12  A    between atoms: C_17  and  C_22
REMARK                            x       y       z     vdW  Elec       q    Type
REMARK                         _______ _______ _______ _____ _____    ______ ____
ROOT
ATOM      5  C   UNL     1      22.240   6.067  21.332  0.00  0.00    -0.013 C 
ATOM      6  C   UNL     1      20.747   6.238  20.978  0.00  0.00    +0.004 C 
ATOM      7  C   UNL     1      22.306   5.013  20.207  0.00  0.00    +0.079 C 
ATOM      8  C   UNL     1      20.794   4.801  20.420  0.00  0.00    +0.027 C 
ATOM     10  C   UNL     1      22.473   5.560  22.739  0.00  0.00    +0.013 C 
ATOM     11  C   UNL     1      23.126   7.270  21.066  0.00  0.00    +0.013 C 
ENDROOT
BRANCH   7   3
ATOM      2  O   UNL     1      25.071   4.579  19.510  0.00  0.00    -0.276 OA
ATOM      3  N   UNL     1      23.118   3.819  20.498  0.00  0.00    -0.312 N 
ATOM     13  C   UNL     1      24.449   3.708  20.117  0.00  0.00    +0.216 C 
ATOM     23  H   UNL     1      22.699   3.040  21.001  0.00  0.00    +0.149 HD
BRANCH  13  15
ATOM     15  C   UNL     1      25.071   2.375  20.525  0.00  0.00    +0.069 C 
ATOM     18  C   UNL     1      26.257   2.611  21.458  0.00  0.00    +0.017 C 
ATOM     19  C   UNL     1      24.039   1.469  21.192  0.00  0.00    +0.017 C 
ENDBRANCH  13  15
ENDBRANCH   7   3
BRANCH   6   9
ATOM      9  C   UNL     1      19.783   6.446  22.123  0.00  0.00    +0.063 C 
BRANCH   9  12
ATOM      1  O   UNL     1      17.332   8.967  21.316  0.00  0.00    -0.359 OA
ATOM      4  N   UNL     1      18.551   8.562  21.846  0.00  0.00    -0.083 NA
ATOM     12  C   UNL     1      18.584   7.239  21.663  0.00  0.00    +0.084 A 
ATOM     14  C   UNL     1      17.425   6.758  21.029  0.00  0.00    +0.071 A 
ATOM     16  C   UNL     1      16.671   7.885  20.833  0.00  0.00    +0.143 A 
BRANCH  16  17
ATOM     17  C   UNL     1      15.355   8.135  20.232  0.00  0.00    +0.023 C 
ATOM     20  C   UNL     1      14.994   7.070  19.138  0.00  0.00    +0.019 C 
ATOM     21  C   UNL     1      15.174   9.522  19.507  0.00  0.00    +0.019 C 
ATOM     22  C   UNL     1      14.204   8.095  21.297  0.00  0.00    +0.019 C 
ENDBRANCH  16  17
ENDBRANCH   9  12
ENDBRANCH   6   9
TORSDOF 5
ENDMDL
