MODEL 1
REMARK VINA RESULT:      -6.9      0.000      0.000
REMARK  Name = 75536614
REMARK  6 active torsions:
REMARK  status: ('A' for Active; 'I' for Inactive)
REMARK    1  A    between atoms: O_2  and  C_8
REMARK    2  A    between atoms: N_5  and  C_7
REMARK    3  A    between atoms: N_5  and  C_10
REMARK    4  A    between atoms: N_6  and  C_14
REMARK    5  A    between atoms: C_9  and  C_14
REMARK    6  A    between atoms: C_17  and  C_18
REMARK                            x       y       z     vdW  Elec       q    Type
REMARK                         _______ _______ _______ _____ _____    ______ ____
ROOT
ATOM      1  O   UNL     1      12.905   6.944  21.038  0.00  0.00    -0.371 OA
ATOM      7  C   UNL     1      10.885   8.184  21.198  0.00  0.00    +0.111 C 
ATOM      8  C   UNL     1      11.508   8.426  19.835  0.00  0.00    +0.164 C 
ATOM      9  C   UNL     1      12.423   7.214  19.712  0.00  0.00    +0.165 C 
ATOM     11  C   UNL     1      12.072   7.644  21.979  0.00  0.00    +0.181 C 
ENDROOT
BRANCH   8   2
ATOM      2  O   UNL     1      10.549   8.470  18.797  0.00  0.00    -0.388 OA
ATOM     25  H   UNL     1       9.720   8.823  19.161  0.00  0.00    +0.210 HD
ENDBRANCH   8   2
BRANCH   7   5
ATOM      5  N   UNL     1      10.309   9.376  21.796  0.00  0.00    -0.306 NA
ATOM     24  H   UNL     1       9.608   9.117  22.490  0.00  0.00    +0.123 HD
BRANCH   5  10
ATOM      3  O   UNL     1      12.122  12.732  23.550  0.00  0.00    -0.380 OA
ATOM     10  C   UNL     1      11.340  10.203  22.418  0.00  0.00    +0.058 C 
ATOM     12  C   UNL     1      10.922  10.637  23.827  0.00  0.00    +0.047 C 
ATOM     13  C   UNL     1      11.629  11.434  21.555  0.00  0.00    +0.047 C 
ATOM     15  C   UNL     1      11.946  11.605  24.409  0.00  0.00    +0.161 C 
ATOM     16  C   UNL     1      12.614  12.358  22.263  0.00  0.00    +0.161 C 
ENDBRANCH   5  10
ENDBRANCH   7   5
BRANCH   9  14
ATOM     14  C   UNL     1      13.596   7.442  18.775  0.00  0.00    +0.138 C 
BRANCH  14   6
ATOM      4  O   UNL     1      15.997   5.909  18.415  0.00  0.00    -0.270 OA
ATOM      6  N   UNL     1      14.824   7.588  19.504  0.00  0.00    -0.309 N 
ATOM     17  C   UNL     1      15.943   6.798  19.261  0.00  0.00    +0.244 C 
ATOM     26  H   UNL     1      14.822   8.257  20.266  0.00  0.00    +0.149 HD
BRANCH  17  18
ATOM     18  C   UNL     1      17.128   7.057  20.120  0.00  0.00    +0.037 A 
ATOM     19  C   UNL     1      17.172   8.197  20.923  0.00  0.00    +0.013 A 
ATOM     20  C   UNL     1      18.195   6.159  20.125  0.00  0.00    +0.013 A 
ATOM     21  C   UNL     1      18.283   8.438  21.730  0.00  0.00    +0.001 A 
ATOM     22  C   UNL     1      19.307   6.401  20.932  0.00  0.00    +0.001 A 
ATOM     23  C   UNL     1      19.350   7.541  21.735  0.00  0.00    +0.000 A 
ENDBRANCH  17  18
ENDBRANCH  14   6
ENDBRANCH   9  14
TORSDOF 6
ENDMDL
MODEL 2
REMARK VINA RESULT:      -6.7      2.133      2.818
REMARK  Name = 75536614
REMARK  6 active torsions:
REMARK  status: ('A' for Active; 'I' for Inactive)
REMARK    1  A    between atoms: O_2  and  C_8
REMARK    2  A    between atoms: N_5  and  C_7
REMARK    3  A    between atoms: N_5  and  C_10
REMARK    4  A    between atoms: N_6  and  C_14
REMARK    5  A    between atoms: C_9  and  C_14
REMARK    6  A    between atoms: C_17  and  C_18
REMARK                            x       y       z     vdW  Elec       q    Type
REMARK                         _______ _______ _______ _____ _____    ______ ____
ROOT
ATOM      1  O   UNL     1      13.326   9.289  22.308  0.00  0.00    -0.371 OA
ATOM      7  C   UNL     1      11.456  10.742  22.497  0.00  0.00    +0.111 C 
ATOM      8  C   UNL     1      11.009   9.440  21.856  0.00  0.00    +0.164 C 
ATOM      9  C   UNL     1      12.125   8.500  22.294  0.00  0.00    +0.165 C 
ATOM     11  C   UNL     1      12.960  10.680  22.285  0.00  0.00    +0.181 C 
ENDROOT
BRANCH   8   2
ATOM      2  O   UNL     1       9.744   9.010  22.320  0.00  0.00    -0.388 OA
ATOM     25  H   UNL     1       9.278   9.777  22.693  0.00  0.00    +0.210 HD
ENDBRANCH   8   2
BRANCH   7   5
ATOM      5  N   UNL     1      10.850  11.922  21.904  0.00  0.00    -0.306 NA
ATOM     24  H   UNL     1       9.864  11.748  21.709  0.00  0.00    +0.123 HD
BRANCH   5  10
ATOM      3  O   UNL     1       9.730  15.077  24.437  0.00  0.00    -0.380 OA
ATOM     10  C   UNL     1      10.983  13.080  22.785  0.00  0.00    +0.058 C 
ATOM     12  C   UNL     1      10.450  12.770  24.188  0.00  0.00    +0.047 C 
ATOM     13  C   UNL     1      10.241  14.284  22.197  0.00  0.00    +0.047 C 
ATOM     15  C   UNL     1      10.473  14.025  25.053  0.00  0.00    +0.161 C 
ATOM     16  C   UNL     1      10.276  15.456  23.172  0.00  0.00    +0.161 C 
ENDBRANCH   5  10
ENDBRANCH   7   5
BRANCH   9  14
ATOM     14  C   UNL     1      12.303   7.310  21.368  0.00  0.00    +0.138 C 
BRANCH  14   6
ATOM      4  O   UNL     1      13.964   7.740  19.066  0.00  0.00    -0.270 OA
ATOM      6  N   UNL     1      13.688   6.958  21.232  0.00  0.00    -0.309 N 
ATOM     17  C   UNL     1      14.418   7.206  20.074  0.00  0.00    +0.244 C 
ATOM     26  H   UNL     1      14.105   6.450  22.004  0.00  0.00    +0.149 HD
BRANCH  17  18
ATOM     18  C   UNL     1      15.835   6.757  20.083  0.00  0.00    +0.037 A 
ATOM     19  C   UNL     1      16.365   6.099  18.973  0.00  0.00    +0.013 A 
ATOM     20  C   UNL     1      16.634   6.996  21.200  0.00  0.00    +0.013 A 
ATOM     21  C   UNL     1      17.695   5.680  18.982  0.00  0.00    +0.001 A 
ATOM     22  C   UNL     1      17.964   6.577  21.209  0.00  0.00    +0.001 A 
ATOM     23  C   UNL     1      18.495   5.919  20.099  0.00  0.00    +0.000 A 
ENDBRANCH  17  18
ENDBRANCH  14   6
ENDBRANCH   9  14
TORSDOF 6
ENDMDL
MODEL 3
REMARK VINA RESULT:      -6.5     25.764     27.621
REMARK  Name = 75536614
REMARK  6 active torsions:
REMARK  status: ('A' for Active; 'I' for Inactive)
REMARK    1  A    between atoms: O_2  and  C_8
REMARK    2  A    between atoms: N_5  and  C_7
REMARK    3  A    between atoms: N_5  and  C_10
REMARK    4  A    between atoms: N_6  and  C_14
REMARK    5  A    between atoms: C_9  and  C_14
REMARK    6  A    between atoms: C_17  and  C_18
REMARK                            x       y       z     vdW  Elec       q    Type
REMARK                         _______ _______ _______ _____ _____    ______ ____
ROOT
ATOM      1  O   UNL     1      -1.202 -11.393  15.124  0.00  0.00    -0.371 OA
ATOM      7  C   UNL     1      -3.284 -11.149  16.243  0.00  0.00    +0.111 C 
ATOM      8  C   UNL     1      -3.527 -11.753  14.871  0.00  0.00    +0.164 C 
ATOM      9  C   UNL     1      -2.146 -12.311  14.548  0.00  0.00    +0.165 C 
ATOM     11  C   UNL     1      -1.895 -10.557  16.069  0.00  0.00    +0.181 C 
ENDROOT
BRANCH   8   2
ATOM      2  O   UNL     1      -4.514 -12.765  14.889  0.00  0.00    -0.388 OA
ATOM     25  H   UNL     1      -4.542 -13.150  15.780  0.00  0.00    +0.210 HD
ENDBRANCH   8   2
BRANCH   7   5
ATOM      5  N   UNL     1      -4.276 -10.159  16.628  0.00  0.00    -0.306 NA
ATOM     24  H   UNL     1      -4.662  -9.709  15.798  0.00  0.00    +0.123 HD
BRANCH   5  10
ATOM      3  O   UNL     1      -7.125 -10.657  19.672  0.00  0.00    -0.380 OA
ATOM     10  C   UNL     1      -5.353 -10.769  17.406  0.00  0.00    +0.058 C 
ATOM     12  C   UNL     1      -6.589  -9.865  17.438  0.00  0.00    +0.047 C 
ATOM     13  C   UNL     1      -4.880 -11.060  18.833  0.00  0.00    +0.047 C 
ATOM     15  C   UNL     1      -7.651 -10.452  18.361  0.00  0.00    +0.161 C 
ATOM     16  C   UNL     1      -6.036 -11.581  19.678  0.00  0.00    +0.161 C 
ENDBRANCH   5  10
ENDBRANCH   7   5
BRANCH   9  14
ATOM     14  C   UNL     1      -1.888 -12.446  13.058  0.00  0.00    +0.138 C 
BRANCH  14   6
ATOM      4  O   UNL     1      -1.452  -9.864  11.880  0.00  0.00    -0.270 OA
ATOM      6  N   UNL     1      -2.833 -11.681  12.295  0.00  0.00    -0.309 N 
ATOM     17  C   UNL     1      -2.533 -10.433  11.759  0.00  0.00    +0.244 C 
ATOM     26  H   UNL     1      -3.769 -12.064  12.217  0.00  0.00    +0.149 HD
BRANCH  17  18
ATOM     18  C   UNL     1      -3.629  -9.758  11.015  0.00  0.00    +0.037 A 
ATOM     19  C   UNL     1      -4.865  -9.552  11.629  0.00  0.00    +0.013 A 
ATOM     20  C   UNL     1      -3.421  -9.330   9.705  0.00  0.00    +0.013 A 
ATOM     21  C   UNL     1      -5.891  -8.918  10.931  0.00  0.00    +0.001 A 
ATOM     22  C   UNL     1      -4.449  -8.695   9.007  0.00  0.00    +0.001 A 
ATOM     23  C   UNL     1      -5.684  -8.489   9.620  0.00  0.00    +0.000 A 
ENDBRANCH  17  18
ENDBRANCH  14   6
ENDBRANCH   9  14
TORSDOF 6
ENDMDL
MODEL 4
REMARK VINA RESULT:      -6.5      3.644      6.212
REMARK  Name = 75536614
REMARK  6 active torsions:
REMARK  status: ('A' for Active; 'I' for Inactive)
REMARK    1  A    between atoms: O_2  and  C_8
REMARK    2  A    between atoms: N_5  and  C_7
REMARK    3  A    between atoms: N_5  and  C_10
REMARK    4  A    between atoms: N_6  and  C_14
REMARK    5  A    between atoms: C_9  and  C_14
REMARK    6  A    between atoms: C_17  and  C_18
REMARK                            x       y       z     vdW  Elec       q    Type
REMARK                         _______ _______ _______ _____ _____    ______ ____
ROOT
ATOM      1  O   UNL     1      18.613   6.130  19.690  0.00  0.00    -0.371 OA
ATOM      7  C   UNL     1      16.329   6.738  19.934  0.00  0.00    +0.111 C 
ATOM      8  C   UNL     1      17.027   6.886  21.274  0.00  0.00    +0.164 C 
ATOM      9  C   UNL     1      18.483   6.986  20.837  0.00  0.00    +0.165 C 
ATOM     11  C   UNL     1      17.297   5.832  19.190  0.00  0.00    +0.181 C 
ENDROOT
BRANCH   8   2
ATOM      2  O   UNL     1      16.608   8.037  21.982  0.00  0.00    -0.388 OA
ATOM     25  H   UNL     1      16.278   8.687  21.341  0.00  0.00    +0.210 HD
ENDBRANCH   8   2
BRANCH   7   5
ATOM      5  N   UNL     1      14.991   6.178  20.032  0.00  0.00    -0.306 NA
ATOM     24  H   UNL     1      14.883   5.682  20.916  0.00  0.00    +0.123 HD
BRANCH   5  10
ATOM      3  O   UNL     1      11.333   8.013  19.098  0.00  0.00    -0.380 OA
ATOM     10  C   UNL     1      13.975   7.222  19.923  0.00  0.00    +0.058 C 
ATOM     12  C   UNL     1      12.721   6.855  20.722  0.00  0.00    +0.047 C 
ATOM     13  C   UNL     1      13.610   7.459  18.454  0.00  0.00    +0.047 C 
ATOM     15  C   UNL     1      11.623   7.889  20.490  0.00  0.00    +0.161 C 
ATOM     16  C   UNL     1      12.463   8.458  18.348  0.00  0.00    +0.161 C 
ENDBRANCH   5  10
ENDBRANCH   7   5
BRANCH   9  14
ATOM     14  C   UNL     1      19.462   6.554  21.914  0.00  0.00    +0.138 C 
BRANCH  14   6
ATOM      4  O   UNL     1      21.480   5.139  23.386  0.00  0.00    -0.270 OA
ATOM      6  N   UNL     1      20.519   5.753  21.366  0.00  0.00    -0.309 N 
ATOM     17  C   UNL     1      21.458   5.100  22.159  0.00  0.00    +0.244 C 
ATOM     26  H   UNL     1      20.599   5.737  20.355  0.00  0.00    +0.149 HD
BRANCH  17  18
ATOM     18  C   UNL     1      22.505   4.332  21.436  0.00  0.00    +0.037 A 
ATOM     19  C   UNL     1      23.421   4.997  20.621  0.00  0.00    +0.013 A 
ATOM     20  C   UNL     1      22.573   2.946  21.576  0.00  0.00    +0.013 A 
ATOM     21  C   UNL     1      24.404   4.276  19.946  0.00  0.00    +0.001 A 
ATOM     22  C   UNL     1      23.557   2.224  20.899  0.00  0.00    +0.001 A 
ATOM     23  C   UNL     1      24.473   2.889  20.084  0.00  0.00    +0.000 A 
ENDBRANCH  17  18
ENDBRANCH  14   6
ENDBRANCH   9  14
TORSDOF 6
ENDMDL
MODEL 5
REMARK VINA RESULT:      -6.4      1.738      7.343
REMARK  Name = 75536614
REMARK  6 active torsions:
REMARK  status: ('A' for Active; 'I' for Inactive)
REMARK    1  A    between atoms: O_2  and  C_8
REMARK    2  A    between atoms: N_5  and  C_7
REMARK    3  A    between atoms: N_5  and  C_10
REMARK    4  A    between atoms: N_6  and  C_14
REMARK    5  A    between atoms: C_9  and  C_14
REMARK    6  A    between atoms: C_17  and  C_18
REMARK                            x       y       z     vdW  Elec       q    Type
REMARK                         _______ _______ _______ _____ _____    ______ ____
ROOT
ATOM      1  O   UNL     1      11.163   6.940  21.082  0.00  0.00    -0.371 OA
ATOM      7  C   UNL     1      13.510   7.271  20.919  0.00  0.00    +0.111 C 
ATOM      8  C   UNL     1      12.868   8.535  21.460  0.00  0.00    +0.164 C 
ATOM      9  C   UNL     1      11.545   7.991  21.984  0.00  0.00    +0.165 C 
ATOM     11  C   UNL     1      12.313   6.567  20.301  0.00  0.00    +0.181 C 
ENDROOT
BRANCH   8   2
ATOM      2  O   UNL     1      13.633   9.139  22.486  0.00  0.00    -0.388 OA
ATOM     25  H   UNL     1      14.549   9.226  22.173  0.00  0.00    +0.210 HD
ENDBRANCH   8   2
BRANCH   7   5
ATOM      5  N   UNL     1      14.575   7.521  19.962  0.00  0.00    -0.306 NA
ATOM     24  H   UNL     1      14.821   8.511  19.963  0.00  0.00    +0.123 HD
BRANCH   5  10
ATOM      3  O   UNL     1      18.603   6.343  20.062  0.00  0.00    -0.380 OA
ATOM     10  C   UNL     1      15.756   6.717  20.266  0.00  0.00    +0.058 C 
ATOM     12  C   UNL     1      16.751   7.503  21.126  0.00  0.00    +0.047 C 
ATOM     13  C   UNL     1      16.433   6.253  18.973  0.00  0.00    +0.047 C 
ATOM     15  C   UNL     1      18.033   6.700  21.322  0.00  0.00    +0.161 C 
ATOM     16  C   UNL     1      17.731   5.519  19.288  0.00  0.00    +0.161 C 
ENDBRANCH   5  10
ENDBRANCH   7   5
BRANCH   9  14
ATOM     14  C   UNL     1      10.448   9.039  22.045  0.00  0.00    +0.138 C 
BRANCH  14   6
ATOM      4  O   UNL     1      11.120  11.801  21.645  0.00  0.00    -0.270 OA
ATOM      6  N   UNL     1      10.715  10.012  23.065  0.00  0.00    -0.309 N 
ATOM     17  C   UNL     1      11.034  11.336  22.778  0.00  0.00    +0.244 C 
ATOM     26  H   UNL     1      10.729   9.675  24.022  0.00  0.00    +0.149 HD
BRANCH  17  18
ATOM     18  C   UNL     1      11.307  12.213  23.947  0.00  0.00    +0.037 A 
ATOM     19  C   UNL     1      12.543  12.150  24.591  0.00  0.00    +0.013 A 
ATOM     20  C   UNL     1      10.330  13.099  24.397  0.00  0.00    +0.013 A 
ATOM     21  C   UNL     1      12.800  12.975  25.686  0.00  0.00    +0.001 A 
ATOM     22  C   UNL     1      10.586  13.923  25.492  0.00  0.00    +0.001 A 
ATOM     23  C   UNL     1      11.822  13.861  26.137  0.00  0.00    +0.000 A 
ENDBRANCH  17  18
ENDBRANCH  14   6
ENDBRANCH   9  14
TORSDOF 6
ENDMDL
MODEL 6
REMARK VINA RESULT:      -6.2     26.654     28.287
REMARK  Name = 75536614
REMARK  6 active torsions:
REMARK  status: ('A' for Active; 'I' for Inactive)
REMARK    1  A    between atoms: O_2  and  C_8
REMARK    2  A    between atoms: N_5  and  C_7
REMARK    3  A    between atoms: N_5  and  C_10
REMARK    4  A    between atoms: N_6  and  C_14
REMARK    5  A    between atoms: C_9  and  C_14
REMARK    6  A    between atoms: C_17  and  C_18
REMARK                            x       y       z     vdW  Elec       q    Type
REMARK                         _______ _______ _______ _____ _____    ______ ____
ROOT
ATOM      1  O   UNL     1      -5.916 -11.273  18.384  0.00  0.00    -0.371 OA
ATOM      7  C   UNL     1      -7.742  -9.995  17.561  0.00  0.00    +0.111 C 
ATOM      8  C   UNL     1      -6.511  -9.694  16.726  0.00  0.00    +0.164 C 
ATOM      9  C   UNL     1      -5.653 -10.920  17.016  0.00  0.00    +0.165 C 
ATOM     11  C   UNL     1      -7.118 -10.605  18.806  0.00  0.00    +0.181 C 
ENDROOT
BRANCH   8   2
ATOM      2  O   UNL     1      -6.805  -9.570  15.348  0.00  0.00    -0.388 OA
ATOM     25  H   UNL     1      -6.146 -10.080  14.847  0.00  0.00    +0.210 HD
ENDBRANCH   8   2
BRANCH   7   5
ATOM      5  N   UNL     1      -8.551  -8.822  17.851  0.00  0.00    -0.306 NA
ATOM     24  H   UNL     1      -8.027  -7.974  17.637  0.00  0.00    +0.123 HD
BRANCH   5  10
ATOM      3  O   UNL     1     -12.537  -8.003  16.822  0.00  0.00    -0.380 OA
ATOM     10  C   UNL     1      -9.796  -8.841  17.087  0.00  0.00    +0.058 C 
ATOM     12  C   UNL     1     -10.184  -7.430  16.631  0.00  0.00    +0.047 C 
ATOM     13  C   UNL     1     -10.925  -9.450  17.923  0.00  0.00    +0.047 C 
ATOM     15  C   UNL     1     -11.549  -7.449  15.953  0.00  0.00    +0.161 C 
ATOM     16  C   UNL     1     -12.249  -9.357  17.174  0.00  0.00    +0.161 C 
ENDBRANCH   5  10
ENDBRANCH   7   5
BRANCH   9  14
ATOM     14  C   UNL     1      -4.168 -10.670  16.826  0.00  0.00    +0.138 C 
BRANCH  14   6
ATOM      4  O   UNL     1      -3.666 -12.404  14.593  0.00  0.00    -0.270 OA
ATOM      6  N   UNL     1      -3.875 -10.271  15.479  0.00  0.00    -0.309 N 
ATOM     17  C   UNL     1      -3.644 -11.185  14.455  0.00  0.00    +0.244 C 
ATOM     26  H   UNL     1      -3.773  -9.276  15.313  0.00  0.00    +0.149 HD
BRANCH  17  18
ATOM     18  C   UNL     1      -3.328 -10.610  13.122  0.00  0.00    +0.037 A 
ATOM     19  C   UNL     1      -4.359 -10.273  12.245  0.00  0.00    +0.013 A 
ATOM     20  C   UNL     1      -2.000 -10.405  12.748  0.00  0.00    +0.013 A 
ATOM     21  C   UNL     1      -4.062  -9.732  10.995  0.00  0.00    +0.001 A 
ATOM     22  C   UNL     1      -1.702  -9.864  11.498  0.00  0.00    +0.001 A 
ATOM     23  C   UNL     1      -2.733  -9.527  10.621  0.00  0.00    +0.000 A 
ENDBRANCH  17  18
ENDBRANCH  14   6
ENDBRANCH   9  14
TORSDOF 6
ENDMDL
MODEL 7
REMARK VINA RESULT:      -6.1     26.180     28.506
REMARK  Name = 75536614
REMARK  6 active torsions:
REMARK  status: ('A' for Active; 'I' for Inactive)
REMARK    1  A    between atoms: O_2  and  C_8
REMARK    2  A    between atoms: N_5  and  C_7
REMARK    3  A    between atoms: N_5  and  C_10
REMARK    4  A    between atoms: N_6  and  C_14
REMARK    5  A    between atoms: C_9  and  C_14
REMARK    6  A    between atoms: C_17  and  C_18
REMARK                            x       y       z     vdW  Elec       q    Type
REMARK                         _______ _______ _______ _____ _____    ______ ____
ROOT
ATOM      1  O   UNL     1      -8.614 -11.160  18.805  0.00  0.00    -0.371 OA
ATOM      7  C   UNL     1      -9.335  -9.308  17.502  0.00  0.00    +0.111 C 
ATOM      8  C   UNL     1      -7.818  -9.344  17.515  0.00  0.00    +0.164 C 
ATOM      9  C   UNL     1      -7.561 -10.796  17.897  0.00  0.00    +0.165 C 
ATOM     11  C   UNL     1      -9.667 -10.184  18.699  0.00  0.00    +0.181 C 
ENDROOT
BRANCH   8   2
ATOM      2  O   UNL     1      -7.254  -9.021  16.259  0.00  0.00    -0.388 OA
ATOM     25  H   UNL     1      -7.675  -8.207  15.934  0.00  0.00    +0.210 HD
ENDBRANCH   8   2
BRANCH   7   5
ATOM      5  N   UNL     1      -9.889  -7.969  17.610  0.00  0.00    -0.306 NA
ATOM     24  H   UNL     1      -9.139  -7.277  17.586  0.00  0.00    +0.123 HD
BRANCH   5  10
ATOM      3  O   UNL     1     -13.327  -6.537  15.672  0.00  0.00    -0.380 OA
ATOM     10  C   UNL     1     -10.839  -7.704  16.533  0.00  0.00    +0.058 C 
ATOM     12  C   UNL     1     -11.004  -6.198  16.300  0.00  0.00    +0.047 C 
ATOM     13  C   UNL     1     -12.197  -8.336  16.853  0.00  0.00    +0.047 C 
ATOM     15  C   UNL     1     -12.095  -5.938  15.268  0.00  0.00    +0.161 C 
ATOM     16  C   UNL     1     -13.223  -7.957  15.791  0.00  0.00    +0.161 C 
ENDBRANCH   5  10
ENDBRANCH   7   5
BRANCH   9  14
ATOM     14  C   UNL     1      -6.213 -11.012  18.561  0.00  0.00    +0.138 C 
BRANCH  14   6
ATOM      4  O   UNL     1      -5.254 -12.594  16.365  0.00  0.00    -0.270 OA
ATOM      6  N   UNL     1      -5.136 -10.681  17.672  0.00  0.00    -0.309 N 
ATOM     17  C   UNL     1      -4.737 -11.512  16.630  0.00  0.00    +0.244 C 
ATOM     26  H   UNL     1      -4.621  -9.833  17.880  0.00  0.00    +0.149 HD
BRANCH  17  18
ATOM     18  C   UNL     1      -3.588 -11.038  15.816  0.00  0.00    +0.037 A 
ATOM     19  C   UNL     1      -2.377 -10.725  16.435  0.00  0.00    +0.013 A 
ATOM     20  C   UNL     1      -3.718 -10.908  14.434  0.00  0.00    +0.013 A 
ATOM     21  C   UNL     1      -1.298 -10.282  15.671  0.00  0.00    +0.001 A 
ATOM     22  C   UNL     1      -2.639 -10.464  13.670  0.00  0.00    +0.001 A 
ATOM     23  C   UNL     1      -1.429 -10.151  14.289  0.00  0.00    +0.000 A 
ENDBRANCH  17  18
ENDBRANCH  14   6
ENDBRANCH   9  14
TORSDOF 6
ENDMDL
MODEL 8
REMARK VINA RESULT:      -6.1     26.838     29.999
REMARK  Name = 75536614
REMARK  6 active torsions:
REMARK  status: ('A' for Active; 'I' for Inactive)
REMARK    1  A    between atoms: O_2  and  C_8
REMARK    2  A    between atoms: N_5  and  C_7
REMARK    3  A    between atoms: N_5  and  C_10
REMARK    4  A    between atoms: N_6  and  C_14
REMARK    5  A    between atoms: C_9  and  C_14
REMARK    6  A    between atoms: C_17  and  C_18
REMARK                            x       y       z     vdW  Elec       q    Type
REMARK                         _______ _______ _______ _____ _____    ______ ____
ROOT
ATOM      1  O   UNL     1     -17.782   5.779  25.099  0.00  0.00    -0.371 OA
ATOM      7  C   UNL     1     -16.729   4.022  26.302  0.00  0.00    +0.111 C 
ATOM      8  C   UNL     1     -16.284   3.965  24.852  0.00  0.00    +0.164 C 
ATOM      9  C   UNL     1     -16.593   5.385  24.395  0.00  0.00    +0.165 C 
ATOM     11  C   UNL     1     -17.985   4.872  26.198  0.00  0.00    +0.181 C 
ENDROOT
BRANCH   8   2
ATOM      2  O   UNL     1     -14.911   3.654  24.716  0.00  0.00    -0.388 OA
ATOM     25  H   UNL     1     -14.635   3.876  23.811  0.00  0.00    +0.210 HD
ENDBRANCH   8   2
BRANCH   7   5
ATOM      5  N   UNL     1     -16.979   2.715  26.887  0.00  0.00    -0.306 NA
ATOM     24  H   UNL     1     -16.979   2.000  26.159  0.00  0.00    +0.123 HD
BRANCH   5  10
ATOM      3  O   UNL     1     -15.267   2.138  30.677  0.00  0.00    -0.380 OA
ATOM     10  C   UNL     1     -15.975   2.391  27.898  0.00  0.00    +0.058 C 
ATOM     12  C   UNL     1     -16.419   1.200  28.754  0.00  0.00    +0.047 C 
ATOM     13  C   UNL     1     -15.706   3.606  28.790  0.00  0.00    +0.047 C 
ATOM     15  C   UNL     1     -15.425   0.960  29.885  0.00  0.00    +0.161 C 
ATOM     16  C   UNL     1     -14.751   3.233  29.919  0.00  0.00    +0.161 C 
ENDBRANCH   5  10
ENDBRANCH   7   5
BRANCH   9  14
ATOM     14  C   UNL     1     -16.821   5.497  22.898  0.00  0.00    +0.138 C 
BRANCH  14   6
ATOM      4  O   UNL     1     -14.333   4.512  21.859  0.00  0.00    -0.270 OA
ATOM      6  N   UNL     1     -15.789   6.270  22.270  0.00  0.00    -0.309 N 
ATOM     17  C   UNL     1     -14.609   5.706  21.793  0.00  0.00    +0.244 C 
ATOM     26  H   UNL     1     -15.924   7.275  22.248  0.00  0.00    +0.149 HD
BRANCH  17  18
ATOM     18  C   UNL     1     -13.629   6.647  21.192  0.00  0.00    +0.037 A 
ATOM     19  C   UNL     1     -12.272   6.323  21.172  0.00  0.00    +0.013 A 
ATOM     20  C   UNL     1     -14.065   7.854  20.646  0.00  0.00    +0.013 A 
ATOM     21  C   UNL     1     -11.353   7.205  20.606  0.00  0.00    +0.001 A 
ATOM     22  C   UNL     1     -13.145   8.737  20.081  0.00  0.00    +0.001 A 
ATOM     23  C   UNL     1     -11.789   8.412  20.061  0.00  0.00    +0.000 A 
ENDBRANCH  17  18
ENDBRANCH  14   6
ENDBRANCH   9  14
TORSDOF 6
ENDMDL
MODEL 9
REMARK VINA RESULT:      -6.1     27.499     29.577
REMARK  Name = 75536614
REMARK  6 active torsions:
REMARK  status: ('A' for Active; 'I' for Inactive)
REMARK    1  A    between atoms: O_2  and  C_8
REMARK    2  A    between atoms: N_5  and  C_7
REMARK    3  A    between atoms: N_5  and  C_10
REMARK    4  A    between atoms: N_6  and  C_14
REMARK    5  A    between atoms: C_9  and  C_14
REMARK    6  A    between atoms: C_17  and  C_18
REMARK                            x       y       z     vdW  Elec       q    Type
REMARK                         _______ _______ _______ _____ _____    ______ ____
ROOT
ATOM      1  O   UNL     1     -10.034  -8.783  15.159  0.00  0.00    -0.371 OA
ATOM      7  C   UNL     1     -11.644  -7.081  14.764  0.00  0.00    +0.111 C 
ATOM      8  C   UNL     1     -11.229  -7.042  16.224  0.00  0.00    +0.164 C 
ATOM      9  C   UNL     1      -9.892  -7.770  16.168  0.00  0.00    +0.165 C 
ATOM     11  C   UNL     1     -11.191  -8.475  14.361  0.00  0.00    +0.181 C 
ENDROOT
BRANCH   8   2
ATOM      2  O   UNL     1     -11.091  -5.723  16.715  0.00  0.00    -0.388 OA
ATOM     25  H   UNL     1     -10.685  -5.178  16.020  0.00  0.00    +0.210 HD
ENDBRANCH   8   2
BRANCH   7   5
ATOM      5  N   UNL     1     -13.066  -6.866  14.556  0.00  0.00    -0.306 NA
ATOM     24  H   UNL     1     -13.502  -6.542  15.420  0.00  0.00    +0.123 HD
BRANCH   5  10
ATOM      3  O   UNL     1     -13.791  -3.171  12.700  0.00  0.00    -0.380 OA
ATOM     10  C   UNL     1     -13.301  -5.896  13.489  0.00  0.00    +0.058 C 
ATOM     12  C   UNL     1     -12.192  -4.840  13.452  0.00  0.00    +0.047 C 
ATOM     13  C   UNL     1     -14.663  -5.220  13.675  0.00  0.00    +0.047 C 
ATOM     15  C   UNL     1     -12.521  -3.762  12.424  0.00  0.00    +0.161 C 
ATOM     16  C   UNL     1     -14.855  -4.122  12.635  0.00  0.00    +0.161 C 
ENDBRANCH   5  10
ENDBRANCH   7   5
BRANCH   9  14
ATOM     14  C   UNL     1      -9.504  -8.412  17.488  0.00  0.00    +0.138 C 
BRANCH  14   6
ATOM      4  O   UNL     1      -8.553 -10.776  18.810  0.00  0.00    -0.270 OA
ATOM      6  N   UNL     1      -8.173  -8.946  17.437  0.00  0.00    -0.309 N 
ATOM     17  C   UNL     1      -7.800 -10.103  18.113  0.00  0.00    +0.244 C 
ATOM     26  H   UNL     1      -7.484  -8.398  16.934  0.00  0.00    +0.149 HD
BRANCH  17  18
ATOM     18  C   UNL     1      -6.376 -10.510  17.979  0.00  0.00    +0.037 A 
ATOM     19  C   UNL     1      -5.631 -10.088  16.878  0.00  0.00    +0.013 A 
ATOM     20  C   UNL     1      -5.785 -11.311  18.955  0.00  0.00    +0.013 A 
ATOM     21  C   UNL     1      -4.295 -10.468  16.754  0.00  0.00    +0.001 A 
ATOM     22  C   UNL     1      -4.450 -11.692  18.831  0.00  0.00    +0.001 A 
ATOM     23  C   UNL     1      -3.704 -11.270  17.730  0.00  0.00    +0.000 A 
ENDBRANCH  17  18
ENDBRANCH  14   6
ENDBRANCH   9  14
TORSDOF 6
ENDMDL
MODEL 10
REMARK VINA RESULT:      -6.1     26.352     28.364
REMARK  Name = 75536614
REMARK  6 active torsions:
REMARK  status: ('A' for Active; 'I' for Inactive)
REMARK    1  A    between atoms: O_2  and  C_8
REMARK    2  A    between atoms: N_5  and  C_7
REMARK    3  A    between atoms: N_5  and  C_10
REMARK    4  A    between atoms: N_6  and  C_14
REMARK    5  A    between atoms: C_9  and  C_14
REMARK    6  A    between atoms: C_17  and  C_18
REMARK                            x       y       z     vdW  Elec       q    Type
REMARK                         _______ _______ _______ _____ _____    ______ ____
ROOT
ATOM      1  O   UNL     1      -3.844 -10.426  14.011  0.00  0.00    -0.371 OA
ATOM      7  C   UNL     1      -3.301 -10.784  16.296  0.00  0.00    +0.111 C 
ATOM      8  C   UNL     1      -2.203 -11.371  15.428  0.00  0.00    +0.164 C 
ATOM      9  C   UNL     1      -2.424 -10.616  14.124  0.00  0.00    +0.165 C 
ATOM     11  C   UNL     1      -4.441 -10.666  15.298  0.00  0.00    +0.181 C 
ENDROOT
BRANCH   8   2
ATOM      2  O   UNL     1      -0.910 -11.144  15.956  0.00  0.00    -0.388 OA
ATOM     25  H   UNL     1      -0.809 -11.682  16.759  0.00  0.00    +0.210 HD
ENDBRANCH   8   2
BRANCH   7   5
ATOM      5  N   UNL     1      -3.638 -11.606  17.445  0.00  0.00    -0.306 NA
ATOM     24  H   UNL     1      -3.115 -11.295  18.264  0.00  0.00    +0.123 HD
BRANCH   5  10
ATOM      3  O   UNL     1      -7.257 -12.147  19.503  0.00  0.00    -0.380 OA
ATOM     10  C   UNL     1      -5.071 -11.557  17.725  0.00  0.00    +0.058 C 
ATOM     12  C   UNL     1      -5.359 -10.723  18.978  0.00  0.00    +0.047 C 
ATOM     13  C   UNL     1      -5.629 -12.972  17.899  0.00  0.00    +0.047 C 
ATOM     15  C   UNL     1      -6.841 -10.792  19.331  0.00  0.00    +0.161 C 
ATOM     16  C   UNL     1      -7.096 -12.917  18.312  0.00  0.00    +0.161 C 
ENDBRANCH   5  10
ENDBRANCH   7   5
BRANCH   9  14
ATOM     14  C   UNL     1      -1.907 -11.359  12.905  0.00  0.00    +0.138 C 
BRANCH  14   6
ATOM      4  O   UNL     1      -3.351 -13.087  11.125  0.00  0.00    -0.270 OA
ATOM      6  N   UNL     1      -2.613 -10.970  11.718  0.00  0.00    -0.309 N 
ATOM     17  C   UNL     1      -3.289 -11.880  10.911  0.00  0.00    +0.244 C 
ATOM     26  H   UNL     1      -2.542  -9.995  11.447  0.00  0.00    +0.149 HD
BRANCH  17  18
ATOM     18  C   UNL     1      -3.949 -11.321   9.703  0.00  0.00    +0.037 A 
ATOM     19  C   UNL     1      -4.191  -9.950   9.611  0.00  0.00    +0.013 A 
ATOM     20  C   UNL     1      -4.324 -12.166   8.659  0.00  0.00    +0.013 A 
ATOM     21  C   UNL     1      -4.809  -9.426   8.477  0.00  0.00    +0.001 A 
ATOM     22  C   UNL     1      -4.943 -11.642   7.525  0.00  0.00    +0.001 A 
ATOM     23  C   UNL     1      -5.185 -10.271   7.433  0.00  0.00    +0.000 A 
ENDBRANCH  17  18
ENDBRANCH  14   6
ENDBRANCH   9  14
TORSDOF 6
ENDMDL
