MODEL 1
REMARK VINA RESULT:      -8.7      0.000      0.000
REMARK  Name = 26762201
REMARK  5 active torsions:
REMARK  status: ('A' for Active; 'I' for Inactive)
REMARK    1  A    between atoms: N_7  and  C_12
REMARK    2  A    between atoms: N_9  and  C_27
REMARK    3  A    between atoms: C_11  and  C_16
REMARK    4  A    between atoms: C_16  and  C_18
REMARK    5  A    between atoms: C_18  and  C_19
REMARK                            x       y       z     vdW  Elec       q    Type
REMARK                         _______ _______ _______ _____ _____    ______ ____
ROOT
ATOM      2  O   UNL     1      12.754  10.469  18.595  0.00  0.00    -0.274 OA
ATOM      5  N   UNL     1      13.140   7.488  20.258  0.00  0.00    -0.285 NA
ATOM      6  N   UNL     1      14.371   8.847  18.280  0.00  0.00    -0.313 N 
ATOM     10  C   UNL     1      12.287   8.198  19.307  0.00  0.00    +0.145 C 
ATOM     11  C   UNL     1      14.236   6.749  19.625  0.00  0.00    +0.075 C 
ATOM     12  C   UNL     1      11.103   7.681  21.360  0.00  0.00    +0.090 C 
ATOM     13  C   UNL     1      11.112   8.647  20.167  0.00  0.00    +0.052 C 
ATOM     14  C   UNL     1      12.236   6.692  21.081  0.00  0.00    +0.107 C 
ATOM     15  C   UNL     1      14.696   7.433  18.318  0.00  0.00    +0.123 C 
ATOM     17  C   UNL     1      13.134   9.309  18.714  0.00  0.00    +0.230 C 
ATOM     33  H   UNL     1      15.013   9.496  17.836  0.00  0.00    +0.149 HD
ENDROOT
BRANCH  12   7
ATOM      4  O   UNL     1      10.999  10.516  21.767  0.00  0.00    -0.253 OA
ATOM      7  N   UNL     1      11.307   8.383  22.605  0.00  0.00    -0.295 N 
ATOM      9  N   UNL     1      11.478  10.170  24.039  0.00  0.00    -0.269 N 
ATOM     20  C   UNL     1      11.239   9.777  22.719  0.00  0.00    +0.304 C 
ATOM     34  H   UNL     1      11.420   7.839  23.455  0.00  0.00    +0.151 HD
ATOM     35  H   UNL     1      11.662   9.437  24.719  0.00  0.00    +0.156 HD
BRANCH   9  27
ATOM      1  S   UNL     1      12.315  13.639  25.696  0.00  0.00    -0.103 S 
ATOM     27  C   UNL     1      11.496  11.484  24.563  0.00  0.00    +0.042 A 
ATOM     30  C   UNL     1      10.396  12.389  24.533  0.00  0.00    +0.031 A 
ATOM     31  C   UNL     1      12.604  12.036  25.167  0.00  0.00    +0.068 A 
ATOM     32  C   UNL     1      10.705  13.597  25.117  0.00  0.00    +0.047 A 
ENDBRANCH   9  27
ENDBRANCH  12   7
BRANCH  11  16
ATOM     16  C   UNL     1      15.401   6.661  20.614  0.00  0.00    +0.029 C 
BRANCH  16  18
ATOM     18  C   UNL     1      16.652   7.358  20.102  0.00  0.00    +0.098 C 
BRANCH  18  19
ATOM      3  O   UNL     1      17.848   5.516  19.212  0.00  0.00    -0.275 OA
ATOM      8  N   UNL     1      18.801   6.645  21.019  0.00  0.00    -0.271 N 
ATOM     19  C   UNL     1      17.826   6.409  20.060  0.00  0.00    +0.220 C 
ATOM     21  C   UNL     1      18.772   7.718  22.036  0.00  0.00    +0.118 C 
ATOM     22  C   UNL     1      19.989   5.904  21.191  0.00  0.00    +0.039 A 
ATOM     23  C   UNL     1      20.052   7.604  22.872  0.00  0.00    +0.056 C 
ATOM     24  C   UNL     1      20.732   6.429  22.249  0.00  0.00    -0.024 A 
ATOM     25  C   UNL     1      20.453   4.807  20.479  0.00  0.00    +0.024 A 
ATOM     26  C   UNL     1      21.948   5.876  22.621  0.00  0.00    +0.005 A 
ATOM     28  C   UNL     1      21.678   4.242  20.848  0.00  0.00    +0.002 A 
ATOM     29  C   UNL     1      22.421   4.773  21.912  0.00  0.00    +0.000 A 
ENDBRANCH  18  19
ENDBRANCH  16  18
ENDBRANCH  11  16
TORSDOF 5
ENDMDL
MODEL 2
REMARK VINA RESULT:      -8.3     15.852     19.454
REMARK  Name = 26762201
REMARK  5 active torsions:
REMARK  status: ('A' for Active; 'I' for Inactive)
REMARK    1  A    between atoms: N_7  and  C_12
REMARK    2  A    between atoms: N_9  and  C_27
REMARK    3  A    between atoms: C_11  and  C_16
REMARK    4  A    between atoms: C_16  and  C_18
REMARK    5  A    between atoms: C_18  and  C_19
REMARK                            x       y       z     vdW  Elec       q    Type
REMARK                         _______ _______ _______ _____ _____    ______ ____
ROOT
ATOM      2  O   UNL     1      10.279  10.619   5.100  0.00  0.00    -0.274 OA
ATOM      5  N   UNL     1      11.212   7.771   6.780  0.00  0.00    -0.285 NA
ATOM      6  N   UNL     1       9.178   9.543   6.824  0.00  0.00    -0.313 N 
ATOM     10  C   UNL     1      11.551   9.179   6.581  0.00  0.00    +0.145 C 
ATOM     11  C   UNL     1      10.254   7.546   7.866  0.00  0.00    +0.075 C 
ATOM     12  C   UNL     1      13.315   7.713   5.794  0.00  0.00    +0.090 C 
ATOM     13  C   UNL     1      12.723   9.117   5.610  0.00  0.00    +0.052 C 
ATOM     14  C   UNL     1      12.487   7.073   6.909  0.00  0.00    +0.107 C 
ATOM     15  C   UNL     1       9.298   8.749   8.034  0.00  0.00    +0.123 C 
ATOM     17  C   UNL     1      10.296   9.855   6.060  0.00  0.00    +0.230 C 
ATOM     33  H   UNL     1       8.285   9.963   6.589  0.00  0.00    +0.149 HD
ENDROOT
BRANCH  12   7
ATOM      4  O   UNL     1      15.453   7.209   3.952  0.00  0.00    -0.253 OA
ATOM      7  N   UNL     1      13.240   6.948   4.571  0.00  0.00    -0.295 N 
ATOM      9  N   UNL     1      13.966   5.972   2.622  0.00  0.00    -0.269 N 
ATOM     20  C   UNL     1      14.337   6.749   3.724  0.00  0.00    +0.304 C 
ATOM     34  H   UNL     1      12.377   6.459   4.358  0.00  0.00    +0.151 HD
ATOM     35  H   UNL     1      12.999   5.663   2.572  0.00  0.00    +0.156 HD
BRANCH   9  27
ATOM      1  S   UNL     1      16.271   5.612  -0.546  0.00  0.00    -0.103 S 
ATOM     27  C   UNL     1      14.779   5.550   1.544  0.00  0.00    +0.042 A 
ATOM     30  C   UNL     1      15.122   4.196   1.264  0.00  0.00    +0.031 A 
ATOM     31  C   UNL     1      15.339   6.424   0.639  0.00  0.00    +0.068 A 
ATOM     32  C   UNL     1      15.929   4.086   0.153  0.00  0.00    +0.047 A 
ENDBRANCH   9  27
ENDBRANCH  12   7
BRANCH  11  16
ATOM     16  C   UNL     1       9.456   6.276   7.558  0.00  0.00    +0.029 C 
BRANCH  16  18
ATOM     18  C   UNL     1       8.796   6.322   6.189  0.00  0.00    +0.098 C 
BRANCH  18  19
ATOM      3  O   UNL     1       9.899   4.317   5.575  0.00  0.00    -0.275 OA
ATOM      8  N   UNL     1       9.676   5.967   3.939  0.00  0.00    -0.271 N 
ATOM     19  C   UNL     1       9.514   5.427   5.208  0.00  0.00    +0.220 C 
ATOM     21  C   UNL     1       9.213   7.301   3.500  0.00  0.00    +0.118 C 
ATOM     22  C   UNL     1      10.311   5.337   2.847  0.00  0.00    +0.039 A 
ATOM     23  C   UNL     1       9.601   7.469   2.027  0.00  0.00    +0.056 C 
ATOM     24  C   UNL     1      10.285   6.175   1.731  0.00  0.00    -0.024 A 
ATOM     25  C   UNL     1      10.903   4.084   2.776  0.00  0.00    +0.024 A 
ATOM     26  C   UNL     1      10.847   5.785   0.525  0.00  0.00    +0.005 A 
ATOM     28  C   UNL     1      11.472   3.684   1.563  0.00  0.00    +0.002 A 
ATOM     29  C   UNL     1      11.445   4.528   0.444  0.00  0.00    +0.000 A 
ENDBRANCH  18  19
ENDBRANCH  16  18
ENDBRANCH  11  16
TORSDOF 5
ENDMDL
MODEL 3
REMARK VINA RESULT:      -8.1     27.942     29.571
REMARK  Name = 26762201
REMARK  5 active torsions:
REMARK  status: ('A' for Active; 'I' for Inactive)
REMARK    1  A    between atoms: N_7  and  C_12
REMARK    2  A    between atoms: N_9  and  C_27
REMARK    3  A    between atoms: C_11  and  C_16
REMARK    4  A    between atoms: C_16  and  C_18
REMARK    5  A    between atoms: C_18  and  C_19
REMARK                            x       y       z     vdW  Elec       q    Type
REMARK                         _______ _______ _______ _____ _____    ______ ____
ROOT
ATOM      2  O   UNL     1      -7.860 -14.004  17.087  0.00  0.00    -0.274 OA
ATOM      5  N   UNL     1      -5.906 -11.317  17.961  0.00  0.00    -0.285 NA
ATOM      6  N   UNL     1      -5.567 -13.926  17.368  0.00  0.00    -0.313 N 
ATOM     10  C   UNL     1      -6.910 -12.251  18.468  0.00  0.00    +0.145 C 
ATOM     11  C   UNL     1      -4.528 -11.788  18.128  0.00  0.00    +0.075 C 
ATOM     12  C   UNL     1      -7.736  -9.970  18.450  0.00  0.00    +0.090 C 
ATOM     13  C   UNL     1      -8.196 -11.435  18.419  0.00  0.00    +0.052 C 
ATOM     14  C   UNL     1      -6.214 -10.032  18.581  0.00  0.00    +0.107 C 
ATOM     15  C   UNL     1      -4.450 -13.330  18.078  0.00  0.00    +0.123 C 
ATOM     17  C   UNL     1      -6.864 -13.467  17.561  0.00  0.00    +0.230 C 
ATOM     33  H   UNL     1      -5.415 -14.756  16.804  0.00  0.00    +0.149 HD
ENDROOT
BRANCH  12   7
ATOM      4  O   UNL     1     -10.279  -8.747  17.950  0.00  0.00    -0.253 OA
ATOM      7  N   UNL     1      -8.137  -9.269  17.253  0.00  0.00    -0.295 N 
ATOM      9  N   UNL     1      -9.506  -8.089  15.834  0.00  0.00    -0.269 N 
ATOM     20  C   UNL     1      -9.405  -8.698  17.088  0.00  0.00    +0.304 C 
ATOM     34  H   UNL     1      -7.443  -9.106  16.531  0.00  0.00    +0.151 HD
ATOM     35  H   UNL     1      -8.691  -8.131  15.227  0.00  0.00    +0.156 HD
BRANCH   9  27
ATOM      1  S   UNL     1     -12.726  -6.901  13.911  0.00  0.00    -0.103 S 
ATOM     27  C   UNL     1     -10.617  -7.404  15.288  0.00  0.00    +0.042 A 
ATOM     30  C   UNL     1     -10.979  -6.062  15.598  0.00  0.00    +0.031 A 
ATOM     31  C   UNL     1     -11.483  -7.979  14.385  0.00  0.00    +0.068 A 
ATOM     32  C   UNL     1     -12.107  -5.661  14.917  0.00  0.00    +0.047 A 
ENDBRANCH   9  27
ENDBRANCH  12   7
BRANCH  11  16
ATOM     16  C   UNL     1      -3.666 -11.178  17.020  0.00  0.00    +0.029 C 
BRANCH  16  18
ATOM     18  C   UNL     1      -3.740 -11.970  15.724  0.00  0.00    +0.098 C 
BRANCH  18  19
ATOM      3  O   UNL     1      -5.621 -10.857  14.807  0.00  0.00    -0.275 OA
ATOM      8  N   UNL     1      -3.667 -10.894  13.532  0.00  0.00    -0.271 N 
ATOM     19  C   UNL     1      -4.445 -11.183  14.645  0.00  0.00    +0.220 C 
ATOM     21  C   UNL     1      -2.254 -11.287  13.338  0.00  0.00    +0.118 C 
ATOM     22  C   UNL     1      -4.087 -10.177  12.392  0.00  0.00    +0.039 A 
ATOM     23  C   UNL     1      -1.803 -10.752  11.975  0.00  0.00    +0.056 C 
ATOM     24  C   UNL     1      -3.038 -10.077  11.476  0.00  0.00    -0.024 A 
ATOM     25  C   UNL     1      -5.323  -9.612  12.114  0.00  0.00    +0.024 A 
ATOM     26  C   UNL     1      -3.197  -9.415  10.268  0.00  0.00    +0.005 A 
ATOM     28  C   UNL     1      -5.492  -8.943  10.897  0.00  0.00    +0.002 A 
ATOM     29  C   UNL     1      -4.436  -8.844   9.980  0.00  0.00    +0.000 A 
ENDBRANCH  18  19
ENDBRANCH  16  18
ENDBRANCH  11  16
TORSDOF 5
ENDMDL
MODEL 4
REMARK VINA RESULT:      -8.1      2.197      2.724
REMARK  Name = 26762201
REMARK  5 active torsions:
REMARK  status: ('A' for Active; 'I' for Inactive)
REMARK    1  A    between atoms: N_7  and  C_12
REMARK    2  A    between atoms: N_9  and  C_27
REMARK    3  A    between atoms: C_11  and  C_16
REMARK    4  A    between atoms: C_16  and  C_18
REMARK    5  A    between atoms: C_18  and  C_19
REMARK                            x       y       z     vdW  Elec       q    Type
REMARK                         _______ _______ _______ _____ _____    ______ ____
ROOT
ATOM      2  O   UNL     1      13.234  11.310  18.348  0.00  0.00    -0.274 OA
ATOM      5  N   UNL     1      13.068   8.643  20.507  0.00  0.00    -0.285 NA
ATOM      6  N   UNL     1      13.244   9.053  17.847  0.00  0.00    -0.313 N 
ATOM     10  C   UNL     1      12.295   9.752  19.952  0.00  0.00    +0.145 C 
ATOM     11  C   UNL     1      12.987   7.414  19.712  0.00  0.00    +0.075 C 
ATOM     12  C   UNL     1      12.602   9.985  22.346  0.00  0.00    +0.090 C 
ATOM     13  C   UNL     1      12.329  10.789  21.068  0.00  0.00    +0.052 C 
ATOM     14  C   UNL     1      12.643   8.523  21.898  0.00  0.00    +0.107 C 
ATOM     15  C   UNL     1      12.783   7.726  18.213  0.00  0.00    +0.123 C 
ATOM     17  C   UNL     1      12.981  10.150  18.658  0.00  0.00    +0.230 C 
ATOM     33  H   UNL     1      13.673   9.201  16.939  0.00  0.00    +0.149 HD
ENDROOT
BRANCH  12   7
ATOM      4  O   UNL     1      12.943  11.970  24.385  0.00  0.00    -0.253 OA
ATOM      7  N   UNL     1      13.845  10.386  22.963  0.00  0.00    -0.295 N 
ATOM      9  N   UNL     1      15.251  11.545  24.363  0.00  0.00    -0.269 N 
ATOM     20  C   UNL     1      13.925  11.369  23.957  0.00  0.00    +0.304 C 
ATOM     34  H   UNL     1      14.689   9.873  22.729  0.00  0.00    +0.151 HD
ATOM     35  H   UNL     1      15.958  10.969  23.913  0.00  0.00    +0.156 HD
BRANCH   9  27
ATOM      1  S   UNL     1      16.481  14.607  26.505  0.00  0.00    -0.103 S 
ATOM     27  C   UNL     1      15.748  12.437  25.340  0.00  0.00    +0.042 A 
ATOM     30  C   UNL     1      16.201  12.057  26.637  0.00  0.00    +0.031 A 
ATOM     31  C   UNL     1      15.845  13.796  25.137  0.00  0.00    +0.068 A 
ATOM     32  C   UNL     1      16.628  13.138  27.374  0.00  0.00    +0.047 A 
ENDBRANCH   9  27
ENDBRANCH  12   7
BRANCH  11  16
ATOM     16  C   UNL     1      14.277   6.615  19.916  0.00  0.00    +0.029 C 
BRANCH  16  18
ATOM     18  C   UNL     1      15.492   7.311  19.321  0.00  0.00    +0.098 C 
BRANCH  18  19
ATOM      3  O   UNL     1      16.790   5.432  18.689  0.00  0.00    -0.275 OA
ATOM      8  N   UNL     1      17.677   6.855  20.312  0.00  0.00    -0.271 N 
ATOM     19  C   UNL     1      16.717   6.432  19.403  0.00  0.00    +0.220 C 
ATOM     21  C   UNL     1      17.587   8.056  21.169  0.00  0.00    +0.118 C 
ATOM     22  C   UNL     1      18.905   6.213  20.577  0.00  0.00    +0.039 A 
ATOM     23  C   UNL     1      18.870   8.132  22.004  0.00  0.00    +0.056 C 
ATOM     24  C   UNL     1      19.616   6.922  21.547  0.00  0.00    -0.024 A 
ATOM     25  C   UNL     1      19.430   5.054  20.022  0.00  0.00    +0.024 A 
ATOM     26  C   UNL     1      20.861   6.495  21.984  0.00  0.00    +0.005 A 
ATOM     28  C   UNL     1      20.685   4.617  20.459  0.00  0.00    +0.002 A 
ATOM     29  C   UNL     1      21.396   5.331  21.432  0.00  0.00    +0.000 A 
ENDBRANCH  18  19
ENDBRANCH  16  18
ENDBRANCH  11  16
TORSDOF 5
ENDMDL
MODEL 5
REMARK VINA RESULT:      -8.1      2.998      4.057
REMARK  Name = 26762201
REMARK  5 active torsions:
REMARK  status: ('A' for Active; 'I' for Inactive)
REMARK    1  A    between atoms: N_7  and  C_12
REMARK    2  A    between atoms: N_9  and  C_27
REMARK    3  A    between atoms: C_11  and  C_16
REMARK    4  A    between atoms: C_16  and  C_18
REMARK    5  A    between atoms: C_18  and  C_19
REMARK                            x       y       z     vdW  Elec       q    Type
REMARK                         _______ _______ _______ _____ _____    ______ ____
ROOT
ATOM      2  O   UNL     1      12.908  10.627  18.843  0.00  0.00    -0.274 OA
ATOM      5  N   UNL     1      12.993   7.599  20.462  0.00  0.00    -0.285 NA
ATOM      6  N   UNL     1      14.367   8.865  18.517  0.00  0.00    -0.313 N 
ATOM     10  C   UNL     1      12.220   8.401  19.515  0.00  0.00    +0.145 C 
ATOM     11  C   UNL     1      14.021   6.769  19.827  0.00  0.00    +0.075 C 
ATOM     12  C   UNL     1      10.972   7.968  21.549  0.00  0.00    +0.090 C 
ATOM     13  C   UNL     1      11.084   8.946  20.371  0.00  0.00    +0.052 C 
ATOM     14  C   UNL     1      12.009   6.880  21.264  0.00  0.00    +0.107 C 
ATOM     15  C   UNL     1      14.556   7.425  18.535  0.00  0.00    +0.123 C 
ATOM     17  C   UNL     1      13.175   9.435  18.947  0.00  0.00    +0.230 C 
ATOM     33  H   UNL     1      15.072   9.456  18.088  0.00  0.00    +0.149 HD
ENDROOT
BRANCH  12   7
ATOM      4  O   UNL     1      11.055  10.795  22.015  0.00  0.00    -0.253 OA
ATOM      7  N   UNL     1      11.229   8.629  22.807  0.00  0.00    -0.295 N 
ATOM      9  N   UNL     1      11.524  10.372  24.275  0.00  0.00    -0.269 N 
ATOM     20  C   UNL     1      11.252  10.022  22.949  0.00  0.00    +0.304 C 
ATOM     34  H   UNL     1      11.311   8.062  23.644  0.00  0.00    +0.151 HD
ATOM     35  H   UNL     1      11.664   9.614  24.939  0.00  0.00    +0.156 HD
BRANCH   9  27
ATOM      1  S   UNL     1      12.628  13.793  25.874  0.00  0.00    -0.103 S 
ATOM     27  C   UNL     1      11.631  11.670  24.826  0.00  0.00    +0.042 A 
ATOM     30  C   UNL     1      10.543  12.575  24.995  0.00  0.00    +0.031 A 
ATOM     31  C   UNL     1      12.823  12.205  25.262  0.00  0.00    +0.068 A 
ATOM     32  C   UNL     1      10.946  13.767  25.556  0.00  0.00    +0.047 A 
ENDBRANCH   9  27
ENDBRANCH  12   7
BRANCH  11  16
ATOM     16  C   UNL     1      15.162   6.556  20.825  0.00  0.00    +0.029 C 
BRANCH  16  18
ATOM     18  C   UNL     1      15.283   7.700  21.821  0.00  0.00    +0.098 C 
BRANCH  18  19
ATOM      3  O   UNL     1      17.406   8.280  20.941  0.00  0.00    -0.275 OA
ATOM      8  N   UNL     1      15.973  10.025  21.529  0.00  0.00    -0.271 N 
ATOM     19  C   UNL     1      16.334   8.693  21.383  0.00  0.00    +0.220 C 
ATOM     21  C   UNL     1      14.685  10.519  22.061  0.00  0.00    +0.118 C 
ATOM     22  C   UNL     1      16.772  11.140  21.197  0.00  0.00    +0.039 A 
ATOM     23  C   UNL     1      14.724  12.051  22.033  0.00  0.00    +0.056 C 
ATOM     24  C   UNL     1      16.083  12.322  21.475  0.00  0.00    -0.024 A 
ATOM     25  C   UNL     1      18.054  11.178  20.668  0.00  0.00    +0.024 A 
ATOM     26  C   UNL     1      16.654  13.562  21.235  0.00  0.00    +0.005 A 
ATOM     28  C   UNL     1      18.638  12.425  20.424  0.00  0.00    +0.002 A 
ATOM     29  C   UNL     1      17.943  13.610  20.704  0.00  0.00    +0.000 A 
ENDBRANCH  18  19
ENDBRANCH  16  18
ENDBRANCH  11  16
TORSDOF 5
ENDMDL
MODEL 6
REMARK VINA RESULT:      -8.1     27.522     29.670
REMARK  Name = 26762201
REMARK  5 active torsions:
REMARK  status: ('A' for Active; 'I' for Inactive)
REMARK    1  A    between atoms: N_7  and  C_12
REMARK    2  A    between atoms: N_9  and  C_27
REMARK    3  A    between atoms: C_11  and  C_16
REMARK    4  A    between atoms: C_16  and  C_18
REMARK    5  A    between atoms: C_18  and  C_19
REMARK                            x       y       z     vdW  Elec       q    Type
REMARK                         _______ _______ _______ _____ _____    ______ ____
ROOT
ATOM      2  O   UNL     1      -7.776 -13.491  15.592  0.00  0.00    -0.274 OA
ATOM      5  N   UNL     1      -6.508 -12.063  18.447  0.00  0.00    -0.285 NA
ATOM      6  N   UNL     1      -5.663 -13.724  16.499  0.00  0.00    -0.313 N 
ATOM     10  C   UNL     1      -7.464 -13.054  17.957  0.00  0.00    +0.145 C 
ATOM     11  C   UNL     1      -5.164 -12.603  18.672  0.00  0.00    +0.075 C 
ATOM     12  C   UNL     1      -8.575 -11.237  19.117  0.00  0.00    +0.090 C 
ATOM     13  C   UNL     1      -8.799 -12.327  18.059  0.00  0.00    +0.052 C 
ATOM     14  C   UNL     1      -7.142 -11.445  19.608  0.00  0.00    +0.107 C 
ATOM     15  C   UNL     1      -4.857 -13.768  17.706  0.00  0.00    +0.123 C 
ATOM     17  C   UNL     1      -7.018 -13.425  16.554  0.00  0.00    +0.230 C 
ATOM     33  H   UNL     1      -5.256 -14.018  15.616  0.00  0.00    +0.149 HD
ENDROOT
BRANCH  12   7
ATOM      4  O   UNL     1     -10.816 -10.320  17.583  0.00  0.00    -0.253 OA
ATOM      7  N   UNL     1      -8.758  -9.918  18.558  0.00  0.00    -0.295 N 
ATOM      9  N   UNL     1      -9.787  -8.217  17.406  0.00  0.00    -0.269 N 
ATOM     20  C   UNL     1      -9.887  -9.550  17.816  0.00  0.00    +0.304 C 
ATOM     34  H   UNL     1      -8.079  -9.198  18.783  0.00  0.00    +0.151 HD
ATOM     35  H   UNL     1      -8.953  -7.705  17.680  0.00  0.00    +0.156 HD
BRANCH   9  27
ATOM      1  S   UNL     1     -11.691  -5.823  14.932  0.00  0.00    -0.103 S 
ATOM     27  C   UNL     1     -10.716  -7.472  16.644  0.00  0.00    +0.042 A 
ATOM     30  C   UNL     1     -12.133  -7.567  16.765  0.00  0.00    +0.031 A 
ATOM     31  C   UNL     1     -10.340  -6.561  15.681  0.00  0.00    +0.068 A 
ATOM     32  C   UNL     1     -12.785  -6.723  15.894  0.00  0.00    +0.047 A 
ENDBRANCH   9  27
ENDBRANCH  12   7
BRANCH  11  16
ATOM     16  C   UNL     1      -4.147 -11.475  18.482  0.00  0.00    +0.029 C 
BRANCH  16  18
ATOM     18  C   UNL     1      -4.558 -10.500  17.389  0.00  0.00    +0.098 C 
BRANCH  18  19
ATOM      3  O   UNL     1      -2.434 -10.781  16.375  0.00  0.00    -0.275 OA
ATOM      8  N   UNL     1      -4.268 -10.481  14.963  0.00  0.00    -0.271 N 
ATOM     19  C   UNL     1      -3.639 -10.603  16.195  0.00  0.00    +0.220 C 
ATOM     21  C   UNL     1      -5.715 -10.267  14.749  0.00  0.00    +0.118 C 
ATOM     22  C   UNL     1      -3.637 -10.539  13.703  0.00  0.00    +0.039 A 
ATOM     23  C   UNL     1      -5.959 -10.201  13.238  0.00  0.00    +0.056 C 
ATOM     24  C   UNL     1      -4.583 -10.381  12.687  0.00  0.00    -0.024 A 
ATOM     25  C   UNL     1      -2.296 -10.722  13.397  0.00  0.00    +0.024 A 
ATOM     26  C   UNL     1      -4.214 -10.401  11.351  0.00  0.00    +0.005 A 
ATOM     28  C   UNL     1      -1.917 -10.743  12.051  0.00  0.00    +0.002 A 
ATOM     29  C   UNL     1      -2.869 -10.584  11.034  0.00  0.00    +0.000 A 
ENDBRANCH  18  19
ENDBRANCH  16  18
ENDBRANCH  11  16
TORSDOF 5
ENDMDL
MODEL 7
REMARK VINA RESULT:      -8.1     27.608     29.724
REMARK  Name = 26762201
REMARK  5 active torsions:
REMARK  status: ('A' for Active; 'I' for Inactive)
REMARK    1  A    between atoms: N_7  and  C_12
REMARK    2  A    between atoms: N_9  and  C_27
REMARK    3  A    between atoms: C_11  and  C_16
REMARK    4  A    between atoms: C_16  and  C_18
REMARK    5  A    between atoms: C_18  and  C_19
REMARK                            x       y       z     vdW  Elec       q    Type
REMARK                         _______ _______ _______ _____ _____    ______ ____
ROOT
ATOM      2  O   UNL     1      -8.413 -13.937  16.480  0.00  0.00    -0.274 OA
ATOM      5  N   UNL     1      -6.979 -10.929  17.312  0.00  0.00    -0.285 NA
ATOM      6  N   UNL     1      -7.512 -13.288  18.507  0.00  0.00    -0.313 N 
ATOM     10  C   UNL     1      -8.250 -11.570  16.982  0.00  0.00    +0.145 C 
ATOM     11  C   UNL     1      -6.664 -10.952  18.744  0.00  0.00    +0.075 C 
ATOM     12  C   UNL     1      -7.624  -9.914  15.324  0.00  0.00    +0.090 C 
ATOM     13  C   UNL     1      -8.461 -11.186  15.522  0.00  0.00    +0.052 C 
ATOM     14  C   UNL     1      -7.034  -9.606  16.700  0.00  0.00    +0.107 C 
ATOM     15  C   UNL     1      -7.266 -12.197  19.433  0.00  0.00    +0.123 C 
ATOM     17  C   UNL     1      -8.069 -13.052  17.256  0.00  0.00    +0.230 C 
ATOM     33  H   UNL     1      -7.373 -14.245  18.814  0.00  0.00    +0.149 HD
ENDROOT
BRANCH  12   7
ATOM      4  O   UNL     1      -7.744  -9.209  12.548  0.00  0.00    -0.253 OA
ATOM      7  N   UNL     1      -6.590 -10.116  14.336  0.00  0.00    -0.295 N 
ATOM      9  N   UNL     1      -5.572 -10.059  12.277  0.00  0.00    -0.269 N 
ATOM     20  C   UNL     1      -6.730  -9.741  12.994  0.00  0.00    +0.304 C 
ATOM     34  H   UNL     1      -5.689 -10.466  14.643  0.00  0.00    +0.151 HD
ATOM     35  H   UNL     1      -4.811 -10.498  12.788  0.00  0.00    +0.156 HD
BRANCH   9  27
ATOM      1  S   UNL     1      -5.385 -10.088   8.347  0.00  0.00    -0.103 S 
ATOM     27  C   UNL     1      -5.315  -9.841  10.903  0.00  0.00    +0.042 A 
ATOM     30  C   UNL     1      -4.450  -8.834  10.385  0.00  0.00    +0.031 A 
ATOM     31  C   UNL     1      -5.890 -10.594   9.903  0.00  0.00    +0.068 A 
ATOM     32  C   UNL     1      -4.395  -8.858   9.009  0.00  0.00    +0.047 A 
ENDBRANCH   9  27
ENDBRANCH  12   7
BRANCH  11  16
ATOM     16  C   UNL     1      -5.142 -10.940  18.909  0.00  0.00    +0.029 C 
BRANCH  16  18
ATOM     18  C   UNL     1      -4.457 -11.999  18.058  0.00  0.00    +0.098 C 
BRANCH  18  19
ATOM      3  O   UNL     1      -3.182 -10.289  17.024  0.00  0.00    -0.275 OA
ATOM      8  N   UNL     1      -3.800 -12.115  15.708  0.00  0.00    -0.271 N 
ATOM     19  C   UNL     1      -3.746 -11.375  16.881  0.00  0.00    +0.220 C 
ATOM     21  C   UNL     1      -4.478 -13.418  15.539  0.00  0.00    +0.118 C 
ATOM     22  C   UNL     1      -3.220 -11.754  14.474  0.00  0.00    +0.039 A 
ATOM     23  C   UNL     1      -4.274 -13.866  14.088  0.00  0.00    +0.056 C 
ATOM     24  C   UNL     1      -3.474 -12.740  13.519  0.00  0.00    -0.024 A 
ATOM     25  C   UNL     1      -2.488 -10.622  14.143  0.00  0.00    +0.024 A 
ATOM     26  C   UNL     1      -3.008 -12.621  12.219  0.00  0.00    +0.005 A 
ATOM     28  C   UNL     1      -2.015 -10.495  12.834  0.00  0.00    +0.002 A 
ATOM     29  C   UNL     1      -2.272 -11.487  11.877  0.00  0.00    +0.000 A 
ENDBRANCH  18  19
ENDBRANCH  16  18
ENDBRANCH  11  16
TORSDOF 5
ENDMDL
MODEL 8
REMARK VINA RESULT:      -7.6     28.556     30.485
REMARK  Name = 26762201
REMARK  5 active torsions:
REMARK  status: ('A' for Active; 'I' for Inactive)
REMARK    1  A    between atoms: N_7  and  C_12
REMARK    2  A    between atoms: N_9  and  C_27
REMARK    3  A    between atoms: C_11  and  C_16
REMARK    4  A    between atoms: C_16  and  C_18
REMARK    5  A    between atoms: C_18  and  C_19
REMARK                            x       y       z     vdW  Elec       q    Type
REMARK                         _______ _______ _______ _____ _____    ______ ____
ROOT
ATOM      2  O   UNL     1     -11.784 -11.504  18.336  0.00  0.00    -0.274 OA
ATOM      5  N   UNL     1      -8.943 -10.126  16.985  0.00  0.00    -0.285 NA
ATOM      6  N   UNL     1      -9.734 -12.507  17.972  0.00  0.00    -0.313 N 
ATOM     10  C   UNL     1      -9.812 -10.104  18.160  0.00  0.00    +0.145 C 
ATOM     11  C   UNL     1      -7.868 -11.118  17.068  0.00  0.00    +0.075 C 
ATOM     12  C   UNL     1      -9.813  -7.971  17.004  0.00  0.00    +0.090 C 
ATOM     13  C   UNL     1     -10.651  -8.849  17.945  0.00  0.00    +0.052 C 
ATOM     14  C   UNL     1      -8.513  -8.745  16.786  0.00  0.00    +0.107 C 
ATOM     15  C   UNL     1      -8.293 -12.339  17.914  0.00  0.00    +0.123 C 
ATOM     17  C   UNL     1     -10.574 -11.416  18.156  0.00  0.00    +0.230 C 
ATOM     33  H   UNL     1     -10.128 -13.443  17.984  0.00  0.00    +0.149 HD
ENDROOT
BRANCH  12   7
ATOM      4  O   UNL     1     -11.529  -5.758  16.392  0.00  0.00    -0.253 OA
ATOM      7  N   UNL     1     -10.503  -7.731  15.758  0.00  0.00    -0.295 N 
ATOM      9  N   UNL     1     -11.858  -6.653  14.247  0.00  0.00    -0.269 N 
ATOM     20  C   UNL     1     -11.327  -6.620  15.540  0.00  0.00    +0.304 C 
ATOM     34  H   UNL     1     -10.316  -8.348  14.975  0.00  0.00    +0.151 HD
ATOM     35  H   UNL     1     -11.595  -7.436  13.654  0.00  0.00    +0.156 HD
BRANCH   9  27
ATOM      1  S   UNL     1     -14.863  -4.630  12.713  0.00  0.00    -0.103 S 
ATOM     27  C   UNL     1     -12.729  -5.718  13.642  0.00  0.00    +0.042 A 
ATOM     30  C   UNL     1     -12.337  -4.442  13.144  0.00  0.00    +0.031 A 
ATOM     31  C   UNL     1     -14.077  -5.948  13.473  0.00  0.00    +0.068 A 
ATOM     32  C   UNL     1     -13.399  -3.747  12.610  0.00  0.00    +0.047 A 
ENDBRANCH   9  27
ENDBRANCH  12   7
BRANCH  11  16
ATOM     16  C   UNL     1      -7.499 -11.560  15.649  0.00  0.00    +0.029 C 
BRANCH  16  18
ATOM     18  C   UNL     1      -6.143 -11.029  15.210  0.00  0.00    +0.098 C 
BRANCH  18  19
ATOM      3  O   UNL     1      -7.305  -9.794  13.554  0.00  0.00    -0.275 OA
ATOM      8  N   UNL     1      -5.075 -10.334  13.126  0.00  0.00    -0.271 N 
ATOM     19  C   UNL     1      -6.241 -10.321  13.880  0.00  0.00    +0.220 C 
ATOM     21  C   UNL     1      -3.799 -10.968  13.518  0.00  0.00    +0.118 C 
ATOM     22  C   UNL     1      -4.906  -9.748  11.854  0.00  0.00    +0.039 A 
ATOM     23  C   UNL     1      -2.791 -10.729  12.388  0.00  0.00    +0.056 C 
ATOM     24  C   UNL     1      -3.602  -9.957  11.400  0.00  0.00    -0.024 A 
ATOM     25  C   UNL     1      -5.819  -9.047  11.079  0.00  0.00    +0.024 A 
ATOM     26  C   UNL     1      -3.181  -9.475  10.170  0.00  0.00    +0.005 A 
ATOM     28  C   UNL     1      -5.403  -8.559   9.837  0.00  0.00    +0.002 A 
ATOM     29  C   UNL     1      -4.093  -8.770   9.385  0.00  0.00    +0.000 A 
ENDBRANCH  18  19
ENDBRANCH  16  18
ENDBRANCH  11  16
TORSDOF 5
ENDMDL
MODEL 9
REMARK VINA RESULT:      -7.5     26.350     28.455
REMARK  Name = 26762201
REMARK  5 active torsions:
REMARK  status: ('A' for Active; 'I' for Inactive)
REMARK    1  A    between atoms: N_7  and  C_12
REMARK    2  A    between atoms: N_9  and  C_27
REMARK    3  A    between atoms: C_11  and  C_16
REMARK    4  A    between atoms: C_16  and  C_18
REMARK    5  A    between atoms: C_18  and  C_19
REMARK                            x       y       z     vdW  Elec       q    Type
REMARK                         _______ _______ _______ _____ _____    ______ ____
ROOT
ATOM      2  O   UNL     1      22.370  -9.191  -1.791  0.00  0.00    -0.274 OA
ATOM      5  N   UNL     1      21.307  -6.746   0.375  0.00  0.00    -0.285 NA
ATOM      6  N   UNL     1      22.575  -6.899  -2.000  0.00  0.00    -0.313 N 
ATOM     10  C   UNL     1      22.283  -7.822   0.209  0.00  0.00    +0.145 C 
ATOM     11  C   UNL     1      21.769  -5.451  -0.134  0.00  0.00    +0.075 C 
ATOM     12  C   UNL     1      20.759  -8.269   2.043  0.00  0.00    +0.090 C 
ATOM     13  C   UNL     1      21.686  -8.958   1.031  0.00  0.00    +0.052 C 
ATOM     14  C   UNL     1      20.929  -6.771   1.784  0.00  0.00    +0.107 C 
ATOM     15  C   UNL     1      22.743  -5.627  -1.320  0.00  0.00    +0.123 C 
ATOM     17  C   UNL     1      22.395  -8.075  -1.283  0.00  0.00    +0.230 C 
ATOM     33  H   UNL     1      22.696  -6.946  -3.007  0.00  0.00    +0.149 HD
ENDROOT
BRANCH  12   7
ATOM      4  O   UNL     1      19.636 -10.810   2.747  0.00  0.00    -0.253 OA
ATOM      7  N   UNL     1      19.388  -8.686   1.867  0.00  0.00    -0.295 N 
ATOM      9  N   UNL     1      17.556 -10.070   1.950  0.00  0.00    -0.269 N 
ATOM     20  C   UNL     1      18.919  -9.952   2.239  0.00  0.00    +0.304 C 
ATOM     34  H   UNL     1      18.713  -8.003   1.538  0.00  0.00    +0.151 HD
ATOM     35  H   UNL     1      17.096  -9.267   1.527  0.00  0.00    +0.156 HD
BRANCH   9  27
ATOM      1  S   UNL     1      15.351 -13.323   1.767  0.00  0.00    -0.103 S 
ATOM     27  C   UNL     1      16.715 -11.184   2.174  0.00  0.00    +0.042 A 
ATOM     30  C   UNL     1      16.118 -11.516   3.425  0.00  0.00    +0.031 A 
ATOM     31  C   UNL     1      16.382 -12.085   1.186  0.00  0.00    +0.068 A 
ATOM     32  C   UNL     1      15.350 -12.657   3.344  0.00  0.00    +0.047 A 
ENDBRANCH   9  27
ENDBRANCH  12   7
BRANCH  11  16
ATOM     16  C   UNL     1      20.549  -4.634  -0.567  0.00  0.00    +0.029 C 
BRANCH  16  18
ATOM     18  C   UNL     1      20.338  -4.660  -2.073  0.00  0.00    +0.098 C 
BRANCH  18  19
ATOM      3  O   UNL     1      19.458  -6.818  -2.502  0.00  0.00    -0.275 OA
ATOM      8  N   UNL     1      18.005  -5.003  -2.712  0.00  0.00    -0.271 N 
ATOM     19  C   UNL     1      19.226  -5.609  -2.450  0.00  0.00    +0.220 C 
ATOM     21  C   UNL     1      17.730  -3.551  -2.650  0.00  0.00    +0.118 C 
ATOM     22  C   UNL     1      16.816  -5.664  -3.084  0.00  0.00    +0.039 A 
ATOM     23  C   UNL     1      16.255  -3.340  -3.008  0.00  0.00    +0.056 C 
ATOM     24  C   UNL     1      15.788  -4.736  -3.263  0.00  0.00    -0.024 A 
ATOM     25  C   UNL     1      16.584  -7.019  -3.273  0.00  0.00    +0.024 A 
ATOM     26  C   UNL     1      14.513  -5.135  -3.631  0.00  0.00    +0.005 A 
ATOM     28  C   UNL     1      15.300  -7.429  -3.646  0.00  0.00    +0.002 A 
ATOM     29  C   UNL     1      14.271  -6.495  -3.823  0.00  0.00    +0.000 A 
ENDBRANCH  18  19
ENDBRANCH  16  18
ENDBRANCH  11  16
TORSDOF 5
ENDMDL
MODEL 10
REMARK VINA RESULT:      -7.4     16.441     19.201
REMARK  Name = 26762201
REMARK  5 active torsions:
REMARK  status: ('A' for Active; 'I' for Inactive)
REMARK    1  A    between atoms: N_7  and  C_12
REMARK    2  A    between atoms: N_9  and  C_27
REMARK    3  A    between atoms: C_11  and  C_16
REMARK    4  A    between atoms: C_16  and  C_18
REMARK    5  A    between atoms: C_18  and  C_19
REMARK                            x       y       z     vdW  Elec       q    Type
REMARK                         _______ _______ _______ _____ _____    ______ ____
ROOT
ATOM      2  O   UNL     1      10.606   5.857  -1.301  0.00  0.00    -0.274 OA
ATOM      5  N   UNL     1      13.047   4.266   0.518  0.00  0.00    -0.285 NA
ATOM      6  N   UNL     1      12.738   5.264  -1.968  0.00  0.00    -0.313 N 
ATOM     10  C   UNL     1      11.746   4.072  -0.120  0.00  0.00    +0.145 C 
ATOM     11  C   UNL     1      14.183   4.002  -0.370  0.00  0.00    +0.075 C 
ATOM     12  C   UNL     1      11.614   3.792   2.285  0.00  0.00    +0.090 C 
ATOM     13  C   UNL     1      10.773   4.145   1.050  0.00  0.00    +0.052 C 
ATOM     14  C   UNL     1      13.007   3.472   1.742  0.00  0.00    +0.107 C 
ATOM     15  C   UNL     1      13.831   4.316  -1.842  0.00  0.00    +0.123 C 
ATOM     17  C   UNL     1      11.611   5.167  -1.162  0.00  0.00    +0.230 C 
ATOM     33  H   UNL     1      12.750   5.942  -2.724  0.00  0.00    +0.149 HD
ENDROOT
BRANCH  12   7
ATOM      4  O   UNL     1       9.823   4.226   4.481  0.00  0.00    -0.253 OA
ATOM      7  N   UNL     1      11.649   4.887   3.226  0.00  0.00    -0.295 N 
ATOM      9  N   UNL     1      11.013   6.177   5.018  0.00  0.00    -0.269 N 
ATOM     20  C   UNL     1      10.732   5.026   4.275  0.00  0.00    +0.304 C 
ATOM     34  H   UNL     1      12.425   5.541   3.179  0.00  0.00    +0.151 HD
ATOM     35  H   UNL     1      11.805   6.742   4.723  0.00  0.00    +0.156 HD
BRANCH   9  27
ATOM      1  S   UNL     1       9.012   8.230   7.713  0.00  0.00    -0.103 S 
ATOM     27  C   UNL     1      10.324   6.667   6.152  0.00  0.00    +0.042 A 
ATOM     30  C   UNL     1      10.102   5.932   7.352  0.00  0.00    +0.031 A 
ATOM     31  C   UNL     1       9.783   7.932   6.213  0.00  0.00    +0.068 A 
ATOM     32  C   UNL     1       9.402   6.663   8.285  0.00  0.00    +0.047 A 
ENDBRANCH   9  27
ENDBRANCH  12   7
BRANCH  11  16
ATOM     16  C   UNL     1      15.367   4.859   0.085  0.00  0.00    +0.029 C 
BRANCH  16  18
ATOM     18  C   UNL     1      14.960   6.287   0.411  0.00  0.00    +0.098 C 
BRANCH  18  19
ATOM      3  O   UNL     1      17.106   7.248   0.710  0.00  0.00    -0.275 OA
ATOM      8  N   UNL     1      15.656   7.264   2.539  0.00  0.00    -0.271 N 
ATOM     19  C   UNL     1      16.022   6.983   1.229  0.00  0.00    +0.220 C 
ATOM     21  C   UNL     1      14.354   6.944   3.161  0.00  0.00    +0.118 C 
ATOM     22  C   UNL     1      16.463   7.903   3.504  0.00  0.00    +0.039 A 
ATOM     23  C   UNL     1      14.393   7.441   4.610  0.00  0.00    +0.056 C 
ATOM     24  C   UNL     1      15.766   8.021   4.708  0.00  0.00    -0.024 A 
ATOM     25  C   UNL     1      17.760   8.384   3.388  0.00  0.00    +0.024 A 
ATOM     26  C   UNL     1      16.343   8.617   5.819  0.00  0.00    +0.005 A 
ATOM     28  C   UNL     1      18.349   8.985   4.505  0.00  0.00    +0.002 A 
ATOM     29  C   UNL     1      17.646   9.102   5.712  0.00  0.00    +0.000 A 
ENDBRANCH  18  19
ENDBRANCH  16  18
ENDBRANCH  11  16
TORSDOF 5
ENDMDL
