MODEL 1
REMARK VINA RESULT:      -5.4      0.000      0.000
REMARK  Name = 11943126
REMARK  7 active torsions:
REMARK  status: ('A' for Active; 'I' for Inactive)
REMARK    1  A    between atoms: O_1  and  C_12
REMARK    2  A    between atoms: O_1  and  C_15
REMARK    3  A    between atoms: N_4  and  C_16
REMARK    4  A    between atoms: C_6  and  C_12
REMARK    5  A    between atoms: C_8  and  C_13
REMARK    6  A    between atoms: C_16  and  C_17
REMARK    7  A    between atoms: C_17  and  C_18
REMARK                            x       y       z     vdW  Elec       q    Type
REMARK                         _______ _______ _______ _____ _____    ______ ____
ROOT
ATOM      3  N   UNL     1      10.938   7.300   5.888  0.00  0.00    -0.295 NA
ATOM      5  C   UNL     1       8.698   7.097   7.195  0.00  0.00    +0.008 C 
ATOM      6  C   UNL     1       9.939   6.563   5.069  0.00  0.00    +0.095 C 
ATOM      7  C   UNL     1       8.658   6.282   5.885  0.00  0.00    +0.027 C 
ATOM      8  C   UNL     1       9.885   6.611   8.054  0.00  0.00    +0.081 C 
ATOM      9  C   UNL     1       8.989   8.560   6.815  0.00  0.00    +0.020 C 
ATOM     10  C   UNL     1      11.158   6.606   7.181  0.00  0.00    +0.101 C 
ATOM     11  C   UNL     1      10.387   8.647   6.175  0.00  0.00    +0.085 C 
ENDROOT
BRANCH   8  13
ATOM     13  C   UNL     1       9.632   5.288   8.647  0.00  0.00    -0.101 C 
ATOM     14  C   UNL     1       9.427   4.209   9.133  0.00  0.00    +0.004 C 
ENDBRANCH   8  13
BRANCH   6  12
ATOM     12  C   UNL     1      10.516   5.284   4.458  0.00  0.00    +0.252 C 
BRANCH  12   1
ATOM      1  O   UNL     1      10.918   5.567   3.132  0.00  0.00    -0.449 OA
BRANCH   1  15
ATOM      2  O   UNL     1      10.307   3.875   1.702  0.00  0.00    -0.226 OA
ATOM      4  N   UNL     1      12.520   4.192   2.323  0.00  0.00    -0.281 N 
ATOM     15  C   UNL     1      11.172   4.483   2.324  0.00  0.00    +0.400 C 
ATOM     19  H   UNL     1      13.135   4.777   2.880  0.00  0.00    +0.152 HD
BRANCH   4  16
ATOM     16  C   UNL     1      13.105   3.107   1.570  0.00  0.00    +0.107 C 
BRANCH  16  17
ATOM     17  C   UNL     1      13.691   3.572   0.242  0.00  0.00    +0.015 C 
ATOM     18  C   UNL     1      12.808   3.218  -0.947  0.00  0.00    +0.005 C 
ENDBRANCH  16  17
ENDBRANCH   4  16
ENDBRANCH   1  15
ENDBRANCH  12   1
ENDBRANCH   6  12
TORSDOF 6
ENDMDL
MODEL 2
REMARK VINA RESULT:      -5.2     14.288     16.250
REMARK  Name = 11943126
REMARK  7 active torsions:
REMARK  status: ('A' for Active; 'I' for Inactive)
REMARK    1  A    between atoms: O_1  and  C_12
REMARK    2  A    between atoms: O_1  and  C_15
REMARK    3  A    between atoms: N_4  and  C_16
REMARK    4  A    between atoms: C_6  and  C_12
REMARK    5  A    between atoms: C_8  and  C_13
REMARK    6  A    between atoms: C_16  and  C_17
REMARK    7  A    between atoms: C_17  and  C_18
REMARK                            x       y       z     vdW  Elec       q    Type
REMARK                         _______ _______ _______ _____ _____    ______ ____
ROOT
ATOM      3  N   UNL     1      14.288   9.099  19.081  0.00  0.00    -0.295 NA
ATOM      5  C   UNL     1      11.862   8.470  18.381  0.00  0.00    +0.008 C 
ATOM      6  C   UNL     1      14.228   7.664  18.693  0.00  0.00    +0.095 C 
ATOM      7  C   UNL     1      12.770   7.224  18.435  0.00  0.00    +0.027 C 
ATOM      8  C   UNL     1      11.877   9.163  19.761  0.00  0.00    +0.081 C 
ATOM      9  C   UNL     1      12.493   9.453  17.378  0.00  0.00    +0.020 C 
ATOM     10  C   UNL     1      13.344   9.371  20.194  0.00  0.00    +0.101 C 
ATOM     11  C   UNL     1      13.866   9.906  17.910  0.00  0.00    +0.085 C 
ENDROOT
BRANCH   8  13
ATOM     13  C   UNL     1      11.119   8.405  20.769  0.00  0.00    -0.101 C 
ATOM     14  C   UNL     1      10.499   7.787  21.591  0.00  0.00    +0.004 C 
ENDBRANCH   8  13
BRANCH   6  12
ATOM     12  C   UNL     1      14.926   6.756  19.708  0.00  0.00    +0.252 C 
BRANCH  12   1
ATOM      1  O   UNL     1      15.974   6.073  19.048  0.00  0.00    -0.449 OA
BRANCH   1  15
ATOM      2  O   UNL     1      18.196   5.525  19.249  0.00  0.00    -0.226 OA
ATOM      4  N   UNL     1      17.220   7.132  20.609  0.00  0.00    -0.281 N 
ATOM     15  C   UNL     1      17.225   6.185  19.606  0.00  0.00    +0.400 C 
ATOM     19  H   UNL     1      16.348   7.613  20.806  0.00  0.00    +0.152 HD
BRANCH   4  16
ATOM     16  C   UNL     1      18.385   7.480  21.388  0.00  0.00    +0.107 C 
BRANCH  16  17
ATOM     17  C   UNL     1      18.476   8.977  21.659  0.00  0.00    +0.015 C 
ATOM     18  C   UNL     1      17.223   9.729  21.234  0.00  0.00    +0.005 C 
ENDBRANCH  16  17
ENDBRANCH   4  16
ENDBRANCH   1  15
ENDBRANCH  12   1
ENDBRANCH   6  12
TORSDOF 6
ENDMDL
MODEL 3
REMARK VINA RESULT:      -5.2     12.631     14.837
REMARK  Name = 11943126
REMARK  7 active torsions:
REMARK  status: ('A' for Active; 'I' for Inactive)
REMARK    1  A    between atoms: O_1  and  C_12
REMARK    2  A    between atoms: O_1  and  C_15
REMARK    3  A    between atoms: N_4  and  C_16
REMARK    4  A    between atoms: C_6  and  C_12
REMARK    5  A    between atoms: C_8  and  C_13
REMARK    6  A    between atoms: C_16  and  C_17
REMARK    7  A    between atoms: C_17  and  C_18
REMARK                            x       y       z     vdW  Elec       q    Type
REMARK                         _______ _______ _______ _____ _____    ______ ____
ROOT
ATOM      3  N   UNL     1      13.741   9.148  19.607  0.00  0.00    -0.295 NA
ATOM      5  C   UNL     1      14.495   7.108  21.037  0.00  0.00    +0.008 C 
ATOM      6  C   UNL     1      12.852   7.985  19.341  0.00  0.00    +0.095 C 
ATOM      7  C   UNL     1      13.378   6.716  20.048  0.00  0.00    +0.027 C 
ATOM      8  C   UNL     1      15.683   7.699  20.246  0.00  0.00    +0.081 C 
ATOM      9  C   UNL     1      13.944   8.238  21.926  0.00  0.00    +0.020 C 
ATOM     10  C   UNL     1      15.151   8.798  19.302  0.00  0.00    +0.101 C 
ATOM     11  C   UNL     1      13.648   9.470  21.053  0.00  0.00    +0.085 C 
ENDROOT
BRANCH   8  13
ATOM     13  C   UNL     1      16.423   6.664  19.506  0.00  0.00    -0.101 C 
ATOM     14  C   UNL     1      17.028   5.819  18.904  0.00  0.00    +0.004 C 
ENDBRANCH   8  13
BRANCH   6  12
ATOM     12  C   UNL     1      12.630   7.753  17.845  0.00  0.00    +0.252 C 
BRANCH  12   1
ATOM      1  O   UNL     1      12.231   8.977  17.259  0.00  0.00    -0.449 OA
BRANCH   1  15
ATOM      2  O   UNL     1      13.172   8.655  15.187  0.00  0.00    -0.226 OA
ATOM      4  N   UNL     1      13.313  10.700  16.275  0.00  0.00    -0.281 N 
ATOM     15  C   UNL     1      12.931   9.381  16.147  0.00  0.00    +0.400 C 
ATOM     19  H   UNL     1      13.047  11.194  17.121  0.00  0.00    +0.152 HD
BRANCH   4  16
ATOM     16  C   UNL     1      14.065  11.417  15.272  0.00  0.00    +0.107 C 
BRANCH  16  17
ATOM     17  C   UNL     1      15.568  11.354  15.517  0.00  0.00    +0.015 C 
ATOM     18  C   UNL     1      16.381  11.657  14.267  0.00  0.00    +0.005 C 
ENDBRANCH  16  17
ENDBRANCH   4  16
ENDBRANCH   1  15
ENDBRANCH  12   1
ENDBRANCH   6  12
TORSDOF 6
ENDMDL
MODEL 4
REMARK VINA RESULT:      -5.2      1.940      7.469
REMARK  Name = 11943126
REMARK  7 active torsions:
REMARK  status: ('A' for Active; 'I' for Inactive)
REMARK    1  A    between atoms: O_1  and  C_12
REMARK    2  A    between atoms: O_1  and  C_15
REMARK    3  A    between atoms: N_4  and  C_16
REMARK    4  A    between atoms: C_6  and  C_12
REMARK    5  A    between atoms: C_8  and  C_13
REMARK    6  A    between atoms: C_16  and  C_17
REMARK    7  A    between atoms: C_17  and  C_18
REMARK                            x       y       z     vdW  Elec       q    Type
REMARK                         _______ _______ _______ _____ _____    ______ ____
ROOT
ATOM      3  N   UNL     1      12.749   5.723   1.177  0.00  0.00    -0.295 NA
ATOM      5  C   UNL     1      14.118   3.630   0.462  0.00  0.00    +0.008 C 
ATOM      6  C   UNL     1      12.446   4.585   2.084  0.00  0.00    +0.095 C 
ATOM      7  C   UNL     1      13.115   3.286   1.582  0.00  0.00    +0.027 C 
ATOM      8  C   UNL     1      13.349   4.223  -0.738  0.00  0.00    +0.081 C 
ATOM      9  C   UNL     1      15.040   4.741   0.997  0.00  0.00    +0.020 C 
ATOM     10  C   UNL     1      12.437   5.360  -0.228  0.00  0.00    +0.101 C 
ATOM     11  C   UNL     1      14.203   6.004   1.269  0.00  0.00    +0.085 C 
ENDROOT
BRANCH   8  13
ATOM     13  C   UNL     1      12.580   3.198  -1.463  0.00  0.00    -0.101 C 
ATOM     14  C   UNL     1      11.953   2.362  -2.055  0.00  0.00    +0.004 C 
ENDBRANCH   8  13
BRANCH   6  12
ATOM     12  C   UNL     1      10.943   4.402   2.306  0.00  0.00    +0.252 C 
BRANCH  12   1
ATOM      1  O   UNL     1      10.740   3.954   3.632  0.00  0.00    -0.449 OA
BRANCH   1  15
ATOM      2  O   UNL     1       9.813   5.979   4.195  0.00  0.00    -0.226 OA
ATOM      4  N   UNL     1      10.279   4.375   5.805  0.00  0.00    -0.281 N 
ATOM     15  C   UNL     1      10.236   4.874   4.520  0.00  0.00    +0.400 C 
ATOM     19  H   UNL     1      10.651   3.440   5.941  0.00  0.00    +0.152 HD
BRANCH   4  16
ATOM     16  C   UNL     1       9.821   5.104   6.964  0.00  0.00    +0.107 C 
BRANCH  16  17
ATOM     17  C   UNL     1       9.784   4.238   8.218  0.00  0.00    +0.015 C 
ATOM     18  C   UNL     1       9.322   5.004   9.449  0.00  0.00    +0.005 C 
ENDBRANCH  16  17
ENDBRANCH   4  16
ENDBRANCH   1  15
ENDBRANCH  12   1
ENDBRANCH   6  12
TORSDOF 6
ENDMDL
MODEL 5
REMARK VINA RESULT:      -5.1     12.637     15.294
REMARK  Name = 11943126
REMARK  7 active torsions:
REMARK  status: ('A' for Active; 'I' for Inactive)
REMARK    1  A    between atoms: O_1  and  C_12
REMARK    2  A    between atoms: O_1  and  C_15
REMARK    3  A    between atoms: N_4  and  C_16
REMARK    4  A    between atoms: C_6  and  C_12
REMARK    5  A    between atoms: C_8  and  C_13
REMARK    6  A    between atoms: C_16  and  C_17
REMARK    7  A    between atoms: C_17  and  C_18
REMARK                            x       y       z     vdW  Elec       q    Type
REMARK                         _______ _______ _______ _____ _____    ______ ____
ROOT
ATOM      3  N   UNL     1      11.813   8.672  19.571  0.00  0.00    -0.295 NA
ATOM      5  C   UNL     1      12.953   7.610  21.655  0.00  0.00    +0.008 C 
ATOM      6  C   UNL     1      12.482   7.400  19.190  0.00  0.00    +0.095 C 
ATOM      7  C   UNL     1      13.307   6.836  20.369  0.00  0.00    +0.027 C 
ATOM      8  C   UNL     1      13.374   9.086  21.486  0.00  0.00    +0.081 C 
ATOM      9  C   UNL     1      11.419   7.595  21.792  0.00  0.00    +0.020 C 
ATOM     10  C   UNL     1      12.797   9.616  20.156  0.00  0.00    +0.101 C 
ATOM     11  C   UNL     1      10.799   8.360  20.608  0.00  0.00    +0.085 C 
ENDROOT
BRANCH   8  13
ATOM     13  C   UNL     1      14.835   9.254  21.545  0.00  0.00    -0.101 C 
ATOM     14  C   UNL     1      16.027   9.391  21.591  0.00  0.00    +0.004 C 
ENDBRANCH   8  13
BRANCH   6  12
ATOM     12  C   UNL     1      13.327   7.543  17.922  0.00  0.00    +0.252 C 
BRANCH  12   1
ATOM      1  O   UNL     1      12.564   8.238  16.955  0.00  0.00    -0.449 OA
BRANCH   1  15
ATOM      2  O   UNL     1      13.755   8.576  15.019  0.00  0.00    -0.226 OA
ATOM      4  N   UNL     1      13.334  10.314  16.498  0.00  0.00    -0.281 N 
ATOM     15  C   UNL     1      13.266   9.008  16.058  0.00  0.00    +0.400 C 
ATOM     19  H   UNL     1      12.882  10.545  17.378  0.00  0.00    +0.152 HD
BRANCH   4  16
ATOM     16  C   UNL     1      14.005  11.369  15.777  0.00  0.00    +0.107 C 
BRANCH  16  17
ATOM     17  C   UNL     1      15.196  11.930  16.545  0.00  0.00    +0.015 C 
ATOM     18  C   UNL     1      15.217  11.491  18.002  0.00  0.00    +0.005 C 
ENDBRANCH  16  17
ENDBRANCH   4  16
ENDBRANCH   1  15
ENDBRANCH  12   1
ENDBRANCH   6  12
TORSDOF 6
ENDMDL
MODEL 6
REMARK VINA RESULT:      -5.0     12.097     14.669
REMARK  Name = 11943126
REMARK  7 active torsions:
REMARK  status: ('A' for Active; 'I' for Inactive)
REMARK    1  A    between atoms: O_1  and  C_12
REMARK    2  A    between atoms: O_1  and  C_15
REMARK    3  A    between atoms: N_4  and  C_16
REMARK    4  A    between atoms: C_6  and  C_12
REMARK    5  A    between atoms: C_8  and  C_13
REMARK    6  A    between atoms: C_16  and  C_17
REMARK    7  A    between atoms: C_17  and  C_18
REMARK                            x       y       z     vdW  Elec       q    Type
REMARK                         _______ _______ _______ _____ _____    ______ ____
ROOT
ATOM      3  N   UNL     1      11.627   7.570  19.514  0.00  0.00    -0.295 NA
ATOM      5  C   UNL     1      13.322   8.835  21.030  0.00  0.00    +0.008 C 
ATOM      6  C   UNL     1      12.655   8.242  18.675  0.00  0.00    +0.095 C 
ATOM      7  C   UNL     1      13.573   9.136  19.538  0.00  0.00    +0.027 C 
ATOM      8  C   UNL     1      11.869   9.220  21.384  0.00  0.00    +0.081 C 
ATOM      9  C   UNL     1      13.440   7.311  21.216  0.00  0.00    +0.020 C 
ATOM     10  C   UNL     1      10.920   8.565  20.358  0.00  0.00    +0.101 C 
ATOM     11  C   UNL     1      12.325   6.616  20.412  0.00  0.00    +0.085 C 
ENDROOT
BRANCH   8  13
ATOM     13  C   UNL     1      11.682  10.678  21.439  0.00  0.00    -0.101 C 
ATOM     14  C   UNL     1      11.527  11.868  21.483  0.00  0.00    +0.004 C 
ENDBRANCH   8  13
BRANCH   6  12
ATOM     12  C   UNL     1      12.038   9.017  17.509  0.00  0.00    +0.252 C 
BRANCH  12   1
ATOM      1  O   UNL     1      12.577   8.511  16.303  0.00  0.00    -0.449 OA
BRANCH   1  15
ATOM      2  O   UNL     1      14.465   8.804  15.027  0.00  0.00    -0.226 OA
ATOM      4  N   UNL     1      13.350  10.609  15.967  0.00  0.00    -0.281 N 
ATOM     15  C   UNL     1      13.552   9.270  15.701  0.00  0.00    +0.400 C 
ATOM     19  H   UNL     1      12.551  10.866  16.539  0.00  0.00    +0.152 HD
BRANCH   4  16
ATOM     16  C   UNL     1      14.207  11.662  15.475  0.00  0.00    +0.107 C 
BRANCH  16  17
ATOM     17  C   UNL     1      13.809  12.129  14.080  0.00  0.00    +0.015 C 
ATOM     18  C   UNL     1      14.968  12.089  13.094  0.00  0.00    +0.005 C 
ENDBRANCH  16  17
ENDBRANCH   4  16
ENDBRANCH   1  15
ENDBRANCH  12   1
ENDBRANCH   6  12
TORSDOF 6
ENDMDL
MODEL 7
REMARK VINA RESULT:      -5.0     22.724     25.143
REMARK  Name = 11943126
REMARK  7 active torsions:
REMARK  status: ('A' for Active; 'I' for Inactive)
REMARK    1  A    between atoms: O_1  and  C_12
REMARK    2  A    between atoms: O_1  and  C_15
REMARK    3  A    between atoms: N_4  and  C_16
REMARK    4  A    between atoms: C_6  and  C_12
REMARK    5  A    between atoms: C_8  and  C_13
REMARK    6  A    between atoms: C_16  and  C_17
REMARK    7  A    between atoms: C_17  and  C_18
REMARK                            x       y       z     vdW  Elec       q    Type
REMARK                         _______ _______ _______ _____ _____    ______ ____
ROOT
ATOM      3  N   UNL     1      -5.258 -12.842  16.999  0.00  0.00    -0.295 NA
ATOM      5  C   UNL     1      -5.170 -10.660  18.413  0.00  0.00    +0.008 C 
ATOM      6  C   UNL     1      -4.386 -11.840  16.331  0.00  0.00    +0.095 C 
ATOM      7  C   UNL     1      -4.450 -10.479  17.061  0.00  0.00    +0.027 C 
ATOM      8  C   UNL     1      -6.629 -11.091  18.153  0.00  0.00    +0.081 C 
ATOM      9  C   UNL     1      -4.482 -11.826  19.147  0.00  0.00    +0.020 C 
ATOM     10  C   UNL     1      -6.625 -12.293  17.186  0.00  0.00    +0.101 C 
ATOM     11  C   UNL     1      -4.686 -13.121  18.340  0.00  0.00    +0.085 C 
ENDROOT
BRANCH   8  13
ATOM     13  C   UNL     1      -7.449  -9.984  17.635  0.00  0.00    -0.101 C 
ATOM     14  C   UNL     1      -8.118  -9.080  17.213  0.00  0.00    +0.004 C 
ENDBRANCH   8  13
BRANCH   6  12
ATOM     12  C   UNL     1      -4.697 -11.700  14.839  0.00  0.00    +0.252 C 
BRANCH  12   1
ATOM      1  O   UNL     1      -4.188 -10.457  14.393  0.00  0.00    -0.449 OA
BRANCH   1  15
ATOM      2  O   UNL     1      -2.013 -10.538  13.657  0.00  0.00    -0.226 OA
ATOM      4  N   UNL     1      -3.793 -10.513  12.168  0.00  0.00    -0.281 N 
ATOM     15  C   UNL     1      -3.217 -10.506  13.421  0.00  0.00    +0.400 C 
ATOM     19  H   UNL     1      -4.806 -10.487  12.108  0.00  0.00    +0.152 HD
BRANCH   4  16
ATOM     16  C   UNL     1      -3.036 -10.560  10.939  0.00  0.00    +0.107 C 
BRANCH  16  17
ATOM     17  C   UNL     1      -2.960  -9.202  10.252  0.00  0.00    +0.015 C 
ATOM     18  C   UNL     1      -4.093  -8.980   9.259  0.00  0.00    +0.005 C 
ENDBRANCH  16  17
ENDBRANCH   4  16
ENDBRANCH   1  15
ENDBRANCH  12   1
ENDBRANCH   6  12
TORSDOF 6
ENDMDL
MODEL 8
REMARK VINA RESULT:      -5.0     24.093     26.298
REMARK  Name = 11943126
REMARK  7 active torsions:
REMARK  status: ('A' for Active; 'I' for Inactive)
REMARK    1  A    between atoms: O_1  and  C_12
REMARK    2  A    between atoms: O_1  and  C_15
REMARK    3  A    between atoms: N_4  and  C_16
REMARK    4  A    between atoms: C_6  and  C_12
REMARK    5  A    between atoms: C_8  and  C_13
REMARK    6  A    between atoms: C_16  and  C_17
REMARK    7  A    between atoms: C_17  and  C_18
REMARK                            x       y       z     vdW  Elec       q    Type
REMARK                         _______ _______ _______ _____ _____    ______ ____
ROOT
ATOM      3  N   UNL     1     -11.425   8.299  17.705  0.00  0.00    -0.295 NA
ATOM      5  C   UNL     1     -11.519   9.057  20.192  0.00  0.00    +0.008 C 
ATOM      6  C   UNL     1     -12.689   9.040  17.962  0.00  0.00    +0.095 C 
ATOM      7  C   UNL     1     -12.847   9.355  19.466  0.00  0.00    +0.027 C 
ATOM      8  C   UNL     1     -11.214   7.548  20.086  0.00  0.00    +0.081 C 
ATOM      9  C   UNL     1     -10.404   9.795  19.428  0.00  0.00    +0.020 C 
ATOM     10  C   UNL     1     -11.325   7.124  18.605  0.00  0.00    +0.101 C 
ATOM     11  C   UNL     1     -10.294   9.211  18.008  0.00  0.00    +0.085 C 
ENDROOT
BRANCH   8  13
ATOM     13  C   UNL     1     -12.098   6.743  20.945  0.00  0.00    -0.101 C 
ATOM     14  C   UNL     1     -12.820   6.088  21.645  0.00  0.00    +0.004 C 
ENDBRANCH   8  13
BRANCH   6  12
ATOM     12  C   UNL     1     -13.914   8.315  17.400  0.00  0.00    +0.252 C 
BRANCH  12   1
ATOM      1  O   UNL     1     -14.180   8.825  16.108  0.00  0.00    -0.449 OA
BRANCH   1  15
ATOM      2  O   UNL     1     -14.771   7.277  14.516  0.00  0.00    -0.226 OA
ATOM      4  N   UNL     1     -12.592   8.055  14.695  0.00  0.00    -0.281 N 
ATOM     15  C   UNL     1     -13.922   7.984  15.052  0.00  0.00    +0.400 C 
ATOM     19  H   UNL     1     -11.991   8.684  15.218  0.00  0.00    +0.152 HD
BRANCH   4  16
ATOM     16  C   UNL     1     -12.008   7.289  13.619  0.00  0.00    +0.107 C 
BRANCH  16  17
ATOM     17  C   UNL     1     -10.490   7.210  13.720  0.00  0.00    +0.015 C 
ATOM     18  C   UNL     1      -9.790   7.681  12.453  0.00  0.00    +0.005 C 
ENDBRANCH  16  17
ENDBRANCH   4  16
ENDBRANCH   1  15
ENDBRANCH  12   1
ENDBRANCH   6  12
TORSDOF 6
ENDMDL
MODEL 9
REMARK VINA RESULT:      -4.9     24.273     26.464
REMARK  Name = 11943126
REMARK  7 active torsions:
REMARK  status: ('A' for Active; 'I' for Inactive)
REMARK    1  A    between atoms: O_1  and  C_12
REMARK    2  A    between atoms: O_1  and  C_15
REMARK    3  A    between atoms: N_4  and  C_16
REMARK    4  A    between atoms: C_6  and  C_12
REMARK    5  A    between atoms: C_8  and  C_13
REMARK    6  A    between atoms: C_16  and  C_17
REMARK    7  A    between atoms: C_17  and  C_18
REMARK                            x       y       z     vdW  Elec       q    Type
REMARK                         _______ _______ _______ _____ _____    ______ ____
ROOT
ATOM      3  N   UNL     1      -7.021 -11.745  17.353  0.00  0.00    -0.295 NA
ATOM      5  C   UNL     1      -4.916 -11.080  18.730  0.00  0.00    +0.008 C 
ATOM      6  C   UNL     1      -6.321 -12.967  17.832  0.00  0.00    +0.095 C 
ATOM      7  C   UNL     1      -4.980 -12.605  18.508  0.00  0.00    +0.027 C 
ATOM      8  C   UNL     1      -4.926 -10.371  17.358  0.00  0.00    +0.081 C 
ATOM      9  C   UNL     1      -6.209 -10.668  19.457  0.00  0.00    +0.020 C 
ATOM     10  C   UNL     1      -6.106 -10.918  16.527  0.00  0.00    +0.101 C 
ATOM     11  C   UNL     1      -7.415 -10.950  18.542  0.00  0.00    +0.085 C 
ENDROOT
BRANCH   8  13
ATOM     13  C   UNL     1      -3.647 -10.525  16.646  0.00  0.00    -0.101 C 
ATOM     14  C   UNL     1      -2.603 -10.649  16.066  0.00  0.00    +0.004 C 
ENDBRANCH   8  13
BRANCH   6  12
ATOM     12  C   UNL     1      -6.138 -14.006  16.724  0.00  0.00    +0.252 C 
BRANCH  12   1
ATOM      1  O   UNL     1      -4.754 -14.145  16.468  0.00  0.00    -0.449 OA
BRANCH   1  15
ATOM      2  O   UNL     1      -5.040 -13.410  14.309  0.00  0.00    -0.226 OA
ATOM      4  N   UNL     1      -3.073 -14.439  14.985  0.00  0.00    -0.281 N 
ATOM     15  C   UNL     1      -4.349 -13.948  15.169  0.00  0.00    +0.400 C 
ATOM     19  H   UNL     1      -2.605 -14.861  15.782  0.00  0.00    +0.152 HD
BRANCH   4  16
ATOM     16  C   UNL     1      -2.366 -14.384  13.728  0.00  0.00    +0.107 C 
BRANCH  16  17
ATOM     17  C   UNL     1      -1.491 -13.142  13.608  0.00  0.00    +0.015 C 
ATOM     18  C   UNL     1      -2.071 -12.102  12.659  0.00  0.00    +0.005 C 
ENDBRANCH  16  17
ENDBRANCH   4  16
ENDBRANCH   1  15
ENDBRANCH  12   1
ENDBRANCH   6  12
TORSDOF 6
ENDMDL
MODEL 10
REMARK VINA RESULT:      -4.9     25.535     28.417
REMARK  Name = 11943126
REMARK  7 active torsions:
REMARK  status: ('A' for Active; 'I' for Inactive)
REMARK    1  A    between atoms: O_1  and  C_12
REMARK    2  A    between atoms: O_1  and  C_15
REMARK    3  A    between atoms: N_4  and  C_16
REMARK    4  A    between atoms: C_6  and  C_12
REMARK    5  A    between atoms: C_8  and  C_13
REMARK    6  A    between atoms: C_16  and  C_17
REMARK    7  A    between atoms: C_17  and  C_18
REMARK                            x       y       z     vdW  Elec       q    Type
REMARK                         _______ _______ _______ _____ _____    ______ ____
ROOT
ATOM      3  N   UNL     1     -12.421  10.047  17.570  0.00  0.00    -0.295 NA
ATOM      5  C   UNL     1     -10.509   8.327  17.964  0.00  0.00    +0.008 C 
ATOM      6  C   UNL     1     -11.311  10.687  18.326  0.00  0.00    +0.095 C 
ATOM      7  C   UNL     1     -10.240   9.645  18.718  0.00  0.00    +0.027 C 
ATOM      8  C   UNL     1     -11.869   7.755  18.419  0.00  0.00    +0.081 C 
ATOM      9  C   UNL     1     -10.646   8.674  16.470  0.00  0.00    +0.020 C 
ATOM     10  C   UNL     1     -12.935   8.867  18.309  0.00  0.00    +0.101 C 
ATOM     11  C   UNL     1     -11.877   9.578  16.272  0.00  0.00    +0.085 C 
ENDROOT
BRANCH   8  13
ATOM     13  C   UNL     1     -11.807   7.199  19.780  0.00  0.00    -0.101 C 
ATOM     14  C   UNL     1     -11.757   6.743  20.890  0.00  0.00    +0.004 C 
ENDBRANCH   8  13
BRANCH   6  12
ATOM     12  C   UNL     1     -11.811  11.474  19.540  0.00  0.00    +0.252 C 
BRANCH  12   1
ATOM      1  O   UNL     1     -11.429  10.777  20.710  0.00  0.00    -0.449 OA
BRANCH   1  15
ATOM      2  O   UNL     1     -13.116   9.799  21.926  0.00  0.00    -0.226 OA
ATOM      4  N   UNL     1     -12.285  11.894  22.479  0.00  0.00    -0.281 N 
ATOM     15  C   UNL     1     -12.351  10.739  21.729  0.00  0.00    +0.400 C 
ATOM     19  H   UNL     1     -11.603  12.598  22.213  0.00  0.00    +0.152 HD
BRANCH   4  16
ATOM     16  C   UNL     1     -13.128  12.157  23.622  0.00  0.00    +0.107 C 
BRANCH  16  17
ATOM     17  C   UNL     1     -12.340  12.201  24.926  0.00  0.00    +0.015 C 
ATOM     18  C   UNL     1     -12.025  10.814  25.470  0.00  0.00    +0.005 C 
ENDBRANCH  16  17
ENDBRANCH   4  16
ENDBRANCH   1  15
ENDBRANCH  12   1
ENDBRANCH   6  12
TORSDOF 6
ENDMDL
