MODEL 1
REMARK VINA RESULT:      -7.7      0.000      0.000
REMARK  Name = 26743294
REMARK  12 active torsions:
REMARK  status: ('A' for Active; 'I' for Inactive)
REMARK    1  A    between atoms: N_4  and  C_17
REMARK    2  A    between atoms: C_6  and  C_12
REMARK    3  A    between atoms: C_7  and  C_11
REMARK    4  A    between atoms: C_11  and  C_13
REMARK    5  A    between atoms: C_12  and  C_14
REMARK    6  A    between atoms: C_16  and  C_19
REMARK    7  A    between atoms: C_17  and  C_21
REMARK    8  A    between atoms: C_17  and  C_22
REMARK    9  A    between atoms: C_18  and  C_20
REMARK   10  A    between atoms: C_18  and  C_27
REMARK   11  A    between atoms: C_18  and  C_28
REMARK   12  A    between atoms: C_18  and  C_29
REMARK                            x       y       z     vdW  Elec       q    Type
REMARK                         _______ _______ _______ _____ _____    ______ ____
ROOT
ATOM     11  C   UNL     1     -15.672   3.268  24.951  0.00  0.00    +0.064 C 
ENDROOT
BRANCH  11   7
ATOM      3  N   UNL     1     -19.048   4.590  26.168  0.00  0.00    -0.316 NA
ATOM      6  C   UNL     1     -16.448   3.823  27.333  0.00  0.00    +0.004 C 
ATOM      7  C   UNL     1     -16.647   4.066  25.819  0.00  0.00    +0.012 C 
ATOM      8  C   UNL     1     -17.523   4.600  28.112  0.00  0.00    +0.019 C 
ATOM      9  C   UNL     1     -18.098   3.800  25.385  0.00  0.00    +0.085 C 
ATOM     10  C   UNL     1     -18.934   4.315  27.599  0.00  0.00    +0.081 C 
ATOM     30  H   UNL     1     -19.997   4.381  25.859  0.00  0.00    +0.122 HD
BRANCH   6  12
ATOM     12  C   UNL     1     -16.450   2.342  27.733  0.00  0.00    +0.099 C 
BRANCH  12  14
ATOM      2  O   UNL     1     -14.778   2.902  29.389  0.00  0.00    -0.276 OA
ATOM      4  N   UNL     1     -15.343   0.674  29.047  0.00  0.00    -0.313 N 
ATOM     14  C   UNL     1     -15.432   2.038  28.811  0.00  0.00    +0.213 C 
ATOM     31  H   UNL     1     -15.974   0.048  28.553  0.00  0.00    +0.149 HD
BRANCH   4  17
ATOM     17  C   UNL     1     -14.449   0.098  30.024  0.00  0.00    +0.067 C 
ATOM     21  C   UNL     1     -13.494  -0.882  29.356  0.00  0.00    +0.027 C 
ATOM     22  C   UNL     1     -15.239  -0.575  31.141  0.00  0.00    +0.027 C 
ENDBRANCH   4  17
ENDBRANCH  12  14
ENDBRANCH   6  12
ENDBRANCH  11   7
BRANCH  11  13
ATOM      1  O   UNL     1     -15.450   4.690  21.651  0.00  0.00    -0.354 OA
ATOM      5  N   UNL     1     -16.050   3.870  22.599  0.00  0.00    -0.083 NA
ATOM     13  C   UNL     1     -15.312   4.019  23.702  0.00  0.00    +0.085 A 
ATOM     15  C   UNL     1     -14.244   4.913  23.513  0.00  0.00    +0.076 A 
ATOM     16  C   UNL     1     -14.376   5.306  22.207  0.00  0.00    +0.167 A 
BRANCH  16  19
ATOM     19  C   UNL     1     -13.651   6.191  21.343  0.00  0.00    +0.020 A 
ATOM     20  C   UNL     1     -12.240   7.914  19.661  0.00  0.00    -0.042 A 
ATOM     23  C   UNL     1     -12.256   6.198  21.362  0.00  0.00    +0.012 A 
ATOM     24  C   UNL     1     -14.340   7.046  20.482  0.00  0.00    +0.012 A 
ATOM     25  C   UNL     1     -11.550   7.060  20.521  0.00  0.00    +0.005 A 
ATOM     26  C   UNL     1     -13.635   7.907  19.641  0.00  0.00    +0.005 A 
BRANCH  20  18
ATOM     18  C   UNL     1     -11.487   8.834  18.762  0.00  0.00    -0.013 C 
ATOM     27  C   UNL     1     -10.792   8.052  17.604  0.00  0.00    +0.015 C 
ATOM     28  C   UNL     1     -10.375   9.603  19.543  0.00  0.00    +0.015 C 
ATOM     29  C   UNL     1     -12.343   9.941  18.062  0.00  0.00    +0.015 C 
ENDBRANCH  20  18
ENDBRANCH  16  19
ENDBRANCH  11  13
TORSDOF 7
ENDMDL
MODEL 2
REMARK VINA RESULT:      -6.5      8.954     12.309
REMARK  Name = 26743294
REMARK  12 active torsions:
REMARK  status: ('A' for Active; 'I' for Inactive)
REMARK    1  A    between atoms: N_4  and  C_17
REMARK    2  A    between atoms: C_6  and  C_12
REMARK    3  A    between atoms: C_7  and  C_11
REMARK    4  A    between atoms: C_11  and  C_13
REMARK    5  A    between atoms: C_12  and  C_14
REMARK    6  A    between atoms: C_16  and  C_19
REMARK    7  A    between atoms: C_17  and  C_21
REMARK    8  A    between atoms: C_17  and  C_22
REMARK    9  A    between atoms: C_18  and  C_20
REMARK   10  A    between atoms: C_18  and  C_27
REMARK   11  A    between atoms: C_18  and  C_28
REMARK   12  A    between atoms: C_18  and  C_29
REMARK                            x       y       z     vdW  Elec       q    Type
REMARK                         _______ _______ _______ _____ _____    ______ ____
ROOT
ATOM     11  C   UNL     1     -13.401   8.357  34.680  0.00  0.00    +0.064 C 
ENDROOT
BRANCH  11   7
ATOM      3  N   UNL     1     -13.109  10.599  31.595  0.00  0.00    -0.316 NA
ATOM      6  C   UNL     1     -11.439   9.815  33.899  0.00  0.00    +0.004 C 
ATOM      7  C   UNL     1     -12.723   9.051  33.497  0.00  0.00    +0.012 C 
ATOM      8  C   UNL     1     -10.882  10.543  32.663  0.00  0.00    +0.019 C 
ATOM      9  C   UNL     1     -13.721   9.961  32.761  0.00  0.00    +0.085 C 
ATOM     10  C   UNL     1     -11.939  11.395  31.962  0.00  0.00    +0.081 C 
ATOM     30  H   UNL     1     -13.796  11.200  31.140  0.00  0.00    +0.122 HD
BRANCH   6  12
ATOM     12  C   UNL     1     -11.634  10.792  35.065  0.00  0.00    +0.099 C 
BRANCH  12  14
ATOM      2  O   UNL     1     -10.242  11.372  36.957  0.00  0.00    -0.276 OA
ATOM      4  N   UNL     1     -10.420   9.147  36.311  0.00  0.00    -0.313 N 
ATOM     14  C   UNL     1     -10.694  10.504  36.216  0.00  0.00    +0.213 C 
ATOM     31  H   UNL     1     -10.893   8.505  35.682  0.00  0.00    +0.149 HD
BRANCH   4  17
ATOM     17  C   UNL     1      -9.548   8.586  37.318  0.00  0.00    +0.067 C 
ATOM     21  C   UNL     1      -8.158   8.349  36.744  0.00  0.00    +0.027 C 
ATOM     22  C   UNL     1     -10.140   7.299  37.880  0.00  0.00    +0.027 C 
ENDBRANCH   4  17
ENDBRANCH  12  14
ENDBRANCH   6  12
ENDBRANCH  11   7
BRANCH  11  13
ATOM      1  O   UNL     1     -14.016   4.811  34.791  0.00  0.00    -0.354 OA
ATOM      5  N   UNL     1     -13.807   6.043  35.400  0.00  0.00    -0.083 NA
ATOM     13  C   UNL     1     -13.651   6.905  34.392  0.00  0.00    +0.085 A 
ATOM     15  C   UNL     1     -13.750   6.281  33.136  0.00  0.00    +0.076 A 
ATOM     16  C   UNL     1     -13.980   4.966  33.443  0.00  0.00    +0.167 A 
BRANCH  16  19
ATOM     19  C   UNL     1     -14.182   3.772  32.675  0.00  0.00    +0.020 A 
ATOM     20  C   UNL     1     -14.575   1.450  31.178  0.00  0.00    -0.042 A 
ATOM     23  C   UNL     1     -14.624   2.606  33.300  0.00  0.00    +0.012 A 
ATOM     24  C   UNL     1     -13.936   3.777  31.301  0.00  0.00    +0.012 A 
ATOM     25  C   UNL     1     -14.820   1.445  32.551  0.00  0.00    +0.005 A 
ATOM     26  C   UNL     1     -14.132   2.616  30.553  0.00  0.00    +0.005 A 
BRANCH  20  18
ATOM     18  C   UNL     1     -14.784   0.209  30.378  0.00  0.00    -0.013 C 
ATOM     27  C   UNL     1     -15.684   0.484  29.134  0.00  0.00    +0.015 C 
ATOM     28  C   UNL     1     -15.483  -0.899  31.227  0.00  0.00    +0.015 C 
ATOM     29  C   UNL     1     -13.485  -0.455  29.815  0.00  0.00    +0.015 C 
ENDBRANCH  20  18
ENDBRANCH  16  19
ENDBRANCH  11  13
TORSDOF 7
ENDMDL
MODEL 3
REMARK VINA RESULT:      -6.5     15.857     19.416
REMARK  Name = 26743294
REMARK  12 active torsions:
REMARK  status: ('A' for Active; 'I' for Inactive)
REMARK    1  A    between atoms: N_4  and  C_17
REMARK    2  A    between atoms: C_6  and  C_12
REMARK    3  A    between atoms: C_7  and  C_11
REMARK    4  A    between atoms: C_11  and  C_13
REMARK    5  A    between atoms: C_12  and  C_14
REMARK    6  A    between atoms: C_16  and  C_19
REMARK    7  A    between atoms: C_17  and  C_21
REMARK    8  A    between atoms: C_17  and  C_22
REMARK    9  A    between atoms: C_18  and  C_20
REMARK   10  A    between atoms: C_18  and  C_27
REMARK   11  A    between atoms: C_18  and  C_28
REMARK   12  A    between atoms: C_18  and  C_29
REMARK                            x       y       z     vdW  Elec       q    Type
REMARK                         _______ _______ _______ _____ _____    ______ ____
ROOT
ATOM     11  C   UNL     1      -7.135 -12.814  18.633  0.00  0.00    +0.064 C 
ENDROOT
BRANCH  11   7
ATOM      3  N   UNL     1      -3.523 -11.803  17.882  0.00  0.00    -0.316 NA
ATOM      6  C   UNL     1      -6.241 -10.818  17.291  0.00  0.00    +0.004 C 
ATOM      7  C   UNL     1      -5.954 -11.874  18.384  0.00  0.00    +0.012 C 
ATOM      8  C   UNL     1      -4.972  -9.981  17.056  0.00  0.00    +0.019 C 
ATOM      9  C   UNL     1      -4.679 -12.678  18.077  0.00  0.00    +0.085 C 
ATOM     10  C   UNL     1      -3.741 -10.848  16.798  0.00  0.00    +0.081 C 
ATOM     30  H   UNL     1      -2.702 -12.370  17.673  0.00  0.00    +0.122 HD
BRANCH   6  12
ATOM     12  C   UNL     1      -6.756 -11.408  15.972  0.00  0.00    +0.099 C 
BRANCH  12  14
ATOM      2  O   UNL     1      -8.461 -10.819  14.361  0.00  0.00    -0.276 OA
ATOM      4  N   UNL     1      -8.655 -10.071  16.553  0.00  0.00    -0.313 N 
ATOM     14  C   UNL     1      -8.038 -10.750  15.512  0.00  0.00    +0.213 C 
ATOM     31  H   UNL     1      -8.249 -10.126  17.483  0.00  0.00    +0.149 HD
BRANCH   4  17
ATOM     17  C   UNL     1      -9.896  -9.347  16.398  0.00  0.00    +0.067 C 
ATOM     21  C   UNL     1     -10.011  -8.259  17.458  0.00  0.00    +0.027 C 
ATOM     22  C   UNL     1     -11.082 -10.303  16.458  0.00  0.00    +0.027 C 
ENDBRANCH   4  17
ENDBRANCH  12  14
ENDBRANCH   6  12
ENDBRANCH  11   7
BRANCH  11  13
ATOM      1  O   UNL     1      -9.379 -10.507  20.247  0.00  0.00    -0.354 OA
ATOM      5  N   UNL     1      -8.115 -10.904  19.829  0.00  0.00    -0.083 NA
ATOM     13  C   UNL     1      -8.304 -12.078  19.221  0.00  0.00    +0.085 A 
ATOM     15  C   UNL     1      -9.654 -12.469  19.223  0.00  0.00    +0.076 A 
ATOM     16  C   UNL     1     -10.287 -11.447  19.881  0.00  0.00    +0.167 A 
BRANCH  16  19
ATOM     19  C   UNL     1     -11.646 -11.174  20.246  0.00  0.00    +0.020 A 
ATOM     20  C   UNL     1     -14.292 -10.644  20.957  0.00  0.00    -0.042 A 
ATOM     23  C   UNL     1     -12.203  -9.922  19.982  0.00  0.00    +0.012 A 
ATOM     24  C   UNL     1     -12.414 -12.161  20.867  0.00  0.00    +0.012 A 
ATOM     25  C   UNL     1     -13.526  -9.657  20.337  0.00  0.00    +0.005 A 
ATOM     26  C   UNL     1     -13.736 -11.896  21.222  0.00  0.00    +0.005 A 
BRANCH  20  18
ATOM     18  C   UNL     1     -15.706 -10.361  21.337  0.00  0.00    -0.013 C 
ATOM     27  C   UNL     1     -15.951  -8.829  21.503  0.00  0.00    +0.015 C 
ATOM     28  C   UNL     1     -16.075 -11.045  22.690  0.00  0.00    +0.015 C 
ATOM     29  C   UNL     1     -16.787 -10.848  20.316  0.00  0.00    +0.015 C 
ENDBRANCH  20  18
ENDBRANCH  16  19
ENDBRANCH  11  13
TORSDOF 7
ENDMDL
MODEL 4
REMARK VINA RESULT:      -6.4      5.344      8.797
REMARK  Name = 26743294
REMARK  12 active torsions:
REMARK  status: ('A' for Active; 'I' for Inactive)
REMARK    1  A    between atoms: N_4  and  C_17
REMARK    2  A    between atoms: C_6  and  C_12
REMARK    3  A    between atoms: C_7  and  C_11
REMARK    4  A    between atoms: C_11  and  C_13
REMARK    5  A    between atoms: C_12  and  C_14
REMARK    6  A    between atoms: C_16  and  C_19
REMARK    7  A    between atoms: C_17  and  C_21
REMARK    8  A    between atoms: C_17  and  C_22
REMARK    9  A    between atoms: C_18  and  C_20
REMARK   10  A    between atoms: C_18  and  C_27
REMARK   11  A    between atoms: C_18  and  C_28
REMARK   12  A    between atoms: C_18  and  C_29
REMARK                            x       y       z     vdW  Elec       q    Type
REMARK                         _______ _______ _______ _____ _____    ______ ____
ROOT
ATOM     11  C   UNL     1     -11.568   7.003  21.036  0.00  0.00    +0.064 C 
ENDROOT
BRANCH  11   7
ATOM      3  N   UNL     1     -14.149   4.379  22.078  0.00  0.00    -0.316 NA
ATOM      6  C   UNL     1     -14.128   7.068  20.865  0.00  0.00    +0.004 C 
ATOM      7  C   UNL     1     -12.861   6.187  20.967  0.00  0.00    +0.012 C 
ATOM      8  C   UNL     1     -15.372   6.163  20.885  0.00  0.00    +0.019 C 
ATOM      9  C   UNL     1     -12.944   5.206  22.148  0.00  0.00    +0.085 C 
ATOM     10  C   UNL     1     -15.364   5.189  22.063  0.00  0.00    +0.081 C 
ATOM     30  H   UNL     1     -14.173   3.750  22.880  0.00  0.00    +0.122 HD
BRANCH   6  12
ATOM     12  C   UNL     1     -14.225   8.151  21.946  0.00  0.00    +0.099 C 
BRANCH  12  14
ATOM      2  O   UNL     1     -15.213  10.357  22.049  0.00  0.00    -0.276 OA
ATOM      4  N   UNL     1     -14.353   9.585  20.033  0.00  0.00    -0.313 N 
ATOM     14  C   UNL     1     -14.660   9.487  21.383  0.00  0.00    +0.213 C 
ATOM     31  H   UNL     1     -13.840   8.828  19.590  0.00  0.00    +0.149 HD
BRANCH   4  17
ATOM     17  C   UNL     1     -14.657  10.752  19.237  0.00  0.00    +0.067 C 
ATOM     21  C   UNL     1     -14.831  10.365  17.775  0.00  0.00    +0.027 C 
ATOM     22  C   UNL     1     -13.572  11.810  19.403  0.00  0.00    +0.027 C 
ENDBRANCH   4  17
ENDBRANCH  12  14
ENDBRANCH   6  12
ENDBRANCH  11   7
BRANCH  11  13
ATOM      1  O   UNL     1     -11.108   8.095  17.637  0.00  0.00    -0.354 OA
ATOM      5  N   UNL     1     -11.364   7.117  18.590  0.00  0.00    -0.083 NA
ATOM     13  C   UNL     1     -11.331   7.759  19.762  0.00  0.00    +0.085 A 
ATOM     15  C   UNL     1     -11.062   9.130  19.611  0.00  0.00    +0.076 A 
ATOM     16  C   UNL     1     -10.930   9.289  18.257  0.00  0.00    +0.167 A 
BRANCH  16  19
ATOM     19  C   UNL     1     -10.656  10.402  17.395  0.00  0.00    +0.020 A 
ATOM     20  C   UNL     1     -10.123  12.569  15.719  0.00  0.00    -0.042 A 
ATOM     23  C   UNL     1     -11.163  10.420  16.095  0.00  0.00    +0.012 A 
ATOM     24  C   UNL     1      -9.882  11.468  17.856  0.00  0.00    +0.012 A 
ATOM     25  C   UNL     1     -10.897  11.504  15.257  0.00  0.00    +0.005 A 
ATOM     26  C   UNL     1      -9.616  12.550  17.019  0.00  0.00    +0.005 A 
BRANCH  20  18
ATOM     18  C   UNL     1      -9.838  13.726  14.824  0.00  0.00    -0.013 C 
ATOM     27  C   UNL     1      -8.306  13.884  14.573  0.00  0.00    +0.015 C 
ATOM     28  C   UNL     1     -10.353  15.062  15.447  0.00  0.00    +0.015 C 
ATOM     29  C   UNL     1     -10.488  13.653  13.403  0.00  0.00    +0.015 C 
ENDBRANCH  20  18
ENDBRANCH  16  19
ENDBRANCH  11  13
TORSDOF 7
ENDMDL
MODEL 5
REMARK VINA RESULT:      -6.3     18.113     21.499
REMARK  Name = 26743294
REMARK  12 active torsions:
REMARK  status: ('A' for Active; 'I' for Inactive)
REMARK    1  A    between atoms: N_4  and  C_17
REMARK    2  A    between atoms: C_6  and  C_12
REMARK    3  A    between atoms: C_7  and  C_11
REMARK    4  A    between atoms: C_11  and  C_13
REMARK    5  A    between atoms: C_12  and  C_14
REMARK    6  A    between atoms: C_16  and  C_19
REMARK    7  A    between atoms: C_17  and  C_21
REMARK    8  A    between atoms: C_17  and  C_22
REMARK    9  A    between atoms: C_18  and  C_20
REMARK   10  A    between atoms: C_18  and  C_27
REMARK   11  A    between atoms: C_18  and  C_28
REMARK   12  A    between atoms: C_18  and  C_29
REMARK                            x       y       z     vdW  Elec       q    Type
REMARK                         _______ _______ _______ _____ _____    ______ ____
ROOT
ATOM     11  C   UNL     1      -7.083 -11.503  38.842  0.00  0.00    +0.064 C 
ENDROOT
BRANCH  11   7
ATOM      3  N   UNL     1      -5.629 -13.767  36.123  0.00  0.00    -0.316 NA
ATOM      6  C   UNL     1      -7.816 -11.806  36.402  0.00  0.00    +0.004 C 
ATOM      7  C   UNL     1      -6.670 -11.933  37.433  0.00  0.00    +0.012 C 
ATOM      8  C   UNL     1      -7.329 -12.338  35.043  0.00  0.00    +0.019 C 
ATOM      9  C   UNL     1      -6.077 -13.352  37.453  0.00  0.00    +0.085 C 
ATOM     10  C   UNL     1      -6.717 -13.733  35.148  0.00  0.00    +0.081 C 
ATOM     30  H   UNL     1      -5.252 -14.713  36.175  0.00  0.00    +0.122 HD
BRANCH   6  12
ATOM     12  C   UNL     1      -9.117 -12.501  36.824  0.00  0.00    +0.099 C 
BRANCH  12  14
ATOM      2  O   UNL     1     -10.416 -10.464  36.928  0.00  0.00    -0.276 OA
ATOM      4  N   UNL     1     -11.326 -12.347  35.914  0.00  0.00    -0.313 N 
ATOM     14  C   UNL     1     -10.334 -11.638  36.577  0.00  0.00    +0.213 C 
ATOM     31  H   UNL     1     -11.132 -13.300  35.618  0.00  0.00    +0.149 HD
BRANCH   4  17
ATOM     17  C   UNL     1     -12.600 -11.771  35.552  0.00  0.00    +0.067 C 
ATOM     21  C   UNL     1     -13.589 -11.904  36.702  0.00  0.00    +0.027 C 
ATOM     22  C   UNL     1     -13.139 -12.423  34.284  0.00  0.00    +0.027 C 
ENDBRANCH   4  17
ENDBRANCH  12  14
ENDBRANCH   6  12
ENDBRANCH  11   7
BRANCH  11  13
ATOM      1  O   UNL     1      -6.492  -7.953  38.931  0.00  0.00    -0.354 OA
ATOM      5  N   UNL     1      -6.072  -9.266  38.749  0.00  0.00    -0.083 NA
ATOM     13  C   UNL     1      -7.162 -10.009  38.956  0.00  0.00    +0.085 A 
ATOM     15  C   UNL     1      -8.289  -9.228  39.269  0.00  0.00    +0.076 A 
ATOM     16  C   UNL     1      -7.812  -7.944  39.240  0.00  0.00    +0.167 A 
BRANCH  16  19
ATOM     19  C   UNL     1      -8.391  -6.650  39.457  0.00  0.00    +0.020 A 
ATOM     20  C   UNL     1      -9.516  -4.132  39.882  0.00  0.00    -0.042 A 
ATOM     23  C   UNL     1      -9.768  -6.523  39.641  0.00  0.00    +0.012 A 
ATOM     24  C   UNL     1      -7.576  -5.517  39.486  0.00  0.00    +0.012 A 
ATOM     25  C   UNL     1     -10.331  -5.264  39.853  0.00  0.00    +0.005 A 
ATOM     26  C   UNL     1      -8.139  -4.259  39.698  0.00  0.00    +0.005 A 
BRANCH  20  18
ATOM     18  C   UNL     1     -10.117  -2.786  40.109  0.00  0.00    -0.013 C 
ATOM     27  C   UNL     1     -10.449  -2.080  38.757  0.00  0.00    +0.015 C 
ATOM     28  C   UNL     1      -9.141  -1.857  40.897  0.00  0.00    +0.015 C 
ATOM     29  C   UNL     1     -11.452  -2.775  40.925  0.00  0.00    +0.015 C 
ENDBRANCH  20  18
ENDBRANCH  16  19
ENDBRANCH  11  13
TORSDOF 7
ENDMDL
MODEL 6
REMARK VINA RESULT:      -6.3     18.198     21.692
REMARK  Name = 26743294
REMARK  12 active torsions:
REMARK  status: ('A' for Active; 'I' for Inactive)
REMARK    1  A    between atoms: N_4  and  C_17
REMARK    2  A    between atoms: C_6  and  C_12
REMARK    3  A    between atoms: C_7  and  C_11
REMARK    4  A    between atoms: C_11  and  C_13
REMARK    5  A    between atoms: C_12  and  C_14
REMARK    6  A    between atoms: C_16  and  C_19
REMARK    7  A    between atoms: C_17  and  C_21
REMARK    8  A    between atoms: C_17  and  C_22
REMARK    9  A    between atoms: C_18  and  C_20
REMARK   10  A    between atoms: C_18  and  C_27
REMARK   11  A    between atoms: C_18  and  C_28
REMARK   12  A    between atoms: C_18  and  C_29
REMARK                            x       y       z     vdW  Elec       q    Type
REMARK                         _______ _______ _______ _____ _____    ______ ____
ROOT
ATOM     11  C   UNL     1      -6.093 -11.033  38.988  0.00  0.00    +0.064 C 
ENDROOT
BRANCH  11   7
ATOM      3  N   UNL     1      -5.160 -12.595  35.623  0.00  0.00    -0.316 NA
ATOM      6  C   UNL     1      -7.599 -11.689  37.016  0.00  0.00    +0.004 C 
ATOM      7  C   UNL     1      -6.175 -11.303  37.484  0.00  0.00    +0.012 C 
ATOM      8  C   UNL     1      -7.559 -12.021  35.514  0.00  0.00    +0.019 C 
ATOM      9  C   UNL     1      -5.134 -12.354  37.067  0.00  0.00    +0.085 C 
ATOM     10  C   UNL     1      -6.475 -13.040  35.170  0.00  0.00    +0.081 C 
ATOM     30  H   UNL     1      -4.464 -13.302  35.387  0.00  0.00    +0.122 HD
BRANCH   6  12
ATOM     12  C   UNL     1      -8.227 -12.840  37.812  0.00  0.00    +0.099 C 
BRANCH  12  14
ATOM      2  O   UNL     1     -10.495 -13.673  37.919  0.00  0.00    -0.276 OA
ATOM      4  N   UNL     1     -10.117 -11.382  37.995  0.00  0.00    -0.313 N 
ATOM     14  C   UNL     1      -9.731 -12.712  37.913  0.00  0.00    +0.213 C 
ATOM     31  H   UNL     1      -9.398 -10.664  38.041  0.00  0.00    +0.149 HD
BRANCH   4  17
ATOM     17  C   UNL     1     -11.496 -10.964  38.099  0.00  0.00    +0.067 C 
ATOM     21  C   UNL     1     -12.028 -10.548  36.734  0.00  0.00    +0.027 C 
ATOM     22  C   UNL     1     -11.637  -9.835  39.113  0.00  0.00    +0.027 C 
ENDBRANCH   4  17
ENDBRANCH  12  14
ENDBRANCH   6  12
ENDBRANCH  11   7
BRANCH  11  13
ATOM      1  O   UNL     1      -8.673  -8.940  40.377  0.00  0.00    -0.354 OA
ATOM      5  N   UNL     1      -8.041 -10.167  40.210  0.00  0.00    -0.083 NA
ATOM     13  C   UNL     1      -7.013  -9.918  39.394  0.00  0.00    +0.085 A 
ATOM     15  C   UNL     1      -6.947  -8.566  39.016  0.00  0.00    +0.076 A 
ATOM     16  C   UNL     1      -8.012  -7.996  39.662  0.00  0.00    +0.167 A 
BRANCH  16  19
ATOM     19  C   UNL     1      -8.552  -6.669  39.736  0.00  0.00    +0.020 A 
ATOM     20  C   UNL     1      -9.603  -4.088  39.881  0.00  0.00    -0.042 A 
ATOM     23  C   UNL     1      -7.701  -5.565  39.678  0.00  0.00    +0.012 A 
ATOM     24  C   UNL     1      -9.929  -6.482  39.867  0.00  0.00    +0.012 A 
ATOM     25  C   UNL     1      -8.227  -4.274  39.750  0.00  0.00    +0.005 A 
ATOM     26  C   UNL     1     -10.454  -5.193  39.939  0.00  0.00    +0.005 A 
BRANCH  20  18
ATOM     18  C   UNL     1     -10.165  -2.709  39.958  0.00  0.00    -0.013 C 
ATOM     27  C   UNL     1      -9.213  -1.754  40.741  0.00  0.00    +0.015 C 
ATOM     28  C   UNL     1     -11.544  -2.701  40.688  0.00  0.00    +0.015 C 
ATOM     29  C   UNL     1     -10.419  -2.009  38.581  0.00  0.00    +0.015 C 
ENDBRANCH  20  18
ENDBRANCH  16  19
ENDBRANCH  11  13
TORSDOF 7
ENDMDL
MODEL 7
REMARK VINA RESULT:      -6.2     17.778     20.724
REMARK  Name = 26743294
REMARK  12 active torsions:
REMARK  status: ('A' for Active; 'I' for Inactive)
REMARK    1  A    between atoms: N_4  and  C_17
REMARK    2  A    between atoms: C_6  and  C_12
REMARK    3  A    between atoms: C_7  and  C_11
REMARK    4  A    between atoms: C_11  and  C_13
REMARK    5  A    between atoms: C_12  and  C_14
REMARK    6  A    between atoms: C_16  and  C_19
REMARK    7  A    between atoms: C_17  and  C_21
REMARK    8  A    between atoms: C_17  and  C_22
REMARK    9  A    between atoms: C_18  and  C_20
REMARK   10  A    between atoms: C_18  and  C_27
REMARK   11  A    between atoms: C_18  and  C_28
REMARK   12  A    between atoms: C_18  and  C_29
REMARK                            x       y       z     vdW  Elec       q    Type
REMARK                         _______ _______ _______ _____ _____    ______ ____
ROOT
ATOM     11  C   UNL     1      -4.152 -10.917  17.281  0.00  0.00    +0.064 C 
ENDROOT
BRANCH  11   7
ATOM      3  N   UNL     1      -1.435  -9.937  14.773  0.00  0.00    -0.316 NA
ATOM      6  C   UNL     1      -4.150 -11.093  14.721  0.00  0.00    +0.004 C 
ATOM      7  C   UNL     1      -3.562 -10.395  15.970  0.00  0.00    +0.012 C 
ATOM      8  C   UNL     1      -3.436 -10.560  13.466  0.00  0.00    +0.019 C 
ATOM      9  C   UNL     1      -2.027 -10.477  15.998  0.00  0.00    +0.085 C 
ATOM     10  C   UNL     1      -1.915 -10.637  13.584  0.00  0.00    +0.081 C 
ATOM     30  H   UNL     1      -0.420 -10.017  14.825  0.00  0.00    +0.122 HD
BRANCH   6  12
ATOM     12  C   UNL     1      -4.088 -12.624  14.775  0.00  0.00    +0.099 C 
BRANCH  12  14
ATOM      2  O   UNL     1      -5.605 -14.422  14.213  0.00  0.00    -0.276 OA
ATOM      4  N   UNL     1      -6.466 -12.361  14.851  0.00  0.00    -0.313 N 
ATOM     14  C   UNL     1      -5.446 -13.260  14.575  0.00  0.00    +0.213 C 
ATOM     31  H   UNL     1      -6.225 -11.437  15.201  0.00  0.00    +0.149 HD
BRANCH   4  17
ATOM     17  C   UNL     1      -7.867 -12.697  14.741  0.00  0.00    +0.067 C 
ATOM     21  C   UNL     1      -8.693 -11.446  14.472  0.00  0.00    +0.027 C 
ATOM     22  C   UNL     1      -8.345 -13.414  15.999  0.00  0.00    +0.027 C 
ENDBRANCH   4  17
ENDBRANCH  12  14
ENDBRANCH   6  12
ENDBRANCH  11   7
BRANCH  11  13
ATOM      1  O   UNL     1      -7.428  -9.440  17.064  0.00  0.00    -0.354 OA
ATOM      5  N   UNL     1      -6.092  -9.528  16.693  0.00  0.00    -0.083 NA
ATOM     13  C   UNL     1      -5.596 -10.530  17.423  0.00  0.00    +0.085 A 
ATOM     15  C   UNL     1      -6.562 -11.107  18.264  0.00  0.00    +0.076 A 
ATOM     16  C   UNL     1      -7.696 -10.384  18.000  0.00  0.00    +0.167 A 
BRANCH  16  19
ATOM     19  C   UNL     1      -9.046 -10.415  18.484  0.00  0.00    +0.020 A 
ATOM     20  C   UNL     1     -11.673 -10.477  19.424  0.00  0.00    -0.042 A 
ATOM     23  C   UNL     1     -10.032  -9.658  17.850  0.00  0.00    +0.012 A 
ATOM     24  C   UNL     1      -9.374 -11.204  19.588  0.00  0.00    +0.012 A 
ATOM     25  C   UNL     1     -11.345  -9.689  18.320  0.00  0.00    +0.005 A 
ATOM     26  C   UNL     1     -10.686 -11.234  20.057  0.00  0.00    +0.005 A 
BRANCH  20  18
ATOM     18  C   UNL     1     -13.076 -10.510  19.926  0.00  0.00    -0.013 C 
ATOM     27  C   UNL     1     -13.350 -11.805  20.753  0.00  0.00    +0.015 C 
ATOM     28  C   UNL     1     -14.099 -10.479  18.748  0.00  0.00    +0.015 C 
ATOM     29  C   UNL     1     -13.483  -9.324  20.862  0.00  0.00    +0.015 C 
ENDBRANCH  20  18
ENDBRANCH  16  19
ENDBRANCH  11  13
TORSDOF 7
ENDMDL
MODEL 8
REMARK VINA RESULT:      -6.2     17.614     19.516
REMARK  Name = 26743294
REMARK  12 active torsions:
REMARK  status: ('A' for Active; 'I' for Inactive)
REMARK    1  A    between atoms: N_4  and  C_17
REMARK    2  A    between atoms: C_6  and  C_12
REMARK    3  A    between atoms: C_7  and  C_11
REMARK    4  A    between atoms: C_11  and  C_13
REMARK    5  A    between atoms: C_12  and  C_14
REMARK    6  A    between atoms: C_16  and  C_19
REMARK    7  A    between atoms: C_17  and  C_21
REMARK    8  A    between atoms: C_17  and  C_22
REMARK    9  A    between atoms: C_18  and  C_20
REMARK   10  A    between atoms: C_18  and  C_27
REMARK   11  A    between atoms: C_18  and  C_28
REMARK   12  A    between atoms: C_18  and  C_29
REMARK                            x       y       z     vdW  Elec       q    Type
REMARK                         _______ _______ _______ _____ _____    ______ ____
ROOT
ATOM     11  C   UNL     1      -4.850 -10.693  17.854  0.00  0.00    +0.064 C 
ENDROOT
BRANCH  11   7
ATOM      3  N   UNL     1      -2.122 -11.518  15.303  0.00  0.00    -0.316 NA
ATOM      6  C   UNL     1      -4.905 -12.320  15.871  0.00  0.00    +0.004 C 
ATOM      7  C   UNL     1      -4.252 -11.065  16.497  0.00  0.00    +0.012 C 
ATOM      8  C   UNL     1      -4.182 -12.659  14.556  0.00  0.00    +0.019 C 
ATOM      9  C   UNL     1      -2.724 -11.210  16.601  0.00  0.00    +0.085 C 
ATOM     10  C   UNL     1      -2.666 -12.747  14.730  0.00  0.00    +0.081 C 
ATOM     30  H   UNL     1      -1.113 -11.616  15.414  0.00  0.00    +0.122 HD
BRANCH   6  12
ATOM     12  C   UNL     1      -4.938 -13.537  16.804  0.00  0.00    +0.099 C 
BRANCH  12  14
ATOM      2  O   UNL     1      -6.706 -15.068  16.187  0.00  0.00    -0.276 OA
ATOM      4  N   UNL     1      -7.072 -13.529  17.888  0.00  0.00    -0.313 N 
ATOM     14  C   UNL     1      -6.319 -14.147  16.901  0.00  0.00    +0.213 C 
ATOM     31  H   UNL     1      -6.635 -12.813  18.463  0.00  0.00    +0.149 HD
BRANCH   4  17
ATOM     17  C   UNL     1      -8.432 -13.908  18.198  0.00  0.00    +0.067 C 
ATOM     21  C   UNL     1      -9.407 -13.174  17.287  0.00  0.00    +0.027 C 
ATOM     22  C   UNL     1      -8.740 -13.639  19.667  0.00  0.00    +0.027 C 
ENDBRANCH   4  17
ENDBRANCH  12  14
ENDBRANCH   6  12
ENDBRANCH  11   7
BRANCH  11  13
ATOM      1  O   UNL     1      -8.352  -9.948  18.235  0.00  0.00    -0.354 OA
ATOM      5  N   UNL     1      -7.160 -10.513  18.673  0.00  0.00    -0.083 NA
ATOM     13  C   UNL     1      -6.271 -10.230  17.717  0.00  0.00    +0.085 A 
ATOM     15  C   UNL     1      -6.839  -9.495  16.662  0.00  0.00    +0.076 A 
ATOM     16  C   UNL     1      -8.148  -9.345  17.037  0.00  0.00    +0.167 A 
BRANCH  16  19
ATOM     19  C   UNL     1      -9.297  -8.713  16.456  0.00  0.00    +0.020 A 
ATOM     20  C   UNL     1     -11.531  -7.482  15.324  0.00  0.00    -0.042 A 
ATOM     23  C   UNL     1     -10.007  -7.755  17.180  0.00  0.00    +0.012 A 
ATOM     24  C   UNL     1      -9.704  -9.056  15.166  0.00  0.00    +0.012 A 
ATOM     25  C   UNL     1     -11.125  -7.139  16.614  0.00  0.00    +0.005 A 
ATOM     26  C   UNL     1     -10.821  -8.441  14.601  0.00  0.00    +0.005 A 
BRANCH  20  18
ATOM     18  C   UNL     1     -12.725  -6.825  14.720  0.00  0.00    -0.013 C 
ATOM     27  C   UNL     1     -13.226  -7.606  13.465  0.00  0.00    +0.015 C 
ATOM     28  C   UNL     1     -12.398  -5.368  14.266  0.00  0.00    +0.015 C 
ATOM     29  C   UNL     1     -13.971  -6.699  15.658  0.00  0.00    +0.015 C 
ENDBRANCH  20  18
ENDBRANCH  16  19
ENDBRANCH  11  13
TORSDOF 7
ENDMDL
MODEL 9
REMARK VINA RESULT:      -6.1     29.703     34.695
REMARK  Name = 26743294
REMARK  12 active torsions:
REMARK  status: ('A' for Active; 'I' for Inactive)
REMARK    1  A    between atoms: N_4  and  C_17
REMARK    2  A    between atoms: C_6  and  C_12
REMARK    3  A    between atoms: C_7  and  C_11
REMARK    4  A    between atoms: C_11  and  C_13
REMARK    5  A    between atoms: C_12  and  C_14
REMARK    6  A    between atoms: C_16  and  C_19
REMARK    7  A    between atoms: C_17  and  C_21
REMARK    8  A    between atoms: C_17  and  C_22
REMARK    9  A    between atoms: C_18  and  C_20
REMARK   10  A    between atoms: C_18  and  C_27
REMARK   11  A    between atoms: C_18  and  C_28
REMARK   12  A    between atoms: C_18  and  C_29
REMARK                            x       y       z     vdW  Elec       q    Type
REMARK                         _______ _______ _______ _____ _____    ______ ____
ROOT
ATOM     11  C   UNL     1      11.466   8.254   5.906  0.00  0.00    +0.064 C 
ENDROOT
BRANCH  11   7
ATOM      3  N   UNL     1      10.951   5.116   8.032  0.00  0.00    -0.316 NA
ATOM      6  C   UNL     1       9.998   6.197   5.457  0.00  0.00    +0.004 C 
ATOM      7  C   UNL     1      11.226   6.773   6.203  0.00  0.00    +0.012 C 
ATOM      8  C   UNL     1       9.792   4.734   5.885  0.00  0.00    +0.019 C 
ATOM      9  C   UNL     1      11.133   6.534   7.720  0.00  0.00    +0.085 C 
ATOM     10  C   UNL     1       9.751   4.571   7.403  0.00  0.00    +0.081 C 
ATOM     30  H   UNL     1      10.886   5.000   9.043  0.00  0.00    +0.122 HD
BRANCH   6  12
ATOM     12  C   UNL     1       8.712   7.009   5.654  0.00  0.00    +0.099 C 
BRANCH  12  14
ATOM      2  O   UNL     1       8.615   7.367   3.263  0.00  0.00    -0.276 OA
ATOM      4  N   UNL     1       7.499   8.830   4.682  0.00  0.00    -0.313 N 
ATOM     14  C   UNL     1       8.289   7.727   4.391  0.00  0.00    +0.213 C 
ATOM     31  H   UNL     1       7.240   9.007   5.649  0.00  0.00    +0.149 HD
BRANCH   4  17
ATOM     17  C   UNL     1       6.956   9.703   3.666  0.00  0.00    +0.067 C 
ATOM     21  C   UNL     1       8.010  10.700   3.205  0.00  0.00    +0.027 C 
ATOM     22  C   UNL     1       5.712  10.415   4.183  0.00  0.00    +0.027 C 
ENDBRANCH   4  17
ENDBRANCH  12  14
ENDBRANCH   6  12
ENDBRANCH  11   7
BRANCH  11  13
ATOM      1  O   UNL     1      14.456   9.261   4.171  0.00  0.00    -0.354 OA
ATOM      5  N   UNL     1      13.077   9.247   4.338  0.00  0.00    -0.083 NA
ATOM     13  C   UNL     1      12.866   8.493   5.420  0.00  0.00    +0.085 A 
ATOM     15  C   UNL     1      14.064   8.009   5.973  0.00  0.00    +0.076 A 
ATOM     16  C   UNL     1      15.033   8.520   5.151  0.00  0.00    +0.167 A 
BRANCH  16  19
ATOM     19  C   UNL     1      16.464   8.441   5.109  0.00  0.00    +0.020 A 
ATOM     20  C   UNL     1      19.249   8.288   5.029  0.00  0.00    -0.042 A 
ATOM     23  C   UNL     1      17.108   8.041   3.938  0.00  0.00    +0.012 A 
ATOM     24  C   UNL     1      17.214   8.765   6.241  0.00  0.00    +0.012 A 
ATOM     25  C   UNL     1      18.500   7.964   3.897  0.00  0.00    +0.005 A 
ATOM     26  C   UNL     1      18.606   8.688   6.201  0.00  0.00    +0.005 A 
BRANCH  20  18
ATOM     18  C   UNL     1      20.737   8.207   4.986  0.00  0.00    -0.013 C 
ATOM     27  C   UNL     1      21.366   8.629   6.350  0.00  0.00    +0.015 C 
ATOM     28  C   UNL     1      21.324   9.147   3.887  0.00  0.00    +0.015 C 
ATOM     29  C   UNL     1      21.324   6.789   4.677  0.00  0.00    +0.015 C 
ENDBRANCH  20  18
ENDBRANCH  16  19
ENDBRANCH  11  13
TORSDOF 7
ENDMDL
MODEL 10
REMARK VINA RESULT:      -6.1     18.078     20.001
REMARK  Name = 26743294
REMARK  12 active torsions:
REMARK  status: ('A' for Active; 'I' for Inactive)
REMARK    1  A    between atoms: N_4  and  C_17
REMARK    2  A    between atoms: C_6  and  C_12
REMARK    3  A    between atoms: C_7  and  C_11
REMARK    4  A    between atoms: C_11  and  C_13
REMARK    5  A    between atoms: C_12  and  C_14
REMARK    6  A    between atoms: C_16  and  C_19
REMARK    7  A    between atoms: C_17  and  C_21
REMARK    8  A    between atoms: C_17  and  C_22
REMARK    9  A    between atoms: C_18  and  C_20
REMARK   10  A    between atoms: C_18  and  C_27
REMARK   11  A    between atoms: C_18  and  C_28
REMARK   12  A    between atoms: C_18  and  C_29
REMARK                            x       y       z     vdW  Elec       q    Type
REMARK                         _______ _______ _______ _____ _____    ______ ____
ROOT
ATOM     11  C   UNL     1      -4.587 -10.804  17.371  0.00  0.00    +0.064 C 
ENDROOT
BRANCH  11   7
ATOM      3  N   UNL     1      -1.598 -10.066  15.100  0.00  0.00    -0.316 NA
ATOM      6  C   UNL     1      -4.282 -11.271  14.866  0.00  0.00    +0.004 C 
ATOM      7  C   UNL     1      -3.849 -10.424  16.086  0.00  0.00    +0.012 C 
ATOM      8  C   UNL     1      -3.429 -10.872  13.650  0.00  0.00    +0.019 C 
ATOM      9  C   UNL     1      -2.327 -10.473  16.302  0.00  0.00    +0.085 C 
ATOM     10  C   UNL     1      -1.931 -10.906  13.952  0.00  0.00    +0.081 C 
ATOM     30  H   UNL     1      -0.596 -10.120  15.279  0.00  0.00    +0.122 HD
BRANCH   6  12
ATOM     12  C   UNL     1      -4.218 -12.785  15.103  0.00  0.00    +0.099 C 
BRANCH  12  14
ATOM      2  O   UNL     1      -5.627 -14.693  14.626  0.00  0.00    -0.276 OA
ATOM      4  N   UNL     1      -6.542 -12.558  14.575  0.00  0.00    -0.313 N 
ATOM     14  C   UNL     1      -5.516 -13.476  14.746  0.00  0.00    +0.213 C 
ATOM     31  H   UNL     1      -6.356 -11.575  14.755  0.00  0.00    +0.149 HD
BRANCH   4  17
ATOM     17  C   UNL     1      -7.892 -12.937  14.226  0.00  0.00    +0.067 C 
ATOM     21  C   UNL     1      -8.393 -12.101  13.057  0.00  0.00    +0.027 C 
ATOM     22  C   UNL     1      -8.813 -12.805  15.434  0.00  0.00    +0.027 C 
ENDBRANCH   4  17
ENDBRANCH  12  14
ENDBRANCH   6  12
ENDBRANCH  11   7
BRANCH  11  13
ATOM      1  O   UNL     1      -8.115 -10.299  17.880  0.00  0.00    -0.354 OA
ATOM      5  N   UNL     1      -6.893 -10.868  18.217  0.00  0.00    -0.083 NA
ATOM     13  C   UNL     1      -6.029 -10.395  17.314  0.00  0.00    +0.085 A 
ATOM     15  C   UNL     1      -6.643  -9.530  16.392  0.00  0.00    +0.076 A 
ATOM     16  C   UNL     1      -7.953  -9.504  16.792  0.00  0.00    +0.167 A 
BRANCH  16  19
ATOM     19  C   UNL     1      -9.137  -8.844  16.323  0.00  0.00    +0.020 A 
ATOM     20  C   UNL     1     -11.440  -7.559  15.411  0.00  0.00    -0.042 A 
ATOM     23  C   UNL     1      -9.780  -7.906  17.132  0.00  0.00    +0.012 A 
ATOM     24  C   UNL     1      -9.647  -9.139  15.058  0.00  0.00    +0.012 A 
ATOM     25  C   UNL     1     -10.931  -7.263  16.676  0.00  0.00    +0.005 A 
ATOM     26  C   UNL     1     -10.797  -8.497  14.602  0.00  0.00    +0.005 A 
BRANCH  20  18
ATOM     18  C   UNL     1     -12.670  -6.872  14.923  0.00  0.00    -0.013 C 
ATOM     27  C   UNL     1     -13.736  -6.749  16.055  0.00  0.00    +0.015 C 
ATOM     28  C   UNL     1     -13.325  -7.656  13.743  0.00  0.00    +0.015 C 
ATOM     29  C   UNL     1     -12.460  -5.416  14.388  0.00  0.00    +0.015 C 
ENDBRANCH  20  18
ENDBRANCH  16  19
ENDBRANCH  11  13
TORSDOF 7
ENDMDL
