MODEL 1
REMARK VINA RESULT:      -6.2      0.000      0.000
REMARK  Name = 75536908
REMARK  3 active torsions:
REMARK  status: ('A' for Active; 'I' for Inactive)
REMARK    1  A    between atoms: O_3  and  C_15
REMARK    2  A    between atoms: O_3  and  C_18
REMARK    3  A    between atoms: C_7  and  C_12
REMARK                            x       y       z     vdW  Elec       q    Type
REMARK                         _______ _______ _______ _____ _____    ______ ____
ROOT
ATOM      1  O   UNL     1      11.094   7.147  22.319  0.00  0.00    -0.375 OA
ATOM      2  O   UNL     1      13.883   7.308  18.281  0.00  0.00    -0.275 OA
ATOM      4  N   UNL     1      12.954   8.415  20.111  0.00  0.00    -0.295 N 
ATOM     12  C   UNL     1      13.363   8.311  18.773  0.00  0.00    +0.219 C 
ATOM     13  C   UNL     1      12.352   9.634  20.661  0.00  0.00    +0.154 C 
ATOM     14  C   UNL     1      13.150   7.267  21.000  0.00  0.00    +0.136 C 
ATOM     15  C   UNL     1      11.626   9.510  22.004  0.00  0.00    +0.218 C 
ATOM     16  C   UNL     1      11.836   6.543  21.265  0.00  0.00    +0.179 C 
ATOM     17  C   UNL     1      10.553   8.425  22.005  0.00  0.00    +0.206 C 
ENDROOT
BRANCH  12   7
ATOM      7  C   UNL     1      13.130   9.514  17.910  0.00  0.00    +0.075 C 
ATOM      8  C   UNL     1      12.022   9.228  16.890  0.00  0.00    +0.013 C 
ATOM      9  C   UNL     1      14.383   9.847  17.101  0.00  0.00    +0.013 C 
ATOM     10  C   UNL     1      12.637   9.504  15.521  0.00  0.00    +0.001 C 
ATOM     11  C   UNL     1      14.122   9.253  15.724  0.00  0.00    +0.001 C 
ENDBRANCH  12   7
BRANCH  15   3
ATOM      3  O   UNL     1      10.984  10.758  22.268  0.00  0.00    -0.468 OA
BRANCH   3  18
ATOM      5  N   UNL     1      10.452  11.759  24.298  0.00  0.00    -0.219 NA
ATOM      6  N   UNL     1      13.158  12.404  24.656  0.00  0.00    -0.256 NA
ATOM     18  C   UNL     1      11.390  11.428  23.390  0.00  0.00    +0.234 A 
ATOM     19  C   UNL     1      12.720  11.745  23.565  0.00  0.00    +0.177 A 
ATOM     20  C   UNL     1      10.890  12.418  25.390  0.00  0.00    +0.134 A 
ATOM     21  C   UNL     1      12.219  12.735  25.565  0.00  0.00    +0.130 A 
ENDBRANCH   3  18
ENDBRANCH  15   3
TORSDOF 3
ENDMDL
MODEL 2
REMARK VINA RESULT:      -5.9      1.894      6.546
REMARK  Name = 75536908
REMARK  3 active torsions:
REMARK  status: ('A' for Active; 'I' for Inactive)
REMARK    1  A    between atoms: O_3  and  C_15
REMARK    2  A    between atoms: O_3  and  C_18
REMARK    3  A    between atoms: C_7  and  C_12
REMARK                            x       y       z     vdW  Elec       q    Type
REMARK                         _______ _______ _______ _____ _____    ______ ____
ROOT
ATOM      1  O   UNL     1      11.981   6.229  20.609  0.00  0.00    -0.375 OA
ATOM      2  O   UNL     1      10.421  10.193  23.050  0.00  0.00    -0.275 OA
ATOM      4  N   UNL     1      11.622   9.292  21.266  0.00  0.00    -0.295 N 
ATOM     12  C   UNL     1      11.399  10.214  22.299  0.00  0.00    +0.219 C 
ATOM     13  C   UNL     1      12.792   9.361  20.385  0.00  0.00    +0.154 C 
ATOM     14  C   UNL     1      10.640   8.227  21.046  0.00  0.00    +0.136 C 
ATOM     15  C   UNL     1      13.112   8.118  19.550  0.00  0.00    +0.218 C 
ATOM     16  C   UNL     1      11.153   6.888  21.560  0.00  0.00    +0.179 C 
ATOM     17  C   UNL     1      13.243   6.851  20.390  0.00  0.00    +0.206 C 
ENDROOT
BRANCH  12   7
ATOM      7  C   UNL     1      12.440  11.275  22.482  0.00  0.00    +0.075 C 
ATOM      8  C   UNL     1      12.613  11.600  23.970  0.00  0.00    +0.013 C 
ATOM      9  C   UNL     1      12.008  12.576  21.806  0.00  0.00    +0.013 C 
ATOM     10  C   UNL     1      12.375  13.101  24.098  0.00  0.00    +0.001 C 
ATOM     11  C   UNL     1      11.453  13.431  22.937  0.00  0.00    +0.001 C 
ENDBRANCH  12   7
BRANCH  15   3
ATOM      3  O   UNL     1      14.365   8.340  18.900  0.00  0.00    -0.468 OA
BRANCH   3  18
ATOM      5  N   UNL     1      14.732  10.228  17.595  0.00  0.00    -0.219 NA
ATOM      6  N   UNL     1      13.796   8.825  15.354  0.00  0.00    -0.256 NA
ATOM     18  C   UNL     1      14.318   8.949  17.677  0.00  0.00    +0.234 A 
ATOM     19  C   UNL     1      13.858   8.259  16.576  0.00  0.00    +0.177 A 
ATOM     20  C   UNL     1      14.671  10.795  16.373  0.00  0.00    +0.134 A 
ATOM     21  C   UNL     1      14.211  10.105  15.273  0.00  0.00    +0.130 A 
ENDBRANCH   3  18
ENDBRANCH  15   3
TORSDOF 3
ENDMDL
MODEL 3
REMARK VINA RESULT:      -5.6     26.501     28.400
REMARK  Name = 75536908
REMARK  3 active torsions:
REMARK  status: ('A' for Active; 'I' for Inactive)
REMARK    1  A    between atoms: O_3  and  C_15
REMARK    2  A    between atoms: O_3  and  C_18
REMARK    3  A    between atoms: C_7  and  C_12
REMARK                            x       y       z     vdW  Elec       q    Type
REMARK                         _______ _______ _______ _____ _____    ______ ____
ROOT
ATOM      1  O   UNL     1     -18.093   5.044  22.601  0.00  0.00    -0.375 OA
ATOM      2  O   UNL     1     -14.872   7.259  19.628  0.00  0.00    -0.275 OA
ATOM      4  N   UNL     1     -15.279   5.775  21.381  0.00  0.00    -0.295 N 
ATOM     12  C   UNL     1     -14.553   6.774  20.717  0.00  0.00    +0.219 C 
ATOM     13  C   UNL     1     -14.855   5.215  22.668  0.00  0.00    +0.154 C 
ATOM     14  C   UNL     1     -16.500   5.256  20.758  0.00  0.00    +0.136 C 
ATOM     15  C   UNL     1     -15.894   4.411  23.457  0.00  0.00    +0.218 C 
ATOM     16  C   UNL     1     -17.745   5.800  21.446  0.00  0.00    +0.179 C 
ATOM     17  C   UNL     1     -17.191   5.181  23.693  0.00  0.00    +0.206 C 
ENDROOT
BRANCH  12   7
ATOM      7  C   UNL     1     -13.319   7.271  21.405  0.00  0.00    +0.075 C 
ATOM      8  C   UNL     1     -13.079   8.746  21.067  0.00  0.00    +0.013 C 
ATOM      9  C   UNL     1     -12.086   6.512  20.914  0.00  0.00    +0.013 C 
ATOM     10  C   UNL     1     -11.671   8.815  20.482  0.00  0.00    +0.001 C 
ATOM     11  C   UNL     1     -11.450   7.436  19.886  0.00  0.00    +0.001 C 
ENDBRANCH  12   7
BRANCH  15   3
ATOM      3  O   UNL     1     -15.331   4.105  24.733  0.00  0.00    -0.468 OA
BRANCH   3  18
ATOM      5  N   UNL     1     -16.225   1.959  24.767  0.00  0.00    -0.219 NA
ATOM      6  N   UNL     1     -16.779   2.266  27.499  0.00  0.00    -0.256 NA
ATOM     18  C   UNL     1     -15.924   3.091  25.433  0.00  0.00    +0.234 A 
ATOM     19  C   UNL     1     -16.196   3.242  26.776  0.00  0.00    +0.177 A 
ATOM     20  C   UNL     1     -16.808   0.982  25.490  0.00  0.00    +0.134 A 
ATOM     21  C   UNL     1     -17.080   1.133  26.833  0.00  0.00    +0.130 A 
ENDBRANCH   3  18
ENDBRANCH  15   3
TORSDOF 3
ENDMDL
MODEL 4
REMARK VINA RESULT:      -5.6     25.925     28.451
REMARK  Name = 75536908
REMARK  3 active torsions:
REMARK  status: ('A' for Active; 'I' for Inactive)
REMARK    1  A    between atoms: O_3  and  C_15
REMARK    2  A    between atoms: O_3  and  C_18
REMARK    3  A    between atoms: C_7  and  C_12
REMARK                            x       y       z     vdW  Elec       q    Type
REMARK                         _______ _______ _______ _____ _____    ______ ____
ROOT
ATOM      1  O   UNL     1      -5.956 -12.112  19.331  0.00  0.00    -0.375 OA
ATOM      2  O   UNL     1     -10.263 -10.435  17.674  0.00  0.00    -0.275 OA
ATOM      4  N   UNL     1      -7.973 -10.725  17.344  0.00  0.00    -0.295 N 
ATOM     12  C   UNL     1      -9.180 -10.015  17.261  0.00  0.00    +0.219 C 
ATOM     13  C   UNL     1      -6.708 -10.194  16.826  0.00  0.00    +0.154 C 
ATOM     14  C   UNL     1      -7.977 -12.056  17.956  0.00  0.00    +0.136 C 
ATOM     15  C   UNL     1      -5.420 -10.882  17.289  0.00  0.00    +0.218 C 
ATOM     16  C   UNL     1      -7.376 -12.023  19.355  0.00  0.00    +0.179 C 
ATOM     17  C   UNL     1      -5.299 -10.963  18.809  0.00  0.00    +0.206 C 
ENDROOT
BRANCH  12   7
ATOM      7  C   UNL     1      -9.112  -8.657  16.633  0.00  0.00    +0.075 C 
ATOM      8  C   UNL     1     -10.044  -7.685  17.366  0.00  0.00    +0.013 C 
ATOM      9  C   UNL     1      -9.599  -8.708  15.185  0.00  0.00    +0.013 C 
ATOM     10  C   UNL     1     -10.981  -7.124  16.301  0.00  0.00    +0.001 C 
ATOM     11  C   UNL     1     -11.038  -8.215  15.245  0.00  0.00    +0.001 C 
ENDBRANCH  12   7
BRANCH  15   3
ATOM      3  O   UNL     1      -4.318 -10.115  16.805  0.00  0.00    -0.468 OA
BRANCH   3  18
ATOM      5  N   UNL     1      -2.119 -10.375  16.098  0.00  0.00    -0.219 NA
ATOM      6  N   UNL     1      -2.927 -12.504  14.461  0.00  0.00    -0.256 NA
ATOM     18  C   UNL     1      -3.402 -10.780  16.036  0.00  0.00    +0.234 A 
ATOM     19  C   UNL     1      -3.800 -11.825  15.232  0.00  0.00    +0.177 A 
ATOM     20  C   UNL     1      -1.245 -11.053  15.327  0.00  0.00    +0.134 A 
ATOM     21  C   UNL     1      -1.643 -12.099  14.523  0.00  0.00    +0.130 A 
ENDBRANCH   3  18
ENDBRANCH  15   3
TORSDOF 3
ENDMDL
MODEL 5
REMARK VINA RESULT:      -5.3     26.443     27.416
REMARK  Name = 75536908
REMARK  3 active torsions:
REMARK  status: ('A' for Active; 'I' for Inactive)
REMARK    1  A    between atoms: O_3  and  C_15
REMARK    2  A    between atoms: O_3  and  C_18
REMARK    3  A    between atoms: C_7  and  C_12
REMARK                            x       y       z     vdW  Elec       q    Type
REMARK                         _______ _______ _______ _____ _____    ______ ____
ROOT
ATOM      1  O   UNL     1      -4.026 -13.708  15.140  0.00  0.00    -0.375 OA
ATOM      2  O   UNL     1      -3.332 -11.944  10.611  0.00  0.00    -0.275 OA
ATOM      4  N   UNL     1      -3.125 -11.663  12.916  0.00  0.00    -0.295 N 
ATOM     12  C   UNL     1      -3.377 -11.221  11.609  0.00  0.00    +0.219 C 
ATOM     13  C   UNL     1      -3.174 -10.766  14.076  0.00  0.00    +0.154 C 
ATOM     14  C   UNL     1      -2.783 -13.071  13.133  0.00  0.00    +0.136 C 
ATOM     15  C   UNL     1      -3.241 -11.417  15.460  0.00  0.00    +0.218 C 
ATOM     16  C   UNL     1      -3.957 -13.840  13.725  0.00  0.00    +0.179 C 
ATOM     17  C   UNL     1      -4.391 -12.411  15.598  0.00  0.00    +0.206 C 
ENDROOT
BRANCH  12   7
ATOM      7  C   UNL     1      -3.729  -9.774  11.450  0.00  0.00    +0.075 C 
ATOM      8  C   UNL     1      -5.235  -9.617  11.209  0.00  0.00    +0.013 C 
ATOM      9  C   UNL     1      -3.034  -9.182  10.224  0.00  0.00    +0.013 C 
ATOM     10  C   UNL     1      -5.368  -8.847   9.899  0.00  0.00    +0.001 C 
ATOM     11  C   UNL     1      -4.099  -9.190   9.137  0.00  0.00    +0.001 C 
ENDBRANCH  12   7
BRANCH  15   3
ATOM      3  O   UNL     1      -3.446 -10.380  16.420  0.00  0.00    -0.468 OA
BRANCH   3  18
ATOM      5  N   UNL     1      -5.613  -9.574  16.185  0.00  0.00    -0.219 NA
ATOM      6  N   UNL     1      -6.271 -10.702  18.667  0.00  0.00    -0.256 NA
ATOM     18  C   UNL     1      -4.712 -10.252  16.921  0.00  0.00    +0.234 A 
ATOM     19  C   UNL     1      -5.035 -10.806  18.140  0.00  0.00    +0.177 A 
ATOM     20  C   UNL     1      -6.850  -9.469  16.710  0.00  0.00    +0.134 A 
ATOM     21  C   UNL     1      -7.173 -10.023  17.930  0.00  0.00    +0.130 A 
ENDBRANCH   3  18
ENDBRANCH  15   3
TORSDOF 3
ENDMDL
MODEL 6
REMARK VINA RESULT:      -5.2     27.878     29.793
REMARK  Name = 75536908
REMARK  3 active torsions:
REMARK  status: ('A' for Active; 'I' for Inactive)
REMARK    1  A    between atoms: O_3  and  C_15
REMARK    2  A    between atoms: O_3  and  C_18
REMARK    3  A    between atoms: C_7  and  C_12
REMARK                            x       y       z     vdW  Elec       q    Type
REMARK                         _______ _______ _______ _____ _____    ______ ____
ROOT
ATOM      1  O   UNL     1     -11.885 -11.122  18.146  0.00  0.00    -0.375 OA
ATOM      2  O   UNL     1      -7.526 -12.039  20.211  0.00  0.00    -0.275 OA
ATOM      4  N   UNL     1      -8.800 -10.793  18.706  0.00  0.00    -0.295 N 
ATOM     12  C   UNL     1      -7.643 -11.467  19.125  0.00  0.00    +0.219 C 
ATOM     13  C   UNL     1      -8.893 -10.113  17.411  0.00  0.00    +0.154 C 
ATOM     14  C   UNL     1      -9.957 -10.753  19.604  0.00  0.00    +0.136 C 
ATOM     15  C   UNL     1     -10.293  -9.735  16.918  0.00  0.00    +0.218 C 
ATOM     16  C   UNL     1     -11.050 -11.706  19.140  0.00  0.00    +0.179 C 
ATOM     17  C   UNL     1     -11.255 -10.919  16.887  0.00  0.00    +0.206 C 
ENDROOT
BRANCH  12   7
ATOM      7  C   UNL     1      -6.496 -11.482  18.161  0.00  0.00    +0.075 C 
ATOM      8  C   UNL     1      -6.063 -12.924  17.873  0.00  0.00    +0.013 C 
ATOM      9  C   UNL     1      -5.277 -10.781  18.764  0.00  0.00    +0.013 C 
ATOM     10  C   UNL     1      -4.579 -12.990  18.220  0.00  0.00    +0.001 C 
ATOM     11  C   UNL     1      -4.397 -11.912  19.275  0.00  0.00    +0.001 C 
ENDBRANCH  12   7
BRANCH  15   3
ATOM      3  O   UNL     1     -10.167  -9.240  15.585  0.00  0.00    -0.468 OA
BRANCH   3  18
ATOM      5  N   UNL     1     -11.664  -8.052  14.261  0.00  0.00    -0.219 NA
ATOM      6  N   UNL     1     -11.202  -5.776  15.834  0.00  0.00    -0.256 NA
ATOM     18  C   UNL     1     -10.813  -8.067  15.305  0.00  0.00    +0.234 A 
ATOM     19  C   UNL     1     -10.585  -6.949  16.078  0.00  0.00    +0.177 A 
ATOM     20  C   UNL     1     -12.281  -6.879  14.016  0.00  0.00    +0.134 A 
ATOM     21  C   UNL     1     -12.054  -5.761  14.789  0.00  0.00    +0.130 A 
ENDBRANCH   3  18
ENDBRANCH  15   3
TORSDOF 3
ENDMDL
MODEL 7
REMARK VINA RESULT:      -5.2     26.393     27.628
REMARK  Name = 75536908
REMARK  3 active torsions:
REMARK  status: ('A' for Active; 'I' for Inactive)
REMARK    1  A    between atoms: O_3  and  C_15
REMARK    2  A    between atoms: O_3  and  C_18
REMARK    3  A    between atoms: C_7  and  C_12
REMARK                            x       y       z     vdW  Elec       q    Type
REMARK                         _______ _______ _______ _____ _____    ______ ____
ROOT
ATOM      1  O   UNL     1      -2.383 -12.844  14.840  0.00  0.00    -0.375 OA
ATOM      2  O   UNL     1      -2.333  -9.849  10.949  0.00  0.00    -0.275 OA
ATOM      4  N   UNL     1      -3.322 -10.494  12.960  0.00  0.00    -0.295 N 
ATOM     12  C   UNL     1      -3.341 -10.038  11.634  0.00  0.00    +0.219 C 
ATOM     13  C   UNL     1      -4.546 -10.691  13.745  0.00  0.00    +0.154 C 
ATOM     14  C   UNL     1      -2.031 -10.770  13.594  0.00  0.00    +0.136 C 
ATOM     15  C   UNL     1      -4.428 -11.521  15.026  0.00  0.00    +0.218 C 
ATOM     16  C   UNL     1      -1.772 -12.268  13.691  0.00  0.00    +0.179 C 
ATOM     17  C   UNL     1      -3.804 -12.894  14.793  0.00  0.00    +0.206 C 
ENDROOT
BRANCH  12   7
ATOM      7  C   UNL     1      -4.691  -9.780  11.036  0.00  0.00    +0.075 C 
ATOM      8  C   UNL     1      -5.018 -10.847   9.985  0.00  0.00    +0.013 C 
ATOM      9  C   UNL     1      -4.709  -8.438  10.305  0.00  0.00    +0.013 C 
ATOM     10  C   UNL     1      -5.317 -10.084   8.699  0.00  0.00    +0.001 C 
ATOM     11  C   UNL     1      -4.524  -8.796   8.838  0.00  0.00    +0.001 C 
ENDBRANCH  12   7
BRANCH  15   3
ATOM      3  O   UNL     1      -5.746 -11.723  15.537  0.00  0.00    -0.468 OA
BRANCH   3  18
ATOM      5  N   UNL     1      -6.825 -12.424  17.473  0.00  0.00    -0.219 NA
ATOM      6  N   UNL     1      -5.222 -10.672  18.966  0.00  0.00    -0.256 NA
ATOM     18  C   UNL     1      -5.894 -11.641  16.894  0.00  0.00    +0.234 A 
ATOM     19  C   UNL     1      -5.106 -10.781  17.627  0.00  0.00    +0.177 A 
ATOM     20  C   UNL     1      -6.942 -12.317  18.812  0.00  0.00    +0.134 A 
ATOM     21  C   UNL     1      -6.154 -11.456  19.545  0.00  0.00    +0.130 A 
ENDBRANCH   3  18
ENDBRANCH  15   3
TORSDOF 3
ENDMDL
MODEL 8
REMARK VINA RESULT:      -5.2     28.175     30.313
REMARK  Name = 75536908
REMARK  3 active torsions:
REMARK  status: ('A' for Active; 'I' for Inactive)
REMARK    1  A    between atoms: O_3  and  C_15
REMARK    2  A    between atoms: O_3  and  C_18
REMARK    3  A    between atoms: C_7  and  C_12
REMARK                            x       y       z     vdW  Elec       q    Type
REMARK                         _______ _______ _______ _____ _____    ______ ____
ROOT
ATOM      1  O   UNL     1     -17.196   1.345  24.497  0.00  0.00    -0.375 OA
ATOM      2  O   UNL     1     -16.473   0.430  29.267  0.00  0.00    -0.275 OA
ATOM      4  N   UNL     1     -16.679   1.984  27.540  0.00  0.00    -0.295 N 
ATOM     12  C   UNL     1     -16.127   1.485  28.729  0.00  0.00    +0.219 C 
ATOM     13  C   UNL     1     -16.248   3.252  26.942  0.00  0.00    +0.154 C 
ATOM     14  C   UNL     1     -17.739   1.220  26.878  0.00  0.00    +0.136 C 
ATOM     15  C   UNL     1     -16.650   3.510  25.487  0.00  0.00    +0.218 C 
ATOM     16  C   UNL     1     -17.212   0.501  25.643  0.00  0.00    +0.179 C 
ATOM     17  C   UNL     1     -16.229   2.388  24.542  0.00  0.00    +0.206 C 
ENDROOT
BRANCH  12   7
ATOM      7  C   UNL     1     -15.041   2.304  29.356  0.00  0.00    +0.075 C 
ATOM      8  C   UNL     1     -13.972   1.392  29.969  0.00  0.00    +0.013 C 
ATOM      9  C   UNL     1     -15.597   3.145  30.506  0.00  0.00    +0.013 C 
ATOM     10  C   UNL     1     -13.867   1.800  31.435  0.00  0.00    +0.001 C 
ATOM     11  C   UNL     1     -15.240   2.364  31.762  0.00  0.00    +0.001 C 
ENDBRANCH  12   7
BRANCH  15   3
ATOM      3  O   UNL     1     -15.998   4.706  25.060  0.00  0.00    -0.468 OA
BRANCH   3  18
ATOM      5  N   UNL     1     -17.214   5.386  23.199  0.00  0.00    -0.219 NA
ATOM      6  N   UNL     1     -14.911   5.098  21.625  0.00  0.00    -0.256 NA
ATOM     18  C   UNL     1     -16.040   4.980  23.721  0.00  0.00    +0.234 A 
ATOM     19  C   UNL     1     -14.908   4.839  22.947  0.00  0.00    +0.177 A 
ATOM     20  C   UNL     1     -17.218   5.646  21.876  0.00  0.00    +0.134 A 
ATOM     21  C   UNL     1     -16.086   5.504  21.103  0.00  0.00    +0.130 A 
ENDBRANCH   3  18
ENDBRANCH  15   3
TORSDOF 3
ENDMDL
MODEL 9
REMARK VINA RESULT:      -5.1     25.787     27.612
REMARK  Name = 75536908
REMARK  3 active torsions:
REMARK  status: ('A' for Active; 'I' for Inactive)
REMARK    1  A    between atoms: O_3  and  C_15
REMARK    2  A    between atoms: O_3  and  C_18
REMARK    3  A    between atoms: C_7  and  C_12
REMARK                            x       y       z     vdW  Elec       q    Type
REMARK                         _______ _______ _______ _____ _____    ______ ____
ROOT
ATOM      1  O   UNL     1     -17.248   7.383  21.809  0.00  0.00    -0.375 OA
ATOM      2  O   UNL     1     -13.927   8.892  18.522  0.00  0.00    -0.275 OA
ATOM      4  N   UNL     1     -14.641   7.271  20.039  0.00  0.00    -0.295 N 
ATOM     12  C   UNL     1     -13.675   8.052  19.389  0.00  0.00    +0.219 C 
ATOM     13  C   UNL     1     -14.296   6.273  21.056  0.00  0.00    +0.154 C 
ATOM     14  C   UNL     1     -16.051   7.447  19.678  0.00  0.00    +0.136 C 
ATOM     15  C   UNL     1     -15.434   5.752  21.939  0.00  0.00    +0.218 C 
ATOM     16  C   UNL     1     -16.803   8.224  20.751  0.00  0.00    +0.179 C 
ATOM     17  C   UNL     1     -16.209   6.869  22.634  0.00  0.00    +0.206 C 
ENDROOT
BRANCH  12   7
ATOM      7  C   UNL     1     -12.252   7.835  19.806  0.00  0.00    +0.075 C 
ATOM      8  C   UNL     1     -11.625   9.157  20.265  0.00  0.00    +0.013 C 
ATOM      9  C   UNL     1     -11.413   7.350  18.623  0.00  0.00    +0.013 C 
ATOM     10  C   UNL     1     -10.382   9.348  19.403  0.00  0.00    +0.001 C 
ATOM     11  C   UNL     1     -10.699   8.597  18.121  0.00  0.00    +0.001 C 
ENDBRANCH  12   7
BRANCH  15   3
ATOM      3  O   UNL     1     -14.857   4.927  22.952  0.00  0.00    -0.468 OA
BRANCH   3  18
ATOM      5  N   UNL     1     -16.508   3.310  22.704  0.00  0.00    -0.219 NA
ATOM      6  N   UNL     1     -16.437   2.854  25.470  0.00  0.00    -0.256 NA
ATOM     18  C   UNL     1     -15.678   3.991  23.517  0.00  0.00    +0.234 A 
ATOM     19  C   UNL     1     -15.643   3.767  24.876  0.00  0.00    +0.177 A 
ATOM     20  C   UNL     1     -17.302   2.395  23.296  0.00  0.00    +0.134 A 
ATOM     21  C   UNL     1     -17.267   2.172  24.655  0.00  0.00    +0.130 A 
ENDBRANCH   3  18
ENDBRANCH  15   3
TORSDOF 3
ENDMDL
MODEL 10
REMARK VINA RESULT:      -5.1     28.047     30.469
REMARK  Name = 75536908
REMARK  3 active torsions:
REMARK  status: ('A' for Active; 'I' for Inactive)
REMARK    1  A    between atoms: O_3  and  C_15
REMARK    2  A    between atoms: O_3  and  C_18
REMARK    3  A    between atoms: C_7  and  C_12
REMARK                            x       y       z     vdW  Elec       q    Type
REMARK                         _______ _______ _______ _____ _____    ______ ____
ROOT
ATOM      1  O   UNL     1     -18.677   5.247  27.498  0.00  0.00    -0.375 OA
ATOM      2  O   UNL     1     -15.603   3.641  30.974  0.00  0.00    -0.275 OA
ATOM      4  N   UNL     1     -16.076   3.942  28.710  0.00  0.00    -0.295 N 
ATOM     12  C   UNL     1     -15.564   3.237  29.809  0.00  0.00    +0.219 C 
ATOM     13  C   UNL     1     -15.996   3.431  27.338  0.00  0.00    +0.154 C 
ATOM     14  C   UNL     1     -16.700   5.248  28.937  0.00  0.00    +0.136 C 
ATOM     15  C   UNL     1     -16.892   4.099  26.290  0.00  0.00    +0.218 C 
ATOM     16  C   UNL     1     -18.218   5.158  28.842  0.00  0.00    +0.179 C 
ATOM     17  C   UNL     1     -18.364   4.118  26.689  0.00  0.00    +0.206 C 
ENDROOT
BRANCH  12   7
ATOM      7  C   UNL     1     -14.944   1.905  29.517  0.00  0.00    +0.075 C 
ATOM      8  C   UNL     1     -16.003   0.798  29.595  0.00  0.00    +0.013 C 
ATOM      9  C   UNL     1     -13.886   1.561  30.566  0.00  0.00    +0.013 C 
ATOM     10  C   UNL     1     -15.477  -0.208  30.614  0.00  0.00    +0.001 C 
ATOM     11  C   UNL     1     -14.593   0.619  31.530  0.00  0.00    +0.001 C 
ENDBRANCH  12   7
BRANCH  15   3
ATOM      3  O   UNL     1     -16.778   3.350  25.079  0.00  0.00    -0.468 OA
BRANCH   3  18
ATOM      5  N   UNL     1     -15.022   4.562  24.158  0.00  0.00    -0.219 NA
ATOM      6  N   UNL     1     -16.432   4.711  21.739  0.00  0.00    -0.256 NA
ATOM     18  C   UNL     1     -16.238   4.003  24.006  0.00  0.00    +0.234 A 
ATOM     19  C   UNL     1     -16.932   4.076  22.818  0.00  0.00    +0.177 A 
ATOM     20  C   UNL     1     -14.522   5.197  23.079  0.00  0.00    +0.134 A 
ATOM     21  C   UNL     1     -15.215   5.270  21.891  0.00  0.00    +0.130 A 
ENDBRANCH   3  18
ENDBRANCH  15   3
TORSDOF 3
ENDMDL
