MODEL 1
REMARK VINA RESULT:      -7.6      0.000      0.000
REMARK  Name = 75536153
REMARK  11 active torsions:
REMARK  status: ('A' for Active; 'I' for Inactive)
REMARK    1  A    between atoms: O_3  and  C_26
REMARK    2  A    between atoms: O_3  and  C_31
REMARK    3  A    between atoms: N_4  and  C_15
REMARK    4  A    between atoms: N_7  and  C_28
REMARK    5  A    between atoms: C_8  and  C_12
REMARK    6  A    between atoms: C_9  and  C_15
REMARK    7  A    between atoms: C_11  and  C_16
REMARK    8  A    between atoms: C_12  and  C_17
REMARK    9  A    between atoms: C_12  and  C_18
REMARK   10  A    between atoms: C_13  and  C_19
REMARK   11  A    between atoms: C_16  and  C_20
REMARK                            x       y       z     vdW  Elec       q    Type
REMARK                         _______ _______ _______ _____ _____    ______ ____
ROOT
ATOM      8  C   UNL     1      -4.992 -10.095  10.194  0.00  0.00    +0.000 C 
ATOM      9  C   UNL     1      -6.069  -9.032  10.525  0.00  0.00    +0.032 C 
ATOM     10  C   UNL     1      -4.371  -9.820   8.816  0.00  0.00    +0.012 C 
ATOM     11  C   UNL     1      -5.425  -9.826   7.691  0.00  0.00    +0.022 C 
ATOM     13  C   UNL     1      -6.646  -9.009   8.060  0.00  0.00    -0.073 C 
ATOM     14  C   UNL     1      -6.911  -8.653   9.329  0.00  0.00    -0.022 C 
ATOM     19  C   UNL     1      -7.534  -8.572   6.929  0.00  0.00    +0.039 C 
ENDROOT
BRANCH   8  12
ATOM     12  C   UNL     1      -3.890 -10.139  11.259  0.00  0.00    -0.013 C 
ATOM     17  C   UNL     1      -3.641 -11.575  11.708  0.00  0.00    +0.007 C 
ATOM     18  C   UNL     1      -2.609  -9.509  10.724  0.00  0.00    +0.007 C 
ENDBRANCH   8  12
BRANCH   9  15
ATOM     15  C   UNL     1      -6.982  -9.505  11.662  0.00  0.00    +0.113 C 
BRANCH  15   4
ATOM      2  O   UNL     1      -6.666 -11.268  13.897  0.00  0.00    -0.253 OA
ATOM      4  N   UNL     1      -6.420  -9.179  12.934  0.00  0.00    -0.299 N 
ATOM      7  N   UNL     1      -5.713  -9.498  15.109  0.00  0.00    -0.269 N 
ATOM     21  C   UNL     1      -6.297 -10.100  13.991  0.00  0.00    +0.304 C 
ATOM     35  H   UNL     1      -6.029  -8.252  13.067  0.00  0.00    +0.150 HD
ATOM     37  H   UNL     1      -5.466  -8.515  15.021  0.00  0.00    +0.156 HD
BRANCH   7  28
ATOM      1  F   UNL     1      -4.577 -11.815  20.015  0.00  0.00    -0.205 F 
ATOM     28  C   UNL     1      -5.423 -10.089  16.361  0.00  0.00    +0.035 A 
ATOM     29  C   UNL     1      -4.191 -10.707  16.571  0.00  0.00    +0.026 A 
ATOM     30  C   UNL     1      -6.371 -10.054  17.384  0.00  0.00    +0.026 A 
ATOM     32  C   UNL     1      -3.904 -11.289  17.806  0.00  0.00    +0.040 A 
ATOM     33  C   UNL     1      -6.084 -10.637  18.619  0.00  0.00    +0.040 A 
ATOM     34  C   UNL     1      -4.851 -11.255  18.830  0.00  0.00    +0.124 A 
ENDBRANCH   7  28
ENDBRANCH  15   4
ENDBRANCH   9  15
BRANCH  11  16
ATOM     16  C   UNL     1      -5.816 -11.258   7.310  0.00  0.00    +0.082 C 
BRANCH  16  20
ATOM      5  N   UNL     1      -4.659 -11.603   5.119  0.00  0.00    -0.342 N 
ATOM      6  N   UNL     1      -3.872 -12.786   6.829  0.00  0.00    -0.232 NA
ATOM     20  C   UNL     1      -4.769 -11.903   6.448  0.00  0.00    +0.109 A 
ATOM     22  C   UNL     1      -3.623 -12.342   4.608  0.00  0.00    +0.070 A 
ATOM     23  C   UNL     1      -3.148 -13.072   5.694  0.00  0.00    +0.089 A 
ATOM     24  C   UNL     1      -3.077 -12.432   3.327  0.00  0.00    +0.073 A 
ATOM     25  C   UNL     1      -2.066 -13.949   5.511  0.00  0.00    +0.033 A 
ATOM     26  C   UNL     1      -2.000 -13.309   3.162  0.00  0.00    +0.122 A 
ATOM     27  C   UNL     1      -1.502 -14.055   4.234  0.00  0.00    +0.048 A 
ATOM     36  H   UNL     1      -5.236 -10.953   4.604  0.00  0.00    +0.167 HD
BRANCH  26   3
ATOM      3  O   UNL     1      -1.426 -13.438   1.931  0.00  0.00    -0.495 OA
ATOM     31  C   UNL     1      -1.031 -14.749   1.537  0.00  0.00    +0.277 C 
ENDBRANCH  26   3
ENDBRANCH  16  20
ENDBRANCH  11  16
TORSDOF 7
ENDMDL
MODEL 2
REMARK VINA RESULT:      -7.5     28.458     31.778
REMARK  Name = 75536153
REMARK  11 active torsions:
REMARK  status: ('A' for Active; 'I' for Inactive)
REMARK    1  A    between atoms: O_3  and  C_26
REMARK    2  A    between atoms: O_3  and  C_31
REMARK    3  A    between atoms: N_4  and  C_15
REMARK    4  A    between atoms: N_7  and  C_28
REMARK    5  A    between atoms: C_8  and  C_12
REMARK    6  A    between atoms: C_9  and  C_15
REMARK    7  A    between atoms: C_11  and  C_16
REMARK    8  A    between atoms: C_12  and  C_17
REMARK    9  A    between atoms: C_12  and  C_18
REMARK   10  A    between atoms: C_13  and  C_19
REMARK   11  A    between atoms: C_16  and  C_20
REMARK                            x       y       z     vdW  Elec       q    Type
REMARK                         _______ _______ _______ _____ _____    ______ ____
ROOT
ATOM      8  C   UNL     1      12.055   8.910  20.616  0.00  0.00    +0.000 C 
ATOM      9  C   UNL     1      12.056   8.751  19.075  0.00  0.00    +0.032 C 
ATOM     10  C   UNL     1      12.036  10.397  21.002  0.00  0.00    +0.012 C 
ATOM     11  C   UNL     1      13.245  11.163  20.433  0.00  0.00    +0.022 C 
ATOM     13  C   UNL     1      13.474  10.846  18.969  0.00  0.00    -0.073 C 
ATOM     14  C   UNL     1      12.924   9.771  18.376  0.00  0.00    -0.022 C 
ATOM     19  C   UNL     1      14.314  11.819  18.190  0.00  0.00    +0.039 C 
ENDROOT
BRANCH   8  12
ATOM     12  C   UNL     1      10.866   8.191  21.261  0.00  0.00    -0.013 C 
ATOM     17  C   UNL     1      11.254   6.771  21.659  0.00  0.00    +0.007 C 
ATOM     18  C   UNL     1      10.364   8.973  22.471  0.00  0.00    +0.007 C 
ENDBRANCH   8  12
BRANCH   9  15
ATOM     15  C   UNL     1      12.496   7.341  18.665  0.00  0.00    +0.113 C 
BRANCH  15   4
ATOM      2  O   UNL     1      14.439   6.545  20.612  0.00  0.00    -0.253 OA
ATOM      4  N   UNL     1      13.912   7.283  18.484  0.00  0.00    -0.299 N 
ATOM      7  N   UNL     1      16.128   6.923  19.026  0.00  0.00    -0.269 N 
ATOM     21  C   UNL     1      14.810   6.881  19.491  0.00  0.00    +0.304 C 
ATOM     35  H   UNL     1      14.291   7.479  17.563  0.00  0.00    +0.150 HD
ATOM     37  H   UNL     1      16.263   7.228  18.065  0.00  0.00    +0.156 HD
BRANCH   7  28
ATOM      1  F   UNL     1      20.753   5.638  21.797  0.00  0.00    -0.205 F 
ATOM     28  C   UNL     1      17.307   6.596  19.733  0.00  0.00    +0.035 A 
ATOM     29  C   UNL     1      18.090   5.518  19.320  0.00  0.00    +0.026 A 
ATOM     30  C   UNL     1      17.688   7.351  20.842  0.00  0.00    +0.026 A 
ATOM     32  C   UNL     1      19.255   5.194  20.017  0.00  0.00    +0.040 A 
ATOM     33  C   UNL     1      18.853   7.027  21.539  0.00  0.00    +0.040 A 
ATOM     34  C   UNL     1      19.636   5.949  21.127  0.00  0.00    +0.124 A 
ENDBRANCH   7  28
ENDBRANCH  15   4
ENDBRANCH   9  15
BRANCH  11  16
ATOM     16  C   UNL     1      14.509  10.890  21.257  0.00  0.00    +0.082 C 
BRANCH  16  20
ATOM      5  N   UNL     1      14.743  10.794  23.746  0.00  0.00    -0.342 N 
ATOM      6  N   UNL     1      14.028  12.727  22.913  0.00  0.00    -0.232 NA
ATOM     20  C   UNL     1      14.415  11.504  22.625  0.00  0.00    +0.109 A 
ATOM     22  C   UNL     1      14.557  11.614  24.830  0.00  0.00    +0.070 A 
ATOM     23  C   UNL     1      14.110  12.814  24.284  0.00  0.00    +0.089 A 
ATOM     24  C   UNL     1      14.734  11.415  26.200  0.00  0.00    +0.073 A 
ATOM     25  C   UNL     1      13.819  13.890  25.139  0.00  0.00    +0.033 A 
ATOM     26  C   UNL     1      14.440  12.496  27.036  0.00  0.00    +0.122 A 
ATOM     27  C   UNL     1      13.990  13.713  26.518  0.00  0.00    +0.048 A 
ATOM     36  H   UNL     1      15.067   9.837  23.774  0.00  0.00    +0.167 HD
BRANCH  26   3
ATOM      3  O   UNL     1      14.595  12.358  28.384  0.00  0.00    -0.495 OA
ATOM     31  C   UNL     1      15.703  11.582  28.831  0.00  0.00    +0.277 C 
ENDBRANCH  26   3
ENDBRANCH  16  20
ENDBRANCH  11  16
TORSDOF 7
ENDMDL
MODEL 3
REMARK VINA RESULT:      -7.2      3.987      5.489
REMARK  Name = 75536153
REMARK  11 active torsions:
REMARK  status: ('A' for Active; 'I' for Inactive)
REMARK    1  A    between atoms: O_3  and  C_26
REMARK    2  A    between atoms: O_3  and  C_31
REMARK    3  A    between atoms: N_4  and  C_15
REMARK    4  A    between atoms: N_7  and  C_28
REMARK    5  A    between atoms: C_8  and  C_12
REMARK    6  A    between atoms: C_9  and  C_15
REMARK    7  A    between atoms: C_11  and  C_16
REMARK    8  A    between atoms: C_12  and  C_17
REMARK    9  A    between atoms: C_12  and  C_18
REMARK   10  A    between atoms: C_13  and  C_19
REMARK   11  A    between atoms: C_16  and  C_20
REMARK                            x       y       z     vdW  Elec       q    Type
REMARK                         _______ _______ _______ _____ _____    ______ ____
ROOT
ATOM      8  C   UNL     1      -3.241 -12.322  12.598  0.00  0.00    +0.000 C 
ATOM      9  C   UNL     1      -2.001 -11.402  12.721  0.00  0.00    +0.032 C 
ATOM     10  C   UNL     1      -3.683 -12.434  11.130  0.00  0.00    +0.012 C 
ATOM     11  C   UNL     1      -4.030 -11.062  10.521  0.00  0.00    +0.022 C 
ATOM     13  C   UNL     1      -2.973 -10.023  10.833  0.00  0.00    -0.073 C 
ATOM     14  C   UNL     1      -2.066 -10.198  11.810  0.00  0.00    -0.022 C 
ATOM     19  C   UNL     1      -2.953  -8.797   9.964  0.00  0.00    +0.039 C 
ENDROOT
BRANCH   8  12
ATOM     12  C   UNL     1      -2.970 -13.719  13.165  0.00  0.00    -0.013 C 
ATOM     17  C   UNL     1      -4.199 -14.241  13.903  0.00  0.00    +0.007 C 
ATOM     18  C   UNL     1      -2.562 -14.676  12.050  0.00  0.00    +0.007 C 
ENDBRANCH   8  12
BRANCH   9  15
ATOM     15  C   UNL     1      -1.799 -10.937  14.167  0.00  0.00    +0.113 C 
BRANCH  15   4
ATOM      2  O   UNL     1      -3.501 -11.879  16.269  0.00  0.00    -0.253 OA
ATOM      4  N   UNL     1      -2.976 -10.297  14.665  0.00  0.00    -0.299 N 
ATOM      7  N   UNL     1      -4.850  -9.981  15.976  0.00  0.00    -0.269 N 
ATOM     21  C   UNL     1      -3.767 -10.821  15.704  0.00  0.00    +0.304 C 
ATOM     35  H   UNL     1      -3.223  -9.384  14.296  0.00  0.00    +0.150 HD
ATOM     37  H   UNL     1      -4.926  -9.138  15.411  0.00  0.00    +0.156 HD
BRANCH   7  28
ATOM      1  F   UNL     1      -8.828 -10.677  19.772  0.00  0.00    -0.205 F 
ATOM     28  C   UNL     1      -5.865 -10.158  16.944  0.00  0.00    +0.035 A 
ATOM     29  C   UNL     1      -7.198  -9.927  16.607  0.00  0.00    +0.026 A 
ATOM     30  C   UNL     1      -5.532 -10.565  18.236  0.00  0.00    +0.026 A 
ATOM     32  C   UNL     1      -8.200 -10.103  17.563  0.00  0.00    +0.040 A 
ATOM     33  C   UNL     1      -6.533 -10.741  19.191  0.00  0.00    +0.040 A 
ATOM     34  C   UNL     1      -7.867 -10.510  18.855  0.00  0.00    +0.124 A 
ENDBRANCH   7  28
ENDBRANCH  15   4
ENDBRANCH   9  15
BRANCH  11  16
ATOM     16  C   UNL     1      -5.415 -10.590  10.978  0.00  0.00    +0.082 C 
BRANCH  16  20
ATOM      5  N   UNL     1      -6.085 -10.172   8.604  0.00  0.00    -0.342 N 
ATOM      6  N   UNL     1      -6.762  -8.658  10.084  0.00  0.00    -0.232 NA
ATOM     20  C   UNL     1      -6.099  -9.781   9.913  0.00  0.00    +0.109 A 
ATOM     22  C   UNL     1      -6.784  -9.241   7.880  0.00  0.00    +0.070 A 
ATOM     23  C   UNL     1      -7.197  -8.306   8.826  0.00  0.00    +0.089 A 
ATOM     24  C   UNL     1      -7.083  -9.138   6.521  0.00  0.00    +0.073 A 
ATOM     25  C   UNL     1      -7.952  -7.197   8.409  0.00  0.00    +0.033 A 
ATOM     26  C   UNL     1      -7.836  -8.029   6.124  0.00  0.00    +0.122 A 
ATOM     27  C   UNL     1      -8.264  -7.074   7.050  0.00  0.00    +0.048 A 
ATOM     36  H   UNL     1      -5.639 -11.001   8.233  0.00  0.00    +0.167 HD
BRANCH  26   3
ATOM      3  O   UNL     1      -8.156  -7.877   4.807  0.00  0.00    -0.495 OA
ATOM     31  C   UNL     1      -9.542  -7.797   4.485  0.00  0.00    +0.277 C 
ENDBRANCH  26   3
ENDBRANCH  16  20
ENDBRANCH  11  16
TORSDOF 7
ENDMDL
MODEL 4
REMARK VINA RESULT:      -7.0     23.902     25.815
REMARK  Name = 75536153
REMARK  11 active torsions:
REMARK  status: ('A' for Active; 'I' for Inactive)
REMARK    1  A    between atoms: O_3  and  C_26
REMARK    2  A    between atoms: O_3  and  C_31
REMARK    3  A    between atoms: N_4  and  C_15
REMARK    4  A    between atoms: N_7  and  C_28
REMARK    5  A    between atoms: C_8  and  C_12
REMARK    6  A    between atoms: C_9  and  C_15
REMARK    7  A    between atoms: C_11  and  C_16
REMARK    8  A    between atoms: C_12  and  C_17
REMARK    9  A    between atoms: C_12  and  C_18
REMARK   10  A    between atoms: C_13  and  C_19
REMARK   11  A    between atoms: C_16  and  C_20
REMARK                            x       y       z     vdW  Elec       q    Type
REMARK                         _______ _______ _______ _____ _____    ______ ____
ROOT
ATOM      8  C   UNL     1       9.093   8.224   5.051  0.00  0.00    +0.000 C 
ATOM      9  C   UNL     1       8.658   8.948   6.349  0.00  0.00    +0.032 C 
ATOM     10  C   UNL     1       8.595   6.770   5.055  0.00  0.00    +0.012 C 
ATOM     11  C   UNL     1       9.131   5.975   6.261  0.00  0.00    +0.022 C 
ATOM     13  C   UNL     1       8.980   6.746   7.556  0.00  0.00    -0.073 C 
ATOM     14  C   UNL     1       8.756   8.072   7.576  0.00  0.00    -0.022 C 
ATOM     19  C   UNL     1       9.048   5.950   8.829  0.00  0.00    +0.039 C 
ENDROOT
BRANCH   8  12
ATOM     12  C   UNL     1       8.580   8.944   3.799  0.00  0.00    -0.013 C 
ATOM     17  C   UNL     1       8.783   8.073   2.564  0.00  0.00    +0.007 C 
ATOM     18  C   UNL     1       7.110   9.314   3.964  0.00  0.00    +0.007 C 
ENDBRANCH   8  12
BRANCH   9  15
ATOM     15  C   UNL     1       9.474  10.227   6.570  0.00  0.00    +0.113 C 
BRANCH  15   4
ATOM      2  O   UNL     1      11.910  10.143   5.065  0.00  0.00    -0.253 OA
ATOM      4  N   UNL     1      10.777   9.918   7.069  0.00  0.00    -0.299 N 
ATOM      7  N   UNL     1      13.058   9.562   7.028  0.00  0.00    -0.269 N 
ATOM     21  C   UNL     1      11.934   9.895   6.268  0.00  0.00    +0.304 C 
ATOM     35  H   UNL     1      10.890   9.770   8.067  0.00  0.00    +0.150 HD
ATOM     37  H   UNL     1      12.903   9.384   8.018  0.00  0.00    +0.156 HD
BRANCH   7  28
ATOM      1  F   UNL     1      18.304   9.074   5.307  0.00  0.00    -0.205 F 
ATOM     28  C   UNL     1      14.396   9.438   6.590  0.00  0.00    +0.035 A 
ATOM     29  C   UNL     1      15.236  10.551   6.587  0.00  0.00    +0.026 A 
ATOM     30  C   UNL     1      14.877   8.201   6.159  0.00  0.00    +0.026 A 
ATOM     32  C   UNL     1      16.557  10.429   6.155  0.00  0.00    +0.040 A 
ATOM     33  C   UNL     1      16.197   8.078   5.726  0.00  0.00    +0.040 A 
ATOM     34  C   UNL     1      17.037   9.192   5.724  0.00  0.00    +0.124 A 
ENDBRANCH   7  28
ENDBRANCH  15   4
ENDBRANCH   9  15
BRANCH  11  16
ATOM     16  C   UNL     1      10.588   5.553   6.040  0.00  0.00    +0.082 C 
BRANCH  16  20
ATOM      5  N   UNL     1      11.923   5.870   3.948  0.00  0.00    -0.342 N 
ATOM      6  N   UNL     1      10.181   4.499   3.788  0.00  0.00    -0.232 NA
ATOM     20  C   UNL     1      10.868   5.284   4.589  0.00  0.00    +0.109 A 
ATOM     22  C   UNL     1      11.917   5.435   2.647  0.00  0.00    +0.070 A 
ATOM     23  C   UNL     1      10.821   4.581   2.573  0.00  0.00    +0.089 A 
ATOM     24  C   UNL     1      12.751   5.708   1.562  0.00  0.00    +0.073 A 
ATOM     25  C   UNL     1      10.523   3.953   1.352  0.00  0.00    +0.033 A 
ATOM     26  C   UNL     1      12.441   5.074   0.355  0.00  0.00    +0.122 A 
ATOM     27  C   UNL     1      11.347   4.211   0.249  0.00  0.00    +0.048 A 
ATOM     36  H   UNL     1      12.591   6.510   4.358  0.00  0.00    +0.167 HD
BRANCH  26   3
ATOM      3  O   UNL     1      13.222   5.304  -0.739  0.00  0.00    -0.495 OA
ATOM     31  C   UNL     1      14.232   4.340  -1.026  0.00  0.00    +0.277 C 
ENDBRANCH  26   3
ENDBRANCH  16  20
ENDBRANCH  11  16
TORSDOF 7
ENDMDL
MODEL 5
REMARK VINA RESULT:      -6.9      5.192      8.643
REMARK  Name = 75536153
REMARK  11 active torsions:
REMARK  status: ('A' for Active; 'I' for Inactive)
REMARK    1  A    between atoms: O_3  and  C_26
REMARK    2  A    between atoms: O_3  and  C_31
REMARK    3  A    between atoms: N_4  and  C_15
REMARK    4  A    between atoms: N_7  and  C_28
REMARK    5  A    between atoms: C_8  and  C_12
REMARK    6  A    between atoms: C_9  and  C_15
REMARK    7  A    between atoms: C_11  and  C_16
REMARK    8  A    between atoms: C_12  and  C_17
REMARK    9  A    between atoms: C_12  and  C_18
REMARK   10  A    between atoms: C_13  and  C_19
REMARK   11  A    between atoms: C_16  and  C_20
REMARK                            x       y       z     vdW  Elec       q    Type
REMARK                         _______ _______ _______ _____ _____    ______ ____
ROOT
ATOM      8  C   UNL     1      -6.539 -13.089  16.550  0.00  0.00    +0.000 C 
ATOM      9  C   UNL     1      -7.478 -13.352  17.754  0.00  0.00    +0.032 C 
ATOM     10  C   UNL     1      -5.086 -12.934  17.027  0.00  0.00    +0.012 C 
ATOM     11  C   UNL     1      -4.923 -11.780  18.035  0.00  0.00    +0.022 C 
ATOM     13  C   UNL     1      -5.989 -11.819  19.111  0.00  0.00    -0.073 C 
ATOM     14  C   UNL     1      -7.118 -12.537  18.974  0.00  0.00    -0.022 C 
ATOM     19  C   UNL     1      -5.706 -11.048  20.370  0.00  0.00    +0.039 C 
ENDROOT
BRANCH   8  12
ATOM     12  C   UNL     1      -6.626 -14.207  15.506  0.00  0.00    -0.013 C 
ATOM     17  C   UNL     1      -5.659 -13.938  14.357  0.00  0.00    +0.007 C 
ATOM     18  C   UNL     1      -6.337 -15.559  16.150  0.00  0.00    +0.007 C 
ENDBRANCH   8  12
BRANCH   9  15
ATOM     15  C   UNL     1      -8.941 -13.092  17.381  0.00  0.00    +0.113 C 
BRANCH  15   4
ATOM      2  O   UNL     1     -10.222 -11.237  15.613  0.00  0.00    -0.253 OA
ATOM      4  N   UNL     1      -9.310 -11.744  17.678  0.00  0.00    -0.299 N 
ATOM      7  N   UNL     1     -10.176  -9.633  17.326  0.00  0.00    -0.269 N 
ATOM     21  C   UNL     1      -9.938 -10.886  16.755  0.00  0.00    +0.304 C 
ATOM     35  H   UNL     1      -9.171 -11.401  18.623  0.00  0.00    +0.150 HD
ATOM     37  H   UNL     1      -9.876  -9.505  18.289  0.00  0.00    +0.156 HD
BRANCH   7  28
ATOM      1  F   UNL     1     -12.564  -5.221  14.967  0.00  0.00    -0.205 F 
ATOM     28  C   UNL     1     -10.785  -8.508  16.724  0.00  0.00    +0.035 A 
ATOM     29  C   UNL     1      -9.998  -7.455  16.256  0.00  0.00    +0.026 A 
ATOM     30  C   UNL     1     -12.174  -8.450  16.599  0.00  0.00    +0.026 A 
ATOM     32  C   UNL     1     -10.599  -6.345  15.662  0.00  0.00    +0.040 A 
ATOM     33  C   UNL     1     -12.774  -7.340  16.004  0.00  0.00    +0.040 A 
ATOM     34  C   UNL     1     -11.987  -6.288  15.536  0.00  0.00    +0.124 A 
ENDBRANCH   7  28
ENDBRANCH  15   4
ENDBRANCH   9  15
BRANCH  11  16
ATOM     16  C   UNL     1      -4.911 -10.423  17.322  0.00  0.00    +0.082 C 
BRANCH  16  20
ATOM      5  N   UNL     1      -4.966 -10.236  14.828  0.00  0.00    -0.342 N 
ATOM      6  N   UNL     1      -3.026 -10.866  15.711  0.00  0.00    -0.232 NA
ATOM     20  C   UNL     1      -4.268 -10.519  15.968  0.00  0.00    +0.109 A 
ATOM     22  C   UNL     1      -4.119 -10.412  13.764  0.00  0.00    +0.070 A 
ATOM     23  C   UNL     1      -2.915 -10.806  14.341  0.00  0.00    +0.089 A 
ATOM     24  C   UNL     1      -4.297 -10.266  12.387  0.00  0.00    +0.073 A 
ATOM     25  C   UNL     1      -1.813 -11.074  13.512  0.00  0.00    +0.033 A 
ATOM     26  C   UNL     1      -3.190 -10.536  11.577  0.00  0.00    +0.122 A 
ATOM     27  C   UNL     1      -1.969 -10.933  12.127  0.00  0.00    +0.048 A 
ATOM     36  H   UNL     1      -5.933  -9.947  14.776  0.00  0.00    +0.167 HD
BRANCH  26   3
ATOM      3  O   UNL     1      -3.307 -10.410  10.224  0.00  0.00    -0.495 OA
ATOM     31  C   UNL     1      -3.833  -9.180   9.733  0.00  0.00    +0.277 C 
ENDBRANCH  26   3
ENDBRANCH  16  20
ENDBRANCH  11  16
TORSDOF 7
ENDMDL
MODEL 6
REMARK VINA RESULT:      -6.9      2.716      4.782
REMARK  Name = 75536153
REMARK  11 active torsions:
REMARK  status: ('A' for Active; 'I' for Inactive)
REMARK    1  A    between atoms: O_3  and  C_26
REMARK    2  A    between atoms: O_3  and  C_31
REMARK    3  A    between atoms: N_4  and  C_15
REMARK    4  A    between atoms: N_7  and  C_28
REMARK    5  A    between atoms: C_8  and  C_12
REMARK    6  A    between atoms: C_9  and  C_15
REMARK    7  A    between atoms: C_11  and  C_16
REMARK    8  A    between atoms: C_12  and  C_17
REMARK    9  A    between atoms: C_12  and  C_18
REMARK   10  A    between atoms: C_13  and  C_19
REMARK   11  A    between atoms: C_16  and  C_20
REMARK                            x       y       z     vdW  Elec       q    Type
REMARK                         _______ _______ _______ _____ _____    ______ ____
ROOT
ATOM      8  C   UNL     1      -3.227 -12.555  13.757  0.00  0.00    +0.000 C 
ATOM      9  C   UNL     1      -2.138 -11.609  14.322  0.00  0.00    +0.032 C 
ATOM     10  C   UNL     1      -2.974 -12.835  12.268  0.00  0.00    +0.012 C 
ATOM     11  C   UNL     1      -2.964 -11.545  11.426  0.00  0.00    +0.022 C 
ATOM     13  C   UNL     1      -2.118 -10.463  12.064  0.00  0.00    -0.073 C 
ATOM     14  C   UNL     1      -1.747 -10.514  13.356  0.00  0.00    -0.022 C 
ATOM     19  C   UNL     1      -1.669  -9.340  11.171  0.00  0.00    +0.039 C 
ENDROOT
BRANCH   8  12
ATOM     12  C   UNL     1      -3.288 -13.876  14.530  0.00  0.00    -0.013 C 
ATOM     17  C   UNL     1      -4.687 -14.477  14.448  0.00  0.00    +0.007 C 
ATOM     18  C   UNL     1      -2.247 -14.854  13.995  0.00  0.00    +0.007 C 
ENDBRANCH   8  12
BRANCH   9  15
ATOM     15  C   UNL     1      -2.583 -10.983  15.648  0.00  0.00    +0.113 C 
BRANCH  15   4
ATOM      2  O   UNL     1      -5.192 -11.560  16.678  0.00  0.00    -0.253 OA
ATOM      4  N   UNL     1      -3.764 -10.199  15.470  0.00  0.00    -0.299 N 
ATOM      7  N   UNL     1      -5.984  -9.594  15.669  0.00  0.00    -0.269 N 
ATOM     21  C   UNL     1      -5.018 -10.546  16.007  0.00  0.00    +0.304 C 
ATOM     35  H   UNL     1      -3.687  -9.310  14.985  0.00  0.00    +0.150 HD
ATOM     37  H   UNL     1      -5.672  -8.810  15.102  0.00  0.00    +0.156 HD
BRANCH   7  28
ATOM      1  F   UNL     1     -11.356  -9.566  17.036  0.00  0.00    -0.205 F 
ATOM     28  C   UNL     1      -7.354  -9.587  16.017  0.00  0.00    +0.035 A 
ATOM     29  C   UNL     1      -7.738  -9.324  17.332  0.00  0.00    +0.026 A 
ATOM     30  C   UNL     1      -8.322  -9.843  15.046  0.00  0.00    +0.026 A 
ATOM     32  C   UNL     1      -9.090  -9.316  17.677  0.00  0.00    +0.040 A 
ATOM     33  C   UNL     1      -9.674  -9.835  15.390  0.00  0.00    +0.040 A 
ATOM     34  C   UNL     1     -10.058  -9.572  16.705  0.00  0.00    +0.124 A 
ENDBRANCH   7  28
ENDBRANCH  15   4
ENDBRANCH   9  15
BRANCH  11  16
ATOM     16  C   UNL     1      -4.390 -11.045  11.165  0.00  0.00    +0.082 C 
BRANCH  16  20
ATOM      5  N   UNL     1      -4.076 -11.862   8.822  0.00  0.00    -0.342 N 
ATOM      6  N   UNL     1      -5.567 -10.235   9.090  0.00  0.00    -0.232 NA
ATOM     20  C   UNL     1      -4.703 -11.020   9.696  0.00  0.00    +0.109 A 
ATOM     22  C   UNL     1      -4.567 -11.604   7.567  0.00  0.00    +0.070 A 
ATOM     23  C   UNL     1      -5.496 -10.586   7.761  0.00  0.00    +0.089 A 
ATOM     24  C   UNL     1      -4.287 -12.158   6.317  0.00  0.00    +0.073 A 
ATOM     25  C   UNL     1      -6.196 -10.077   6.655  0.00  0.00    +0.033 A 
ATOM     26  C   UNL     1      -4.993 -11.640   5.227  0.00  0.00    +0.122 A 
ATOM     27  C   UNL     1      -5.931 -10.618   5.391  0.00  0.00    +0.048 A 
ATOM     36  H   UNL     1      -3.376 -12.553   9.055  0.00  0.00    +0.167 HD
BRANCH  26   3
ATOM      3  O   UNL     1      -4.760 -12.143   3.981  0.00  0.00    -0.495 OA
ATOM     31  C   UNL     1      -3.410 -12.464   3.657  0.00  0.00    +0.277 C 
ENDBRANCH  26   3
ENDBRANCH  16  20
ENDBRANCH  11  16
TORSDOF 7
ENDMDL
MODEL 7
REMARK VINA RESULT:      -6.7     22.338     25.673
REMARK  Name = 75536153
REMARK  11 active torsions:
REMARK  status: ('A' for Active; 'I' for Inactive)
REMARK    1  A    between atoms: O_3  and  C_26
REMARK    2  A    between atoms: O_3  and  C_31
REMARK    3  A    between atoms: N_4  and  C_15
REMARK    4  A    between atoms: N_7  and  C_28
REMARK    5  A    between atoms: C_8  and  C_12
REMARK    6  A    between atoms: C_9  and  C_15
REMARK    7  A    between atoms: C_11  and  C_16
REMARK    8  A    between atoms: C_12  and  C_17
REMARK    9  A    between atoms: C_12  and  C_18
REMARK   10  A    between atoms: C_13  and  C_19
REMARK   11  A    between atoms: C_16  and  C_20
REMARK                            x       y       z     vdW  Elec       q    Type
REMARK                         _______ _______ _______ _____ _____    ______ ____
ROOT
ATOM      8  C   UNL     1     -12.742  10.529  20.855  0.00  0.00    +0.000 C 
ATOM      9  C   UNL     1     -11.603  10.711  19.820  0.00  0.00    +0.032 C 
ATOM     10  C   UNL     1     -12.557   9.217  21.632  0.00  0.00    +0.012 C 
ATOM     11  C   UNL     1     -12.541   7.988  20.703  0.00  0.00    +0.022 C 
ATOM     13  C   UNL     1     -11.638   8.199  19.505  0.00  0.00    -0.073 C 
ATOM     14  C   UNL     1     -11.218   9.421  19.133  0.00  0.00    -0.022 C 
ATOM     19  C   UNL     1     -11.191   6.966  18.770  0.00  0.00    +0.039 C 
ENDROOT
BRANCH   8  12
ATOM     12  C   UNL     1     -12.812  11.706  21.834  0.00  0.00    -0.013 C 
ATOM     17  C   UNL     1     -14.240  12.233  21.931  0.00  0.00    +0.007 C 
ATOM     18  C   UNL     1     -12.295  11.288  23.206  0.00  0.00    +0.007 C 
ENDBRANCH   8  12
BRANCH   9  15
ATOM     15  C   UNL     1     -11.976  11.758  18.764  0.00  0.00    +0.113 C 
BRANCH  15   4
ATOM      2  O   UNL     1     -10.405  11.622  16.374  0.00  0.00    -0.253 OA
ATOM      4  N   UNL     1     -10.850  12.572  18.436  0.00  0.00    -0.299 N 
ATOM      7  N   UNL     1      -9.077  13.375  17.193  0.00  0.00    -0.269 N 
ATOM     21  C   UNL     1     -10.122  12.448  17.237  0.00  0.00    +0.304 C 
ATOM     35  H   UNL     1     -10.595  13.325  19.068  0.00  0.00    +0.150 HD
ATOM     37  H   UNL     1      -8.978  13.991  17.997  0.00  0.00    +0.156 HD
BRANCH   7  28
ATOM      1  F   UNL     1      -5.357  14.116  13.151  0.00  0.00    -0.205 F 
ATOM     28  C   UNL     1      -8.128  13.564  16.162  0.00  0.00    +0.035 A 
ATOM     29  C   UNL     1      -8.551  13.919  14.881  0.00  0.00    +0.026 A 
ATOM     30  C   UNL     1      -6.768  13.396  16.426  0.00  0.00    +0.026 A 
ATOM     32  C   UNL     1      -7.615  14.106  13.864  0.00  0.00    +0.040 A 
ATOM     33  C   UNL     1      -5.832  13.583  15.409  0.00  0.00    +0.040 A 
ATOM     34  C   UNL     1      -6.255  13.938  14.128  0.00  0.00    +0.124 A 
ENDBRANCH   7  28
ENDBRANCH  15   4
ENDBRANCH   9  15
BRANCH  11  16
ATOM     16  C   UNL     1     -13.960   7.612  20.262  0.00  0.00    +0.082 C 
BRANCH  16  20
ATOM      5  N   UNL     1     -15.810   6.071  20.941  0.00  0.00    -0.342 N 
ATOM      6  N   UNL     1     -14.009   6.058  22.244  0.00  0.00    -0.232 NA
ATOM     20  C   UNL     1     -14.563   6.579  21.172  0.00  0.00    +0.109 A 
ATOM     22  C   UNL     1     -16.080   5.160  21.931  0.00  0.00    +0.070 A 
ATOM     23  C   UNL     1     -14.941   5.170  22.731  0.00  0.00    +0.089 A 
ATOM     24  C   UNL     1     -17.190   4.353  22.187  0.00  0.00    +0.073 A 
ATOM     25  C   UNL     1     -14.888   4.333  23.858  0.00  0.00    +0.033 A 
ATOM     26  C   UNL     1     -17.119   3.526  23.312  0.00  0.00    +0.122 A 
ATOM     27  C   UNL     1     -15.990   3.514  24.134  0.00  0.00    +0.048 A 
ATOM     36  H   UNL     1     -16.425   6.319  20.178  0.00  0.00    +0.167 HD
BRANCH  26   3
ATOM      3  O   UNL     1     -18.175   2.716  23.612  0.00  0.00    -0.495 OA
ATOM     31  C   UNL     1     -18.067   1.347  23.231  0.00  0.00    +0.277 C 
ENDBRANCH  26   3
ENDBRANCH  16  20
ENDBRANCH  11  16
TORSDOF 7
ENDMDL
MODEL 8
REMARK VINA RESULT:      -6.7      3.720      4.586
REMARK  Name = 75536153
REMARK  11 active torsions:
REMARK  status: ('A' for Active; 'I' for Inactive)
REMARK    1  A    between atoms: O_3  and  C_26
REMARK    2  A    between atoms: O_3  and  C_31
REMARK    3  A    between atoms: N_4  and  C_15
REMARK    4  A    between atoms: N_7  and  C_28
REMARK    5  A    between atoms: C_8  and  C_12
REMARK    6  A    between atoms: C_9  and  C_15
REMARK    7  A    between atoms: C_11  and  C_16
REMARK    8  A    between atoms: C_12  and  C_17
REMARK    9  A    between atoms: C_12  and  C_18
REMARK   10  A    between atoms: C_13  and  C_19
REMARK   11  A    between atoms: C_16  and  C_20
REMARK                            x       y       z     vdW  Elec       q    Type
REMARK                         _______ _______ _______ _____ _____    ______ ____
ROOT
ATOM      8  C   UNL     1      -3.885 -10.053  11.318  0.00  0.00    +0.000 C 
ATOM      9  C   UNL     1      -4.943  -9.454  12.278  0.00  0.00    +0.032 C 
ATOM     10  C   UNL     1      -3.839  -9.254  10.006  0.00  0.00    +0.012 C 
ATOM     11  C   UNL     1      -5.201  -9.240   9.285  0.00  0.00    +0.022 C 
ATOM     13  C   UNL     1      -6.337  -8.919  10.234  0.00  0.00    -0.073 C 
ATOM     14  C   UNL     1      -6.200  -9.007  11.569  0.00  0.00    -0.022 C 
ATOM     19  C   UNL     1      -7.623  -8.449   9.614  0.00  0.00    +0.039 C 
ENDROOT
BRANCH   8  12
ATOM     12  C   UNL     1      -2.492 -10.083  11.955  0.00  0.00    -0.013 C 
ATOM     17  C   UNL     1      -2.043 -11.523  12.183  0.00  0.00    +0.007 C 
ATOM     18  C   UNL     1      -1.491  -9.337  11.080  0.00  0.00    +0.007 C 
ENDBRANCH   8  12
BRANCH   9  15
ATOM     15  C   UNL     1      -5.310 -10.449  13.386  0.00  0.00    +0.113 C 
BRANCH  15   4
ATOM      2  O   UNL     1      -7.883 -10.972  14.528  0.00  0.00    -0.253 OA
ATOM      4  N   UNL     1      -5.904  -9.775  14.497  0.00  0.00    -0.299 N 
ATOM      7  N   UNL     1      -7.494  -9.265  16.092  0.00  0.00    -0.269 N 
ATOM     21  C   UNL     1      -7.179 -10.087  15.006  0.00  0.00    +0.304 C 
ATOM     35  H   UNL     1      -5.356  -9.078  14.990  0.00  0.00    +0.150 HD
ATOM     37  H   UNL     1      -6.796  -8.577  16.361  0.00  0.00    +0.156 HD
BRANCH   7  28
ATOM      1  F   UNL     1     -12.126  -9.280  19.137  0.00  0.00    -0.205 F 
ATOM     28  C   UNL     1      -8.676  -9.269  16.868  0.00  0.00    +0.035 A 
ATOM     29  C   UNL     1      -9.661  -8.307  16.645  0.00  0.00    +0.026 A 
ATOM     30  C   UNL     1      -8.856 -10.235  17.858  0.00  0.00    +0.026 A 
ATOM     32  C   UNL     1     -10.827  -8.311  17.410  0.00  0.00    +0.040 A 
ATOM     33  C   UNL     1     -10.023 -10.239  18.624  0.00  0.00    +0.040 A 
ATOM     34  C   UNL     1     -11.007  -9.277  18.400  0.00  0.00    +0.124 A 
ENDBRANCH   7  28
ENDBRANCH  15   4
ENDBRANCH   9  15
BRANCH  11  16
ATOM     16  C   UNL     1      -5.453 -10.565   8.555  0.00  0.00    +0.082 C 
BRANCH  16  20
ATOM      5  N   UNL     1      -6.315  -9.079   6.737  0.00  0.00    -0.342 N 
ATOM      6  N   UNL     1      -6.340 -11.259   6.302  0.00  0.00    -0.232 NA
ATOM     20  C   UNL     1      -6.037 -10.338   7.190  0.00  0.00    +0.109 A 
ATOM     22  C   UNL     1      -6.833  -9.194   5.472  0.00  0.00    +0.070 A 
ATOM     23  C   UNL     1      -6.838 -10.564   5.224  0.00  0.00    +0.089 A 
ATOM     24  C   UNL     1      -7.284  -8.246   4.553  0.00  0.00    +0.073 A 
ATOM     25  C   UNL     1      -7.319 -11.034   3.990  0.00  0.00    +0.033 A 
ATOM     26  C   UNL     1      -7.758  -8.732   3.330  0.00  0.00    +0.122 A 
ATOM     27  C   UNL     1      -7.776 -10.101   3.051  0.00  0.00    +0.048 A 
ATOM     36  H   UNL     1      -6.166  -8.215   7.242  0.00  0.00    +0.167 HD
BRANCH  26   3
ATOM      3  O   UNL     1      -8.212  -7.851   2.393  0.00  0.00    -0.495 OA
ATOM     31  C   UNL     1      -8.558  -8.386   1.118  0.00  0.00    +0.277 C 
ENDBRANCH  26   3
ENDBRANCH  16  20
ENDBRANCH  11  16
TORSDOF 7
ENDMDL
MODEL 9
REMARK VINA RESULT:      -6.7     23.191     25.751
REMARK  Name = 75536153
REMARK  11 active torsions:
REMARK  status: ('A' for Active; 'I' for Inactive)
REMARK    1  A    between atoms: O_3  and  C_26
REMARK    2  A    between atoms: O_3  and  C_31
REMARK    3  A    between atoms: N_4  and  C_15
REMARK    4  A    between atoms: N_7  and  C_28
REMARK    5  A    between atoms: C_8  and  C_12
REMARK    6  A    between atoms: C_9  and  C_15
REMARK    7  A    between atoms: C_11  and  C_16
REMARK    8  A    between atoms: C_12  and  C_17
REMARK    9  A    between atoms: C_12  and  C_18
REMARK   10  A    between atoms: C_13  and  C_19
REMARK   11  A    between atoms: C_16  and  C_20
REMARK                            x       y       z     vdW  Elec       q    Type
REMARK                         _______ _______ _______ _____ _____    ______ ____
ROOT
ATOM      8  C   UNL     1      10.454   8.630   5.841  0.00  0.00    +0.000 C 
ATOM      9  C   UNL     1      11.659   7.970   6.558  0.00  0.00    +0.032 C 
ATOM     10  C   UNL     1       9.236   8.682   6.775  0.00  0.00    +0.012 C 
ATOM     11  C   UNL     1       8.810   7.282   7.256  0.00  0.00    +0.022 C 
ATOM     13  C   UNL     1       9.995   6.466   7.732  0.00  0.00    -0.073 C 
ATOM     14  C   UNL     1      11.261   6.796   7.422  0.00  0.00    -0.022 C 
ATOM     19  C   UNL     1       9.693   5.286   8.613  0.00  0.00    +0.039 C 
ENDROOT
BRANCH   8  12
ATOM     12  C   UNL     1      10.791  10.041   5.348  0.00  0.00    -0.013 C 
ATOM     17  C   UNL     1      11.246  10.002   3.893  0.00  0.00    +0.007 C 
ATOM     18  C   UNL     1       9.587  10.963   5.513  0.00  0.00    +0.007 C 
ENDBRANCH   8  12
BRANCH   9  15
ATOM     15  C   UNL     1      12.726   7.525   5.552  0.00  0.00    +0.113 C 
BRANCH  15   4
ATOM      2  O   UNL     1      13.209   7.028   2.773  0.00  0.00    -0.253 OA
ATOM      4  N   UNL     1      12.272   6.402   4.794  0.00  0.00    -0.299 N 
ATOM      7  N   UNL     1      11.976   5.039   2.953  0.00  0.00    -0.269 N 
ATOM     21  C   UNL     1      12.548   6.224   3.425  0.00  0.00    +0.304 C 
ATOM     35  H   UNL     1      11.778   5.659   5.277  0.00  0.00    +0.150 HD
ATOM     37  H   UNL     1      11.455   4.484   3.628  0.00  0.00    +0.156 HD
BRANCH   7  28
ATOM      1  F   UNL     1      12.185   2.970  -2.185  0.00  0.00    -0.205 F 
ATOM     28  C   UNL     1      12.030   4.511   1.643  0.00  0.00    +0.035 A 
ATOM     29  C   UNL     1      10.949   4.682   0.777  0.00  0.00    +0.026 A 
ATOM     30  C   UNL     1      13.163   3.819   1.215  0.00  0.00    +0.026 A 
ATOM     32  C   UNL     1      11.002   4.162  -0.516  0.00  0.00    +0.040 A 
ATOM     33  C   UNL     1      13.216   3.299  -0.078  0.00  0.00    +0.040 A 
ATOM     34  C   UNL     1      12.135   3.470  -0.944  0.00  0.00    +0.124 A 
ENDBRANCH   7  28
ENDBRANCH  15   4
ENDBRANCH   9  15
BRANCH  11  16
ATOM     16  C   UNL     1       8.034   6.536   6.165  0.00  0.00    +0.082 C 
BRANCH  16  20
ATOM      5  N   UNL     1       7.512   8.243   4.412  0.00  0.00    -0.342 N 
ATOM      6  N   UNL     1       9.107   6.782   3.899  0.00  0.00    -0.232 NA
ATOM     20  C   UNL     1       8.244   7.163   4.816  0.00  0.00    +0.109 A 
ATOM     22  C   UNL     1       7.928   8.583   3.149  0.00  0.00    +0.070 A 
ATOM     23  C   UNL     1       8.923   7.657   2.852  0.00  0.00    +0.089 A 
ATOM     24  C   UNL     1       7.531   9.590   2.269  0.00  0.00    +0.073 A 
ATOM     25  C   UNL     1       9.571   7.724   1.608  0.00  0.00    +0.033 A 
ATOM     26  C   UNL     1       8.187   9.643   1.036  0.00  0.00    +0.122 A 
ATOM     27  C   UNL     1       9.190   8.727   0.709  0.00  0.00    +0.048 A 
ATOM     36  H   UNL     1       6.792   8.710   4.946  0.00  0.00    +0.167 HD
BRANCH  26   3
ATOM      3  O   UNL     1       7.839  10.607   0.136  0.00  0.00    -0.495 OA
ATOM     31  C   UNL     1       6.453  10.919   0.027  0.00  0.00    +0.277 C 
ENDBRANCH  26   3
ENDBRANCH  16  20
ENDBRANCH  11  16
TORSDOF 7
ENDMDL
MODEL 10
REMARK VINA RESULT:      -6.6     22.682     27.042
REMARK  Name = 75536153
REMARK  11 active torsions:
REMARK  status: ('A' for Active; 'I' for Inactive)
REMARK    1  A    between atoms: O_3  and  C_26
REMARK    2  A    between atoms: O_3  and  C_31
REMARK    3  A    between atoms: N_4  and  C_15
REMARK    4  A    between atoms: N_7  and  C_28
REMARK    5  A    between atoms: C_8  and  C_12
REMARK    6  A    between atoms: C_9  and  C_15
REMARK    7  A    between atoms: C_11  and  C_16
REMARK    8  A    between atoms: C_12  and  C_17
REMARK    9  A    between atoms: C_12  and  C_18
REMARK   10  A    between atoms: C_13  and  C_19
REMARK   11  A    between atoms: C_16  and  C_20
REMARK                            x       y       z     vdW  Elec       q    Type
REMARK                         _______ _______ _______ _____ _____    ______ ____
ROOT
ATOM      8  C   UNL     1      21.902  -7.952   3.314  0.00  0.00    +0.000 C 
ATOM      9  C   UNL     1      22.777  -7.647   2.073  0.00  0.00    +0.032 C 
ATOM     10  C   UNL     1      21.508  -9.437   3.341  0.00  0.00    +0.012 C 
ATOM     11  C   UNL     1      20.729  -9.856   2.080  0.00  0.00    +0.022 C 
ATOM     13  C   UNL     1      21.395  -9.355   0.815  0.00  0.00    -0.073 C 
ATOM     14  C   UNL     1      22.317  -8.377   0.832  0.00  0.00    -0.022 C 
ATOM     19  C   UNL     1      21.008 -10.037  -0.468  0.00  0.00    +0.039 C 
ENDROOT
BRANCH   8  12
ATOM     12  C   UNL     1      22.617  -7.581   4.618  0.00  0.00    -0.013 C 
ATOM     17  C   UNL     1      21.656  -7.683   5.798  0.00  0.00    +0.007 C 
ATOM     18  C   UNL     1      23.832  -8.477   4.831  0.00  0.00    +0.007 C 
ENDBRANCH   8  12
BRANCH   9  15
ATOM     15  C   UNL     1      22.829  -6.142   1.789  0.00  0.00    +0.113 C 
BRANCH  15   4
ATOM      2  O   UNL     1      20.381  -4.715   1.374  0.00  0.00    -0.253 OA
ATOM      4  N   UNL     1      22.219  -5.840   0.533  0.00  0.00    -0.299 N 
ATOM      7  N   UNL     1      20.659  -4.988  -0.941  0.00  0.00    -0.269 N 
ATOM     21  C   UNL     1      21.009  -5.132   0.404  0.00  0.00    +0.304 C 
ATOM     35  H   UNL     1      22.713  -6.091  -0.318  0.00  0.00    +0.150 HD
ATOM     37  H   UNL     1      21.292  -5.396  -1.624  0.00  0.00    +0.156 HD
BRANCH   7  28
ATOM      1  F   UNL     1      16.199  -2.454  -3.042  0.00  0.00    -0.205 F 
ATOM     28  C   UNL     1      19.521  -4.342  -1.477  0.00  0.00    +0.035 A 
ATOM     29  C   UNL     1      18.374  -5.078  -1.771  0.00  0.00    +0.026 A 
ATOM     30  C   UNL     1      19.546  -2.967  -1.712  0.00  0.00    +0.026 A 
ATOM     32  C   UNL     1      17.251  -4.441  -2.299  0.00  0.00    +0.040 A 
ATOM     33  C   UNL     1      18.423  -2.329  -2.240  0.00  0.00    +0.040 A 
ATOM     34  C   UNL     1      17.276  -3.066  -2.534  0.00  0.00    +0.124 A 
ENDBRANCH   7  28
ENDBRANCH  15   4
ENDBRANCH   9  15
BRANCH  11  16
ATOM     16  C   UNL     1      19.270  -9.392   2.153  0.00  0.00    +0.082 C 
BRANCH  16  20
ATOM      5  N   UNL     1      18.820 -11.755   2.843  0.00  0.00    -0.342 N 
ATOM      6  N   UNL     1      17.031 -10.531   2.350  0.00  0.00    -0.232 NA
ATOM     20  C   UNL     1      18.343 -10.539   2.441  0.00  0.00    +0.109 A 
ATOM     22  C   UNL     1      17.746 -12.588   3.025  0.00  0.00    +0.070 A 
ATOM     23  C   UNL     1      16.641 -11.801   2.711  0.00  0.00    +0.089 A 
ATOM     24  C   UNL     1      17.648 -13.921   3.424  0.00  0.00    +0.073 A 
ATOM     25  C   UNL     1      15.355 -12.360   2.794  0.00  0.00    +0.033 A 
ATOM     26  C   UNL     1      16.361 -14.461   3.503  0.00  0.00    +0.122 A 
ATOM     27  C   UNL     1      15.233 -13.697   3.194  0.00  0.00    +0.048 A 
ATOM     36  H   UNL     1      19.791 -11.999   2.984  0.00  0.00    +0.167 HD
BRANCH  26   3
ATOM      3  O   UNL     1      16.205 -15.761   3.887  0.00  0.00    -0.495 OA
ATOM     31  C   UNL     1      16.902 -16.746   3.130  0.00  0.00    +0.277 C 
ENDBRANCH  26   3
ENDBRANCH  16  20
ENDBRANCH  11  16
TORSDOF 7
ENDMDL
