MODEL 1
REMARK VINA RESULT:      -7.5      0.000      0.000
REMARK  Name = 11941431
REMARK  7 active torsions:
REMARK  status: ('A' for Active; 'I' for Inactive)
REMARK    1  A    between atoms: O_4  and  C_24
REMARK    2  A    between atoms: O_4  and  C_32
REMARK    3  A    between atoms: O_7  and  C_34
REMARK    4  A    between atoms: N_10  and  C_12
REMARK    5  A    between atoms: C_20  and  C_24
REMARK    6  A    between atoms: C_23  and  C_26
REMARK    7  A    between atoms: C_32  and  C_34
REMARK                            x       y       z     vdW  Elec       q    Type
REMARK                         _______ _______ _______ _____ _____    ______ ____
ROOT
ATOM      1  O   UNL     1      15.105  11.355  21.939  0.00  0.00    -0.273 OA
ATOM      2  O   UNL     1      16.233   6.220  21.604  0.00  0.00    -0.270 OA
ATOM      9  N   UNL     1      15.367   8.236  20.913  0.00  0.00    -0.284 N 
ATOM     11  N   UNL     1      17.106  10.281  22.116  0.00  0.00    -0.283 N 
ATOM     12  C   UNL     1      14.165   9.889  19.725  0.00  0.00    +0.104 C 
ATOM     13  C   UNL     1      15.521   9.573  20.371  0.00  0.00    +0.183 C 
ATOM     14  C   UNL     1      13.182   9.026  20.517  0.00  0.00    +0.043 C 
ATOM     15  C   UNL     1      13.988   7.776  20.834  0.00  0.00    +0.111 C 
ATOM     16  C   UNL     1      15.858  10.458  21.556  0.00  0.00    +0.240 C 
ATOM     17  C   UNL     1      16.394   7.403  21.304  0.00  0.00    +0.249 C 
ATOM     18  C   UNL     1      17.764   7.973  21.390  0.00  0.00    +0.059 A 
ATOM     19  C   UNL     1      18.053   9.268  21.851  0.00  0.00    +0.046 A 
ATOM     21  C   UNL     1      18.817   7.074  21.146  0.00  0.00    +0.023 A 
ATOM     22  C   UNL     1      19.391   9.608  22.118  0.00  0.00    +0.024 A 
ATOM     23  C   UNL     1      20.142   7.445  21.372  0.00  0.00    -0.017 A 
ATOM     25  C   UNL     1      20.429   8.709  21.871  0.00  0.00    +0.010 A 
ATOM     36  H   UNL     1      17.413  11.024  22.740  0.00  0.00    +0.155 HD
ENDROOT
BRANCH  23  26
ATOM      5  O   UNL     1      22.024   2.930  21.150  0.00  0.00    -0.453 OA
ATOM      6  O   UNL     1      24.168   3.746  20.410  0.00  0.00    -0.453 OA
ATOM     26  C   UNL     1      21.213   6.508  21.111  0.00  0.00    -0.014 A 
ATOM     27  C   UNL     1      20.997   5.140  21.290  0.00  0.00    +0.058 A 
ATOM     28  C   UNL     1      22.464   6.984  20.679  0.00  0.00    +0.012 A 
ATOM     29  C   UNL     1      22.048   4.285  21.030  0.00  0.00    +0.167 A 
ATOM     30  C   UNL     1      23.272   4.751  20.607  0.00  0.00    +0.166 A 
ATOM     31  C   UNL     1      23.513   6.097  20.422  0.00  0.00    +0.050 A 
ATOM     33  C   UNL     1      23.370   2.594  20.754  0.00  0.00    +0.466 C 
ENDBRANCH  23  26
BRANCH  12  10
ATOM      3  O   UNL     1      13.966  11.678  17.455  0.00  0.00    -0.273 OA
ATOM     10  N   UNL     1      14.164   9.530  18.324  0.00  0.00    -0.308 N 
ATOM     20  C   UNL     1      14.064  10.463  17.305  0.00  0.00    +0.239 C 
ATOM     35  H   UNL     1      14.293   8.552  18.081  0.00  0.00    +0.149 HD
BRANCH  20  24
ATOM     24  C   UNL     1      14.090   9.806  15.941  0.00  0.00    +0.256 C 
BRANCH  24   4
ATOM      4  O   UNL     1      13.160   8.745  15.881  0.00  0.00    -0.359 OA
BRANCH   4  32
ATOM     32  C   UNL     1      11.819   9.219  15.798  0.00  0.00    +0.280 C 
BRANCH  32  34
ATOM      8  O   UNL     1      11.173   8.435  18.006  0.00  0.00    -0.248 OA
ATOM     34  C   UNL     1      10.962   8.502  16.803  0.00  0.00    +0.331 C 
BRANCH  34   7
ATOM      7  O   UNL     1       9.900   7.924  16.187  0.00  0.00    -0.479 OA
ATOM     37  H   UNL     1       9.876   6.953  16.332  0.00  0.00    +0.295 HD
ENDBRANCH  34   7
ENDBRANCH  32  34
ENDBRANCH   4  32
ENDBRANCH  24   4
ENDBRANCH  20  24
ENDBRANCH  12  10
TORSDOF 7
ENDMDL
MODEL 2
REMARK VINA RESULT:      -7.5      6.618      9.332
REMARK  Name = 11941431
REMARK  7 active torsions:
REMARK  status: ('A' for Active; 'I' for Inactive)
REMARK    1  A    between atoms: O_4  and  C_24
REMARK    2  A    between atoms: O_4  and  C_32
REMARK    3  A    between atoms: O_7  and  C_34
REMARK    4  A    between atoms: N_10  and  C_12
REMARK    5  A    between atoms: C_20  and  C_24
REMARK    6  A    between atoms: C_23  and  C_26
REMARK    7  A    between atoms: C_32  and  C_34
REMARK                            x       y       z     vdW  Elec       q    Type
REMARK                         _______ _______ _______ _____ _____    ______ ____
ROOT
ATOM      1  O   UNL     1      13.922   8.437  15.062  0.00  0.00    -0.273 OA
ATOM      2  O   UNL     1      15.414  11.739  18.886  0.00  0.00    -0.270 OA
ATOM      9  N   UNL     1      14.675  11.136  16.793  0.00  0.00    -0.284 N 
ATOM     11  N   UNL     1      13.149   8.654  17.194  0.00  0.00    -0.283 N 
ATOM     12  C   UNL     1      14.072  11.194  14.508  0.00  0.00    +0.104 C 
ATOM     13  C   UNL     1      13.636  10.683  15.887  0.00  0.00    +0.183 C 
ATOM     14  C   UNL     1      15.594  11.294  14.628  0.00  0.00    +0.043 C 
ATOM     15  C   UNL     1      15.805  11.709  16.076  0.00  0.00    +0.111 C 
ATOM     16  C   UNL     1      13.623   9.170  16.006  0.00  0.00    +0.240 C 
ATOM     17  C   UNL     1      14.575  11.197  18.166  0.00  0.00    +0.249 C 
ATOM     18  C   UNL     1      13.402  10.551  18.812  0.00  0.00    +0.059 A 
ATOM     19  C   UNL     1      12.834   9.339  18.386  0.00  0.00    +0.046 A 
ATOM     21  C   UNL     1      12.971  11.132  20.018  0.00  0.00    +0.023 A 
ATOM     22  C   UNL     1      11.891   8.706  19.216  0.00  0.00    +0.024 A 
ATOM     23  C   UNL     1      12.001  10.512  20.804  0.00  0.00    -0.017 A 
ATOM     25  C   UNL     1      11.470   9.292  20.410  0.00  0.00    +0.010 A 
ATOM     36  H   UNL     1      12.920   7.663  17.177  0.00  0.00    +0.155 HD
ENDROOT
BRANCH  23  26
ATOM      5  O   UNL     1      10.636  14.355  23.516  0.00  0.00    -0.453 OA
ATOM      6  O   UNL     1      10.334  12.995  25.482  0.00  0.00    -0.453 OA
ATOM     26  C   UNL     1      11.566  11.127  22.040  0.00  0.00    -0.014 A 
ATOM     27  C   UNL     1      11.326  12.502  22.084  0.00  0.00    +0.058 A 
ATOM     28  C   UNL     1      11.389  10.334  23.187  0.00  0.00    +0.012 A 
ATOM     29  C   UNL     1      10.914  13.043  23.285  0.00  0.00    +0.167 A 
ATOM     30  C   UNL     1      10.742  12.266  24.407  0.00  0.00    +0.166 A 
ATOM     31  C   UNL     1      10.972  10.906  24.392  0.00  0.00    +0.050 A 
ATOM     33  C   UNL     1      10.268  14.318  24.910  0.00  0.00    +0.466 C 
ENDBRANCH  23  26
BRANCH  12  10
ATOM      3  O   UNL     1      12.491  11.937  12.196  0.00  0.00    -0.273 OA
ATOM     10  N   UNL     1      13.485  12.485  14.226  0.00  0.00    -0.308 N 
ATOM     20  C   UNL     1      12.740  12.745  13.086  0.00  0.00    +0.239 C 
ATOM     35  H   UNL     1      13.584  13.218  14.922  0.00  0.00    +0.149 HD
BRANCH  20  24
ATOM     24  C   UNL     1      12.248  14.176  13.054  0.00  0.00    +0.256 C 
BRANCH  24   4
ATOM      4  O   UNL     1      11.011  14.263  12.380  0.00  0.00    -0.359 OA
BRANCH   4  32
ATOM     32  C   UNL     1       9.914  14.320  13.287  0.00  0.00    +0.280 C 
BRANCH  32  34
ATOM      8  O   UNL     1       9.076  12.296  12.235  0.00  0.00    -0.248 OA
ATOM     34  C   UNL     1       9.109  13.053  13.194  0.00  0.00    +0.331 C 
BRANCH  34   7
ATOM      7  O   UNL     1       8.408  12.858  14.339  0.00  0.00    -0.479 OA
ATOM     37  H   UNL     1       7.970  13.682  14.645  0.00  0.00    +0.295 HD
ENDBRANCH  34   7
ENDBRANCH  32  34
ENDBRANCH   4  32
ENDBRANCH  24   4
ENDBRANCH  20  24
ENDBRANCH  12  10
TORSDOF 7
ENDMDL
MODEL 3
REMARK VINA RESULT:      -7.4      3.151      5.991
REMARK  Name = 11941431
REMARK  7 active torsions:
REMARK  status: ('A' for Active; 'I' for Inactive)
REMARK    1  A    between atoms: O_4  and  C_24
REMARK    2  A    between atoms: O_4  and  C_32
REMARK    3  A    between atoms: O_7  and  C_34
REMARK    4  A    between atoms: N_10  and  C_12
REMARK    5  A    between atoms: C_20  and  C_24
REMARK    6  A    between atoms: C_23  and  C_26
REMARK    7  A    between atoms: C_32  and  C_34
REMARK                            x       y       z     vdW  Elec       q    Type
REMARK                         _______ _______ _______ _____ _____    ______ ____
ROOT
ATOM      1  O   UNL     1      10.652   9.183  20.868  0.00  0.00    -0.273 OA
ATOM      2  O   UNL     1      15.371  11.160  19.613  0.00  0.00    -0.270 OA
ATOM      9  N   UNL     1      13.419  10.968  20.815  0.00  0.00    -0.284 N 
ATOM     11  N   UNL     1      12.658   8.134  20.613  0.00  0.00    -0.283 N 
ATOM     12  C   UNL     1      11.641  11.388  22.315  0.00  0.00    +0.104 C 
ATOM     13  C   UNL     1      12.581  10.295  21.790  0.00  0.00    +0.183 C 
ATOM     14  C   UNL     1      11.564  12.382  21.155  0.00  0.00    +0.043 C 
ATOM     15  C   UNL     1      12.958  12.323  20.549  0.00  0.00    +0.111 C 
ATOM     16  C   UNL     1      11.874   9.191  21.026  0.00  0.00    +0.240 C 
ATOM     17  C   UNL     1      14.610  10.489  20.311  0.00  0.00    +0.249 C 
ATOM     18  C   UNL     1      14.979   9.080  20.606  0.00  0.00    +0.059 A 
ATOM     19  C   UNL     1      14.063   8.016  20.649  0.00  0.00    +0.046 A 
ATOM     21  C   UNL     1      16.358   8.811  20.675  0.00  0.00    +0.023 A 
ATOM     22  C   UNL     1      14.558   6.700  20.694  0.00  0.00    +0.024 A 
ATOM     23  C   UNL     1      16.827   7.501  20.767  0.00  0.00    -0.017 A 
ATOM     25  C   UNL     1      15.927   6.444  20.764  0.00  0.00    +0.010 A 
ATOM     36  H   UNL     1      12.149   7.303  20.321  0.00  0.00    +0.155 HD
ENDROOT
BRANCH  23  26
ATOM      5  O   UNL     1      20.771   4.645  20.246  0.00  0.00    -0.453 OA
ATOM      6  O   UNL     1      22.259   6.381  21.009  0.00  0.00    -0.453 OA
ATOM     26  C   UNL     1      18.249   7.243  20.841  0.00  0.00    -0.014 A 
ATOM     27  C   UNL     1      18.747   5.992  20.471  0.00  0.00    +0.058 A 
ATOM     28  C   UNL     1      19.118   8.256  21.286  0.00  0.00    +0.012 A 
ATOM     29  C   UNL     1      20.110   5.793  20.559  0.00  0.00    +0.167 A 
ATOM     30  C   UNL     1      20.959   6.784  20.995  0.00  0.00    +0.166 A 
ATOM     31  C   UNL     1      20.494   8.028  21.367  0.00  0.00    +0.050 A 
ATOM     33  C   UNL     1      22.133   5.025  20.532  0.00  0.00    +0.466 C 
ENDBRANCH  23  26
BRANCH  12  10
ATOM      3  O   UNL     1      10.180  12.298  24.646  0.00  0.00    -0.273 OA
ATOM     10  N   UNL     1      12.184  12.011  23.501  0.00  0.00    -0.308 N 
ATOM     20  C   UNL     1      11.400  12.414  24.571  0.00  0.00    +0.239 C 
ATOM     35  H   UNL     1      13.193  12.110  23.570  0.00  0.00    +0.149 HD
BRANCH  20  24
ATOM     24  C   UNL     1      12.233  13.032  25.673  0.00  0.00    +0.256 C 
BRANCH  24   4
ATOM      4  O   UNL     1      13.549  13.280  25.224  0.00  0.00    -0.359 OA
BRANCH   4  32
ATOM     32  C   UNL     1      14.518  12.964  26.219  0.00  0.00    +0.280 C 
BRANCH  32  34
ATOM      8  O   UNL     1      14.919  10.797  27.242  0.00  0.00    -0.248 OA
ATOM     34  C   UNL     1      14.761  11.481  26.241  0.00  0.00    +0.331 C 
BRANCH  34   7
ATOM      7  O   UNL     1      14.783  10.991  24.976  0.00  0.00    -0.479 OA
ATOM     37  H   UNL     1      15.570  11.300  24.478  0.00  0.00    +0.295 HD
ENDBRANCH  34   7
ENDBRANCH  32  34
ENDBRANCH   4  32
ENDBRANCH  24   4
ENDBRANCH  20  24
ENDBRANCH  12  10
TORSDOF 7
ENDMDL
MODEL 4
REMARK VINA RESULT:      -7.2     29.880     33.705
REMARK  Name = 11941431
REMARK  7 active torsions:
REMARK  status: ('A' for Active; 'I' for Inactive)
REMARK    1  A    between atoms: O_4  and  C_24
REMARK    2  A    between atoms: O_4  and  C_32
REMARK    3  A    between atoms: O_7  and  C_34
REMARK    4  A    between atoms: N_10  and  C_12
REMARK    5  A    between atoms: C_20  and  C_24
REMARK    6  A    between atoms: C_23  and  C_26
REMARK    7  A    between atoms: C_32  and  C_34
REMARK                            x       y       z     vdW  Elec       q    Type
REMARK                         _______ _______ _______ _____ _____    ______ ____
ROOT
ATOM      1  O   UNL     1     -16.602   1.570  24.626  0.00  0.00    -0.273 OA
ATOM      2  O   UNL     1     -17.649   6.733  24.534  0.00  0.00    -0.270 OA
ATOM      9  N   UNL     1     -17.051   4.721  25.476  0.00  0.00    -0.284 N 
ATOM     11  N   UNL     1     -15.725   3.219  23.322  0.00  0.00    -0.283 N 
ATOM     12  C   UNL     1     -16.540   3.023  27.039  0.00  0.00    +0.104 C 
ATOM     13  C   UNL     1     -16.093   3.659  25.716  0.00  0.00    +0.183 C 
ATOM     14  C   UNL     1     -18.041   3.312  27.084  0.00  0.00    +0.043 C 
ATOM     15  C   UNL     1     -18.157   4.675  26.421  0.00  0.00    +0.111 C 
ATOM     16  C   UNL     1     -16.203   2.731  24.520  0.00  0.00    +0.240 C 
ATOM     17  C   UNL     1     -16.890   5.765  24.590  0.00  0.00    +0.249 C 
ATOM     18  C   UNL     1     -15.750   5.705  23.638  0.00  0.00    +0.059 A 
ATOM     19  C   UNL     1     -15.304   4.530  23.011  0.00  0.00    +0.046 A 
ATOM     21  C   UNL     1     -15.222   6.946  23.237  0.00  0.00    +0.023 A 
ATOM     22  C   UNL     1     -14.386   4.634  21.952  0.00  0.00    +0.024 A 
ATOM     23  C   UNL     1     -14.276   7.025  22.216  0.00  0.00    -0.017 A 
ATOM     25  C   UNL     1     -13.867   5.870  21.564  0.00  0.00    +0.010 A 
ATOM     36  H   UNL     1     -15.582   2.522  22.594  0.00  0.00    +0.155 HD
ENDROOT
BRANCH  23  26
ATOM      5  O   UNL     1     -11.850   9.979  19.155  0.00  0.00    -0.453 OA
ATOM      6  O   UNL     1     -12.167  11.894  20.583  0.00  0.00    -0.453 OA
ATOM     26  C   UNL     1     -13.740   8.310  21.820  0.00  0.00    -0.014 A 
ATOM     27  C   UNL     1     -13.044   8.430  20.615  0.00  0.00    +0.058 A 
ATOM     28  C   UNL     1     -13.925   9.427  22.653  0.00  0.00    +0.012 A 
ATOM     29  C   UNL     1     -12.551   9.674  20.281  0.00  0.00    +0.167 A 
ATOM     30  C   UNL     1     -12.732  10.767  21.097  0.00  0.00    +0.166 A 
ATOM     31  C   UNL     1     -13.415  10.677  22.292  0.00  0.00    +0.050 A 
ATOM     33  C   UNL     1     -11.611  11.388  19.352  0.00  0.00    +0.466 C 
ENDBRANCH  23  26
BRANCH  12  10
ATOM      3  O   UNL     1     -15.171   1.666  29.202  0.00  0.00    -0.273 OA
ATOM     10  N   UNL     1     -15.858   3.629  28.161  0.00  0.00    -0.308 N 
ATOM     20  C   UNL     1     -15.228   2.891  29.151  0.00  0.00    +0.239 C 
ATOM     35  H   UNL     1     -15.797   4.642  28.193  0.00  0.00    +0.149 HD
BRANCH  20  24
ATOM     24  C   UNL     1     -14.596   3.785  30.197  0.00  0.00    +0.256 C 
BRANCH  24   4
ATOM      4  O   UNL     1     -13.992   3.013  31.213  0.00  0.00    -0.359 OA
BRANCH   4  32
ATOM     32  C   UNL     1     -14.775   2.993  32.402  0.00  0.00    +0.280 C 
BRANCH  32  34
ATOM      8  O   UNL     1     -14.846   0.566  32.300  0.00  0.00    -0.248 OA
ATOM     34  C   UNL     1     -14.823   1.597  32.957  0.00  0.00    +0.331 C 
BRANCH  34   7
ATOM      7  O   UNL     1     -14.840   1.632  34.313  0.00  0.00    -0.479 OA
ATOM     37  H   UNL     1     -15.523   1.034  34.687  0.00  0.00    +0.295 HD
ENDBRANCH  34   7
ENDBRANCH  32  34
ENDBRANCH   4  32
ENDBRANCH  24   4
ENDBRANCH  20  24
ENDBRANCH  12  10
TORSDOF 7
ENDMDL
MODEL 5
REMARK VINA RESULT:      -7.1      3.777      9.307
REMARK  Name = 11941431
REMARK  7 active torsions:
REMARK  status: ('A' for Active; 'I' for Inactive)
REMARK    1  A    between atoms: O_4  and  C_24
REMARK    2  A    between atoms: O_4  and  C_32
REMARK    3  A    between atoms: O_7  and  C_34
REMARK    4  A    between atoms: N_10  and  C_12
REMARK    5  A    between atoms: C_20  and  C_24
REMARK    6  A    between atoms: C_23  and  C_26
REMARK    7  A    between atoms: C_32  and  C_34
REMARK                            x       y       z     vdW  Elec       q    Type
REMARK                         _______ _______ _______ _____ _____    ______ ____
ROOT
ATOM      1  O   UNL     1      22.835   4.537  20.291  0.00  0.00    -0.273 OA
ATOM      2  O   UNL     1      19.632   7.677  23.054  0.00  0.00    -0.270 OA
ATOM      9  N   UNL     1      21.472   7.138  21.783  0.00  0.00    -0.284 N 
ATOM     11  N   UNL     1      20.601   4.919  20.059  0.00  0.00    -0.283 N 
ATOM     12  C   UNL     1      23.567   7.227  20.691  0.00  0.00    +0.104 C 
ATOM     13  C   UNL     1      22.098   6.820  20.513  0.00  0.00    +0.183 C 
ATOM     14  C   UNL     1      23.792   7.104  22.199  0.00  0.00    +0.043 C 
ATOM     15  C   UNL     1      22.453   7.519  22.789  0.00  0.00    +0.111 C 
ATOM     16  C   UNL     1      21.892   5.330  20.318  0.00  0.00    +0.240 C 
ATOM     17  C   UNL     1      20.116   7.247  22.007  0.00  0.00    +0.249 C 
ATOM     18  C   UNL     1      19.191   6.798  20.934  0.00  0.00    +0.059 A 
ATOM     19  C   UNL     1      19.410   5.673  20.121  0.00  0.00    +0.046 A 
ATOM     21  C   UNL     1      17.955   7.466  20.873  0.00  0.00    +0.023 A 
ATOM     22  C   UNL     1      18.357   5.206  19.314  0.00  0.00    +0.024 A 
ATOM     23  C   UNL     1      16.939   7.016  20.030  0.00  0.00    -0.017 A 
ATOM     25  C   UNL     1      17.136   5.878  19.259  0.00  0.00    +0.010 A 
ATOM     36  H   UNL     1      20.510   3.973  19.698  0.00  0.00    +0.155 HD
ENDROOT
BRANCH  23  26
ATOM      5  O   UNL     1      12.071   7.197  19.531  0.00  0.00    -0.453 OA
ATOM      6  O   UNL     1      12.026   9.591  19.801  0.00  0.00    -0.453 OA
ATOM     26  C   UNL     1      15.675   7.719  19.977  0.00  0.00    -0.014 A 
ATOM     27  C   UNL     1      14.493   7.005  19.769  0.00  0.00    +0.058 A 
ATOM     28  C   UNL     1      15.649   9.116  20.135  0.00  0.00    +0.012 A 
ATOM     29  C   UNL     1      13.313   7.718  19.725  0.00  0.00    +0.167 A 
ATOM     30  C   UNL     1      13.288   9.085  19.879  0.00  0.00    +0.166 A 
ATOM     31  C   UNL     1      14.440   9.815  20.086  0.00  0.00    +0.050 A 
ATOM     33  C   UNL     1      11.260   8.389  19.581  0.00  0.00    +0.466 C 
ENDBRANCH  23  26
BRANCH  12  10
ATOM      3  O   UNL     1      25.467   8.129  18.698  0.00  0.00    -0.273 OA
ATOM     10  N   UNL     1      23.786   8.583  20.240  0.00  0.00    -0.308 N 
ATOM     20  C   UNL     1      24.724   8.917  19.275  0.00  0.00    +0.239 C 
ATOM     35  H   UNL     1      23.187   9.314  20.613  0.00  0.00    +0.149 HD
BRANCH  20  24
ATOM     24  C   UNL     1      24.735  10.405  18.998  0.00  0.00    +0.256 C 
BRANCH  24   4
ATOM      4  O   UNL     1      24.819  10.653  17.611  0.00  0.00    -0.359 OA
BRANCH   4  32
ATOM     32  C   UNL     1      23.544  10.580  16.979  0.00  0.00    +0.280 C 
BRANCH  32  34
ATOM      8  O   UNL     1      22.879   9.862  14.755  0.00  0.00    -0.248 OA
ATOM     34  C   UNL     1      23.654   9.801  15.698  0.00  0.00    +0.331 C 
BRANCH  34   7
ATOM      7  O   UNL     1      24.752   9.004  15.727  0.00  0.00    -0.479 OA
ATOM     37  H   UNL     1      25.379   9.270  16.435  0.00  0.00    +0.295 HD
ENDBRANCH  34   7
ENDBRANCH  32  34
ENDBRANCH   4  32
ENDBRANCH  24   4
ENDBRANCH  20  24
ENDBRANCH  12  10
TORSDOF 7
ENDMDL
MODEL 6
REMARK VINA RESULT:      -7.0     14.001     16.280
REMARK  Name = 11941431
REMARK  7 active torsions:
REMARK  status: ('A' for Active; 'I' for Inactive)
REMARK    1  A    between atoms: O_4  and  C_24
REMARK    2  A    between atoms: O_4  and  C_32
REMARK    3  A    between atoms: O_7  and  C_34
REMARK    4  A    between atoms: N_10  and  C_12
REMARK    5  A    between atoms: C_20  and  C_24
REMARK    6  A    between atoms: C_23  and  C_26
REMARK    7  A    between atoms: C_32  and  C_34
REMARK                            x       y       z     vdW  Elec       q    Type
REMARK                         _______ _______ _______ _____ _____    ______ ____
ROOT
ATOM      1  O   UNL     1      10.349   9.403   4.690  0.00  0.00    -0.273 OA
ATOM      2  O   UNL     1      13.905   6.590   7.373  0.00  0.00    -0.270 OA
ATOM      9  N   UNL     1      12.219   6.952   5.851  0.00  0.00    -0.284 N 
ATOM     11  N   UNL     1      12.594   9.718   4.921  0.00  0.00    -0.283 N 
ATOM     12  C   UNL     1      10.470   6.616   4.296  0.00  0.00    +0.104 C 
ATOM     13  C   UNL     1      11.737   7.436   4.571  0.00  0.00    +0.183 C 
ATOM     14  C   UNL     1       9.978   6.241   5.695  0.00  0.00    +0.043 C 
ATOM     15  C   UNL     1      11.265   6.052   6.482  0.00  0.00    +0.111 C 
ATOM     16  C   UNL     1      11.480   8.919   4.766  0.00  0.00    +0.240 C 
ATOM     17  C   UNL     1      13.483   7.153   6.363  0.00  0.00    +0.249 C 
ATOM     18  C   UNL     1      14.374   8.120   5.669  0.00  0.00    +0.059 A 
ATOM     19  C   UNL     1      13.938   9.327   5.098  0.00  0.00    +0.046 A 
ATOM     21  C   UNL     1      15.753   7.855   5.759  0.00  0.00    +0.023 A 
ATOM     22  C   UNL     1      14.900  10.269   4.690  0.00  0.00    +0.024 A 
ATOM     23  C   UNL     1      16.690   8.781   5.306  0.00  0.00    -0.017 A 
ATOM     25  C   UNL     1      16.264   9.995   4.782  0.00  0.00    +0.010 A 
ATOM     36  H   UNL     1      12.432  10.716   4.811  0.00  0.00    +0.155 HD
ENDROOT
BRANCH  23  26
ATOM      5  O   UNL     1      20.922   7.082   3.520  0.00  0.00    -0.453 OA
ATOM      6  O   UNL     1      22.111   7.608   5.548  0.00  0.00    -0.453 OA
ATOM     26  C   UNL     1      18.105   8.490   5.403  0.00  0.00    -0.014 A 
ATOM     27  C   UNL     1      18.768   7.906   4.321  0.00  0.00    +0.058 A 
ATOM     28  C   UNL     1      18.799   8.797   6.586  0.00  0.00    +0.012 A 
ATOM     29  C   UNL     1      20.116   7.646   4.460  0.00  0.00    +0.167 A 
ATOM     30  C   UNL     1      20.795   7.946   5.619  0.00  0.00    +0.166 A 
ATOM     31  C   UNL     1      20.164   8.523   6.702  0.00  0.00    +0.050 A 
ATOM     33  C   UNL     1      22.185   7.062   4.215  0.00  0.00    +0.466 C 
ENDBRANCH  23  26
BRANCH  12  10
ATOM      3  O   UNL     1      10.006   6.215   1.465  0.00  0.00    -0.273 OA
ATOM     10  N   UNL     1      10.775   5.437   3.517  0.00  0.00    -0.308 N 
ATOM     20  C   UNL     1      10.514   5.340   2.159  0.00  0.00    +0.239 C 
ATOM     35  H   UNL     1      11.248   4.667   3.980  0.00  0.00    +0.149 HD
BRANCH  20  24
ATOM     24  C   UNL     1      10.938   3.997   1.604  0.00  0.00    +0.256 C 
BRANCH  24   4
ATOM      4  O   UNL     1      12.058   3.498   2.305  0.00  0.00    -0.359 OA
BRANCH   4  32
ATOM     32  C   UNL     1      13.128   3.161   1.428  0.00  0.00    +0.280 C 
BRANCH  32  34
ATOM      8  O   UNL     1      14.442   5.184   1.717  0.00  0.00    -0.248 OA
ATOM     34  C   UNL     1      14.347   3.967   1.778  0.00  0.00    +0.331 C 
BRANCH  34   7
ATOM      7  O   UNL     1      15.352   3.147   2.178  0.00  0.00    -0.479 OA
ATOM     37  H   UNL     1      15.016   2.382   2.693  0.00  0.00    +0.295 HD
ENDBRANCH  34   7
ENDBRANCH  32  34
ENDBRANCH   4  32
ENDBRANCH  24   4
ENDBRANCH  20  24
ENDBRANCH  12  10
TORSDOF 7
ENDMDL
MODEL 7
REMARK VINA RESULT:      -7.0     15.365     20.253
REMARK  Name = 11941431
REMARK  7 active torsions:
REMARK  status: ('A' for Active; 'I' for Inactive)
REMARK    1  A    between atoms: O_4  and  C_24
REMARK    2  A    between atoms: O_4  and  C_32
REMARK    3  A    between atoms: O_7  and  C_34
REMARK    4  A    between atoms: N_10  and  C_12
REMARK    5  A    between atoms: C_20  and  C_24
REMARK    6  A    between atoms: C_23  and  C_26
REMARK    7  A    between atoms: C_32  and  C_34
REMARK                            x       y       z     vdW  Elec       q    Type
REMARK                         _______ _______ _______ _____ _____    ______ ____
ROOT
ATOM      1  O   UNL     1      10.404   8.138  -2.242  0.00  0.00    -0.273 OA
ATOM      2  O   UNL     1       9.797   4.132   1.125  0.00  0.00    -0.270 OA
ATOM      9  N   UNL     1      10.918   5.483  -0.361  0.00  0.00    -0.284 N 
ATOM     11  N   UNL     1       9.682   8.138  -0.082  0.00  0.00    -0.283 N 
ATOM     12  C   UNL     1      12.540   6.343  -1.851  0.00  0.00    +0.104 C 
ATOM     13  C   UNL     1      11.597   6.720  -0.701  0.00  0.00    +0.183 C 
ATOM     14  C   UNL     1      11.851   5.140  -2.498  0.00  0.00    +0.043 C 
ATOM     15  C   UNL     1      11.210   4.426  -1.319  0.00  0.00    +0.111 C 
ATOM     16  C   UNL     1      10.501   7.691  -1.098  0.00  0.00    +0.240 C 
ATOM     17  C   UNL     1      10.218   5.243   0.802  0.00  0.00    +0.249 C 
ATOM     18  C   UNL     1       9.937   6.393   1.700  0.00  0.00    +0.059 A 
ATOM     19  C   UNL     1       9.609   7.684   1.252  0.00  0.00    +0.046 A 
ATOM     21  C   UNL     1       9.838   6.089   3.070  0.00  0.00    +0.023 A 
ATOM     22  C   UNL     1       9.127   8.621   2.184  0.00  0.00    +0.024 A 
ATOM     23  C   UNL     1       9.402   7.047   3.985  0.00  0.00    -0.017 A 
ATOM     25  C   UNL     1       9.034   8.309   3.540  0.00  0.00    +0.010 A 
ATOM     36  H   UNL     1       9.117   8.954  -0.305  0.00  0.00    +0.155 HD
ENDROOT
BRANCH  23  26
ATOM      5  O   UNL     1       9.875   3.996   7.787  0.00  0.00    -0.453 OA
ATOM      6  O   UNL     1       9.095   5.655   9.351  0.00  0.00    -0.453 OA
ATOM     26  C   UNL     1       9.311   6.718   5.392  0.00  0.00    -0.014 A 
ATOM     27  C   UNL     1       9.675   5.443   5.831  0.00  0.00    +0.058 A 
ATOM     28  C   UNL     1       8.856   7.685   6.304  0.00  0.00    +0.012 A 
ATOM     29  C   UNL     1       9.570   5.175   7.180  0.00  0.00    +0.167 A 
ATOM     30  C   UNL     1       9.124   6.123   8.073  0.00  0.00    +0.166 A 
ATOM     31  C   UNL     1       8.759   7.389   7.666  0.00  0.00    +0.050 A 
ATOM     33  C   UNL     1       9.573   4.307   9.162  0.00  0.00    +0.466 C 
ENDBRANCH  23  26
BRANCH  12  10
ATOM      3  O   UNL     1      14.900   8.021  -1.766  0.00  0.00    -0.273 OA
ATOM     10  N   UNL     1      13.849   5.988  -1.351  0.00  0.00    -0.308 N 
ATOM     20  C   UNL     1      14.922   6.865  -1.352  0.00  0.00    +0.239 C 
ATOM     35  H   UNL     1      13.970   5.069  -0.935  0.00  0.00    +0.149 HD
BRANCH  20  24
ATOM     24  C   UNL     1      16.165   6.228  -0.769  0.00  0.00    +0.256 C 
BRANCH  24   4
ATOM      4  O   UNL     1      15.867   5.572   0.445  0.00  0.00    -0.359 OA
BRANCH   4  32
ATOM     32  C   UNL     1      15.860   4.155   0.296  0.00  0.00    +0.280 C 
BRANCH  32  34
ATOM      8  O   UNL     1      13.695   3.395   1.097  0.00  0.00    -0.248 OA
ATOM     34  C   UNL     1      14.896   3.544   1.274  0.00  0.00    +0.331 C 
BRANCH  34   7
ATOM      7  O   UNL     1      15.547   3.173   2.405  0.00  0.00    -0.479 OA
ATOM     37  H   UNL     1      15.069   3.460   3.213  0.00  0.00    +0.295 HD
ENDBRANCH  34   7
ENDBRANCH  32  34
ENDBRANCH   4  32
ENDBRANCH  24   4
ENDBRANCH  20  24
ENDBRANCH  12  10
TORSDOF 7
ENDMDL
MODEL 8
REMARK VINA RESULT:      -6.7      2.731      3.752
REMARK  Name = 11941431
REMARK  7 active torsions:
REMARK  status: ('A' for Active; 'I' for Inactive)
REMARK    1  A    between atoms: O_4  and  C_24
REMARK    2  A    between atoms: O_4  and  C_32
REMARK    3  A    between atoms: O_7  and  C_34
REMARK    4  A    between atoms: N_10  and  C_12
REMARK    5  A    between atoms: C_20  and  C_24
REMARK    6  A    between atoms: C_23  and  C_26
REMARK    7  A    between atoms: C_32  and  C_34
REMARK                            x       y       z     vdW  Elec       q    Type
REMARK                         _______ _______ _______ _____ _____    ______ ____
ROOT
ATOM      1  O   UNL     1      13.153  11.252  19.754  0.00  0.00    -0.273 OA
ATOM      2  O   UNL     1      14.748   6.268  19.141  0.00  0.00    -0.270 OA
ATOM      9  N   UNL     1      14.170   8.392  18.473  0.00  0.00    -0.284 N 
ATOM     11  N   UNL     1      14.882  10.137  20.732  0.00  0.00    -0.283 N 
ATOM     12  C   UNL     1      13.584  10.263  17.152  0.00  0.00    +0.104 C 
ATOM     13  C   UNL     1      14.455   9.808  18.330  0.00  0.00    +0.183 C 
ATOM     14  C   UNL     1      12.417   9.274  17.167  0.00  0.00    +0.043 C 
ATOM     15  C   UNL     1      13.063   7.976  17.624  0.00  0.00    +0.111 C 
ATOM     16  C   UNL     1      14.073  10.437  19.656  0.00  0.00    +0.240 C 
ATOM     17  C   UNL     1      14.932   7.485  19.178  0.00  0.00    +0.249 C 
ATOM     18  C   UNL     1      16.017   8.009  20.048  0.00  0.00    +0.059 A 
ATOM     19  C   UNL     1      15.920   9.184  20.812  0.00  0.00    +0.046 A 
ATOM     21  C   UNL     1      17.126   7.161  20.220  0.00  0.00    +0.023 A 
ATOM     22  C   UNL     1      16.908   9.446  21.778  0.00  0.00    +0.024 A 
ATOM     23  C   UNL     1      18.120   7.463  21.150  0.00  0.00    -0.017 A 
ATOM     25  C   UNL     1      18.005   8.600  21.938  0.00  0.00    +0.010 A 
ATOM     36  H   UNL     1      14.768  10.738  21.545  0.00  0.00    +0.155 HD
ENDROOT
BRANCH  23  26
ATOM      5  O   UNL     1      21.843   5.572  23.709  0.00  0.00    -0.453 OA
ATOM      6  O   UNL     1      22.499   4.132  21.892  0.00  0.00    -0.453 OA
ATOM     26  C   UNL     1      19.257   6.581  21.310  0.00  0.00    -0.014 A 
ATOM     27  C   UNL     1      19.963   6.572  22.514  0.00  0.00    +0.058 A 
ATOM     28  C   UNL     1      19.640   5.740  20.250  0.00  0.00    +0.012 A 
ATOM     29  C   UNL     1      21.040   5.715  22.620  0.00  0.00    +0.167 A 
ATOM     30  C   UNL     1      21.414   4.893  21.582  0.00  0.00    +0.166 A 
ATOM     31  C   UNL     1      20.734   4.882  20.382  0.00  0.00    +0.050 A 
ATOM     33  C   UNL     1      22.765   4.566  23.241  0.00  0.00    +0.466 C 
ENDBRANCH  23  26
BRANCH  12  10
ATOM      3  O   UNL     1      15.301  12.292  15.999  0.00  0.00    -0.273 OA
ATOM     10  N   UNL     1      14.316  10.187  15.908  0.00  0.00    -0.308 N 
ATOM     20  C   UNL     1      15.117  11.216  15.437  0.00  0.00    +0.239 C 
ATOM     35  H   UNL     1      14.278   9.318  15.382  0.00  0.00    +0.149 HD
BRANCH  20  24
ATOM     24  C   UNL     1      15.762  10.861  14.115  0.00  0.00    +0.256 C 
BRANCH  24   4
ATOM      4  O   UNL     1      14.975  11.321  13.036  0.00  0.00    -0.359 OA
BRANCH   4  32
ATOM     32  C   UNL     1      15.732  12.111  12.125  0.00  0.00    +0.280 C 
BRANCH  32  34
ATOM      8  O   UNL     1      15.003  13.758  10.493  0.00  0.00    -0.248 OA
ATOM     34  C   UNL     1      14.820  12.706  11.087  0.00  0.00    +0.331 C 
BRANCH  34   7
ATOM      7  O   UNL     1      13.744  11.902  10.894  0.00  0.00    -0.479 OA
ATOM     37  H   UNL     1      13.532  11.796   9.941  0.00  0.00    +0.295 HD
ENDBRANCH  34   7
ENDBRANCH  32  34
ENDBRANCH   4  32
ENDBRANCH  24   4
ENDBRANCH  20  24
ENDBRANCH  12  10
TORSDOF 7
ENDMDL
MODEL 9
REMARK VINA RESULT:      -6.7     28.964     31.837
REMARK  Name = 11941431
REMARK  7 active torsions:
REMARK  status: ('A' for Active; 'I' for Inactive)
REMARK    1  A    between atoms: O_4  and  C_24
REMARK    2  A    between atoms: O_4  and  C_32
REMARK    3  A    between atoms: O_7  and  C_34
REMARK    4  A    between atoms: N_10  and  C_12
REMARK    5  A    between atoms: C_20  and  C_24
REMARK    6  A    between atoms: C_23  and  C_26
REMARK    7  A    between atoms: C_32  and  C_34
REMARK                            x       y       z     vdW  Elec       q    Type
REMARK                         _______ _______ _______ _____ _____    ______ ____
ROOT
ATOM      1  O   UNL     1     -14.040  -7.208  16.156  0.00  0.00    -0.273 OA
ATOM      2  O   UNL     1     -10.814 -10.172  13.229  0.00  0.00    -0.270 OA
ATOM      9  N   UNL     1     -12.111  -8.341  13.739  0.00  0.00    -0.284 N 
ATOM     11  N   UNL     1     -12.013  -8.112  16.670  0.00  0.00    -0.283 N 
ATOM     12  C   UNL     1     -13.337  -6.326  13.575  0.00  0.00    +0.104 C 
ATOM     13  C   UNL     1     -12.341  -7.098  14.451  0.00  0.00    +0.183 C 
ATOM     14  C   UNL     1     -14.084  -7.431  12.826  0.00  0.00    +0.043 C 
ATOM     15  C   UNL     1     -13.017  -8.493  12.609  0.00  0.00    +0.111 C 
ATOM     16  C   UNL     1     -12.895  -7.499  15.804  0.00  0.00    +0.240 C 
ATOM     17  C   UNL     1     -11.067  -9.214  13.961  0.00  0.00    +0.249 C 
ATOM     18  C   UNL     1     -10.218  -8.999  15.161  0.00  0.00    +0.059 A 
ATOM     19  C   UNL     1     -10.706  -8.576  16.409  0.00  0.00    +0.046 A 
ATOM     21  C   UNL     1      -8.879  -9.416  15.047  0.00  0.00    +0.023 A 
ATOM     22  C   UNL     1      -9.855  -8.645  17.527  0.00  0.00    +0.024 A 
ATOM     23  C   UNL     1      -8.038  -9.432  16.158  0.00  0.00    -0.017 A 
ATOM     25  C   UNL     1      -8.529  -9.058  17.401  0.00  0.00    +0.010 A 
ATOM     36  H   UNL     1     -12.316  -8.159  17.640  0.00  0.00    +0.155 HD
ENDROOT
BRANCH  23  26
ATOM      5  O   UNL     1      -4.083 -10.607  13.519  0.00  0.00    -0.453 OA
ATOM      6  O   UNL     1      -2.775 -11.069  15.490  0.00  0.00    -0.453 OA
ATOM     26  C   UNL     1      -6.662  -9.860  16.020  0.00  0.00    -0.014 A 
ATOM     27  C   UNL     1      -6.104 -10.002  14.747  0.00  0.00    +0.058 A 
ATOM     28  C   UNL     1      -5.898 -10.128  17.169  0.00  0.00    +0.012 A 
ATOM     29  C   UNL     1      -4.789 -10.413  14.666  0.00  0.00    +0.167 A 
ATOM     30  C   UNL     1      -4.043 -10.676  15.792  0.00  0.00    +0.166 A 
ATOM     31  C   UNL     1      -4.569 -10.544  17.060  0.00  0.00    +0.050 A 
ATOM     33  C   UNL     1      -2.807 -11.022  14.049  0.00  0.00    +0.466 C 
ENDBRANCH  23  26
BRANCH  12  10
ATOM      3  O   UNL     1     -13.731  -3.475  13.242  0.00  0.00    -0.273 OA
ATOM     10  N   UNL     1     -12.647  -5.448  12.657  0.00  0.00    -0.308 N 
ATOM     20  C   UNL     1     -12.906  -4.089  12.571  0.00  0.00    +0.239 C 
ATOM     35  H   UNL     1     -11.904  -5.841  12.087  0.00  0.00    +0.149 HD
BRANCH  20  24
ATOM     24  C   UNL     1     -12.036  -3.419  11.529  0.00  0.00    +0.256 C 
BRANCH  24   4
ATOM      4  O   UNL     1     -12.327  -3.918  10.241  0.00  0.00    -0.359 OA
BRANCH   4  32
ATOM     32  C   UNL     1     -11.379  -3.478   9.274  0.00  0.00    +0.280 C 
BRANCH  32  34
ATOM      8  O   UNL     1     -10.568  -5.761   9.078  0.00  0.00    -0.248 OA
ATOM     34  C   UNL     1     -10.360  -4.557   9.032  0.00  0.00    +0.331 C 
BRANCH  34   7
ATOM      7  O   UNL     1      -9.152  -4.006   8.752  0.00  0.00    -0.479 OA
ATOM     37  H   UNL     1      -8.977  -3.209   9.299  0.00  0.00    +0.295 HD
ENDBRANCH  34   7
ENDBRANCH  32  34
ENDBRANCH   4  32
ENDBRANCH  24   4
ENDBRANCH  20  24
ENDBRANCH  12  10
TORSDOF 7
ENDMDL
MODEL 10
REMARK VINA RESULT:      -6.7      3.181      5.855
REMARK  Name = 11941431
REMARK  7 active torsions:
REMARK  status: ('A' for Active; 'I' for Inactive)
REMARK    1  A    between atoms: O_4  and  C_24
REMARK    2  A    between atoms: O_4  and  C_32
REMARK    3  A    between atoms: O_7  and  C_34
REMARK    4  A    between atoms: N_10  and  C_12
REMARK    5  A    between atoms: C_20  and  C_24
REMARK    6  A    between atoms: C_23  and  C_26
REMARK    7  A    between atoms: C_32  and  C_34
REMARK                            x       y       z     vdW  Elec       q    Type
REMARK                         _______ _______ _______ _____ _____    ______ ____
ROOT
ATOM      1  O   UNL     1      12.086   9.521  18.807  0.00  0.00    -0.273 OA
ATOM      2  O   UNL     1      16.874  10.931  20.493  0.00  0.00    -0.270 OA
ATOM      9  N   UNL     1      14.593  10.660  20.615  0.00  0.00    -0.284 N 
ATOM     11  N   UNL     1      14.002   8.299  18.962  0.00  0.00    -0.283 N 
ATOM     12  C   UNL     1      12.336  10.800  21.305  0.00  0.00    +0.104 C 
ATOM     13  C   UNL     1      13.413   9.834  20.794  0.00  0.00    +0.183 C 
ATOM     14  C   UNL     1      12.774  12.154  20.742  0.00  0.00    +0.043 C 
ATOM     15  C   UNL     1      14.292  12.075  20.780  0.00  0.00    +0.111 C 
ATOM     16  C   UNL     1      13.115   9.247  19.428  0.00  0.00    +0.240 C 
ATOM     17  C   UNL     1      15.885  10.198  20.478  0.00  0.00    +0.249 C 
ATOM     18  C   UNL     1      16.089   8.740  20.278  0.00  0.00    +0.059 A 
ATOM     19  C   UNL     1      15.250   7.923  19.503  0.00  0.00    +0.046 A 
ATOM     21  C   UNL     1      17.299   8.219  20.772  0.00  0.00    +0.023 A 
ATOM     22  C   UNL     1      15.677   6.620  19.187  0.00  0.00    +0.024 A 
ATOM     23  C   UNL     1      17.683   6.909  20.488  0.00  0.00    -0.017 A 
ATOM     25  C   UNL     1      16.878   6.113  19.684  0.00  0.00    +0.010 A 
ATOM     36  H   UNL     1      13.675   7.746  18.173  0.00  0.00    +0.155 HD
ENDROOT
BRANCH  23  26
ATOM      5  O   UNL     1      21.102   6.453  23.964  0.00  0.00    -0.453 OA
ATOM      6  O   UNL     1      22.442   4.985  22.602  0.00  0.00    -0.453 OA
ATOM     26  C   UNL     1      18.929   6.388  21.008  0.00  0.00    -0.014 A 
ATOM     27  C   UNL     1      19.345   6.740  22.294  0.00  0.00    +0.058 A 
ATOM     28  C   UNL     1      19.711   5.531  20.214  0.00  0.00    +0.012 A 
ATOM     29  C   UNL     1      20.540   6.220  22.747  0.00  0.00    +0.167 A 
ATOM     30  C   UNL     1      21.304   5.382  21.969  0.00  0.00    +0.166 A 
ATOM     31  C   UNL     1      20.918   5.018  20.696  0.00  0.00    +0.050 A 
ATOM     33  C   UNL     1      22.307   5.666  23.866  0.00  0.00    +0.466 C 
ENDBRANCH  23  26
BRANCH  12  10
ATOM      3  O   UNL     1      10.594  12.380  22.997  0.00  0.00    -0.273 OA
ATOM     10  N   UNL     1      12.303  10.822  22.750  0.00  0.00    -0.308 N 
ATOM     20  C   UNL     1      11.428  11.616  23.475  0.00  0.00    +0.239 C 
ATOM     35  H   UNL     1      12.917  10.187  23.252  0.00  0.00    +0.149 HD
BRANCH  20  24
ATOM     24  C   UNL     1      11.614  11.434  24.966  0.00  0.00    +0.256 C 
BRANCH  24   4
ATOM      4  O   UNL     1      12.947  11.712  25.340  0.00  0.00    -0.359 OA
BRANCH   4  32
ATOM     32  C   UNL     1      13.072  12.997  25.943  0.00  0.00    +0.280 C 
BRANCH  32  34
ATOM      8  O   UNL     1      14.553  13.923  27.632  0.00  0.00    -0.248 OA
ATOM     34  C   UNL     1      14.144  12.962  26.997  0.00  0.00    +0.331 C 
BRANCH  34   7
ATOM      7  O   UNL     1      14.607  11.696  27.153  0.00  0.00    -0.479 OA
ATOM     37  H   UNL     1      15.587  11.670  27.210  0.00  0.00    +0.295 HD
ENDBRANCH  34   7
ENDBRANCH  32  34
ENDBRANCH   4  32
ENDBRANCH  24   4
ENDBRANCH  20  24
ENDBRANCH  12  10
TORSDOF 7
ENDMDL
