MODEL 1
REMARK VINA RESULT:      -6.3      0.000      0.000
REMARK  Name = 71694020
REMARK  9 active torsions:
REMARK  status: ('A' for Active; 'I' for Inactive)
REMARK    1  A    between atoms: S_1  and  N_7
REMARK    2  A    between atoms: S_1  and  C_17
REMARK    3  A    between atoms: O_2  and  C_10
REMARK    4  A    between atoms: O_3  and  C_12
REMARK    5  A    between atoms: O_6  and  C_25
REMARK    6  A    between atoms: O_6  and  C_26
REMARK    7  A    between atoms: N_7  and  C_9
REMARK    8  A    between atoms: C_8  and  C_13
REMARK    9  A    between atoms: C_14  and  C_18
REMARK                            x       y       z     vdW  Elec       q    Type
REMARK                         _______ _______ _______ _____ _____    ______ ____
ROOT
ATOM      8  C   UNL     1      15.699   8.916  20.374  0.00  0.00    +0.043 C 
ATOM      9  C   UNL     1      14.743   7.703  20.544  0.00  0.00    +0.115 C 
ATOM     10  C   UNL     1      15.648   6.475  20.704  0.00  0.00    +0.162 C 
ATOM     11  C   UNL     1      17.116   8.352  20.573  0.00  0.00    +0.043 C 
ATOM     12  C   UNL     1      16.982   6.912  20.103  0.00  0.00    +0.145 C 
ENDROOT
BRANCH   8  13
ATOM     13  C   UNL     1      15.388  10.077  21.292  0.00  0.00    -0.040 A 
ATOM     14  C   UNL     1      15.500  11.394  20.847  0.00  0.00    -0.047 A 
ATOM     15  C   UNL     1      14.987   9.816  22.602  0.00  0.00    +0.004 A 
ATOM     16  C   UNL     1      15.209  12.450  21.710  0.00  0.00    +0.003 A 
ATOM     18  C   UNL     1      15.928  11.699  19.449  0.00  0.00    +0.044 C 
ATOM     19  C   UNL     1      14.695  10.872  23.466  0.00  0.00    +0.000 A 
ATOM     20  C   UNL     1      14.806  12.188  23.020  0.00  0.00    +0.000 A 
ENDBRANCH   8  13
BRANCH  10   2
ATOM      2  O   UNL     1      15.789   6.207  22.098  0.00  0.00    -0.388 OA
ATOM     28  H   UNL     1      14.941   6.423  22.524  0.00  0.00    +0.210 HD
ENDBRANCH  10   2
BRANCH  12   3
ATOM      3  O   UNL     1      18.066   6.119  20.543  0.00  0.00    -0.389 OA
ATOM     29  H   UNL     1      17.704   5.423  21.116  0.00  0.00    +0.210 HD
ENDBRANCH  12   3
BRANCH   9   7
ATOM      7  N   UNL     1      13.919   7.552  19.316  0.00  0.00    -0.184 NA
ATOM     27  H   UNL     1      14.373   7.717  18.410  0.00  0.00    +0.148 HD
BRANCH   7   1
ATOM      1  S   UNL     1      12.227   7.461  19.437  0.00  0.00    +0.059 S 
ATOM      4  O   UNL     1      11.855   6.213  20.077  0.00  0.00    -0.153 OA
ATOM      5  O   UNL     1      11.646   7.828  18.160  0.00  0.00    -0.153 OA
BRANCH   1  17
ATOM     17  C   UNL     1      11.872   8.777  20.564  0.00  0.00    +0.105 A 
ATOM     21  C   UNL     1      11.406   8.488  21.846  0.00  0.00    +0.032 A 
ATOM     22  C   UNL     1      12.059  10.102  20.170  0.00  0.00    +0.032 A 
ATOM     23  C   UNL     1      11.125   9.526  22.735  0.00  0.00    +0.047 A 
ATOM     24  C   UNL     1      11.780  11.139  21.060  0.00  0.00    +0.047 A 
ATOM     25  C   UNL     1      11.313  10.851  22.342  0.00  0.00    +0.120 A 
BRANCH  25   6
ATOM      6  O   UNL     1      11.038  11.863  23.210  0.00  0.00    -0.495 OA
ATOM     26  C   UNL     1      11.000  11.536  24.599  0.00  0.00    +0.277 C 
ENDBRANCH  25   6
ENDBRANCH   1  17
ENDBRANCH   7   1
ENDBRANCH   9   7
TORSDOF 7
ENDMDL
MODEL 2
REMARK VINA RESULT:      -6.0      1.878      2.797
REMARK  Name = 71694020
REMARK  9 active torsions:
REMARK  status: ('A' for Active; 'I' for Inactive)
REMARK    1  A    between atoms: S_1  and  N_7
REMARK    2  A    between atoms: S_1  and  C_17
REMARK    3  A    between atoms: O_2  and  C_10
REMARK    4  A    between atoms: O_3  and  C_12
REMARK    5  A    between atoms: O_6  and  C_25
REMARK    6  A    between atoms: O_6  and  C_26
REMARK    7  A    between atoms: N_7  and  C_9
REMARK    8  A    between atoms: C_8  and  C_13
REMARK    9  A    between atoms: C_14  and  C_18
REMARK                            x       y       z     vdW  Elec       q    Type
REMARK                         _______ _______ _______ _____ _____    ______ ____
ROOT
ATOM      8  C   UNL     1      14.776   7.916  19.545  0.00  0.00    +0.043 C 
ATOM      9  C   UNL     1      14.098   8.058  20.935  0.00  0.00    +0.115 C 
ATOM     10  C   UNL     1      15.155   7.633  21.964  0.00  0.00    +0.162 C 
ATOM     11  C   UNL     1      16.238   7.538  19.839  0.00  0.00    +0.043 C 
ATOM     12  C   UNL     1      16.141   6.790  21.159  0.00  0.00    +0.145 C 
ENDROOT
BRANCH   8  13
ATOM     13  C   UNL     1      14.645   9.141  18.668  0.00  0.00    -0.040 A 
ATOM     14  C   UNL     1      14.238   9.033  17.339  0.00  0.00    -0.047 A 
ATOM     15  C   UNL     1      14.940  10.394  19.207  0.00  0.00    +0.004 A 
ATOM     16  C   UNL     1      14.123  10.176  16.549  0.00  0.00    +0.003 A 
ATOM     18  C   UNL     1      13.917   7.703  16.740  0.00  0.00    +0.044 C 
ATOM     19  C   UNL     1      14.826  11.538  18.417  0.00  0.00    +0.000 A 
ATOM     20  C   UNL     1      14.417  11.429  17.088  0.00  0.00    +0.000 A 
ENDBRANCH   8  13
BRANCH  10   2
ATOM      2  O   UNL     1      15.788   8.811  22.460  0.00  0.00    -0.388 OA
ATOM     28  H   UNL     1      16.168   9.281  21.698  0.00  0.00    +0.210 HD
ENDBRANCH  10   2
BRANCH  12   3
ATOM      3  O   UNL     1      17.402   6.678  21.787  0.00  0.00    -0.389 OA
ATOM     29  H   UNL     1      18.052   6.455  21.099  0.00  0.00    +0.210 HD
ENDBRANCH  12   3
BRANCH   9   7
ATOM      7  N   UNL     1      12.936   7.133  21.011  0.00  0.00    -0.184 NA
ATOM     27  H   UNL     1      13.128   6.126  21.070  0.00  0.00    +0.148 HD
BRANCH   7   1
ATOM      1  S   UNL     1      11.375   7.703  20.657  0.00  0.00    +0.059 S 
ATOM      4  O   UNL     1      10.393   6.840  21.286  0.00  0.00    -0.153 OA
ATOM      5  O   UNL     1      11.293   7.989  19.238  0.00  0.00    -0.153 OA
BRANCH   1  17
ATOM     17  C   UNL     1      11.355   9.256  21.501  0.00  0.00    +0.105 A 
ATOM     21  C   UNL     1      10.936   9.321  22.830  0.00  0.00    +0.032 A 
ATOM     22  C   UNL     1      11.758  10.415  20.839  0.00  0.00    +0.032 A 
ATOM     23  C   UNL     1      10.920  10.546  23.496  0.00  0.00    +0.047 A 
ATOM     24  C   UNL     1      11.742  11.640  21.506  0.00  0.00    +0.047 A 
ATOM     25  C   UNL     1      11.323  11.706  22.834  0.00  0.00    +0.120 A 
BRANCH  25   6
ATOM      6  O   UNL     1      11.305  12.901  23.485  0.00  0.00    -0.495 OA
ATOM     26  C   UNL     1      10.542  12.975  24.689  0.00  0.00    +0.277 C 
ENDBRANCH  25   6
ENDBRANCH   1  17
ENDBRANCH   7   1
ENDBRANCH   9   7
TORSDOF 7
ENDMDL
MODEL 3
REMARK VINA RESULT:      -6.0     27.643     30.361
REMARK  Name = 71694020
REMARK  9 active torsions:
REMARK  status: ('A' for Active; 'I' for Inactive)
REMARK    1  A    between atoms: S_1  and  N_7
REMARK    2  A    between atoms: S_1  and  C_17
REMARK    3  A    between atoms: O_2  and  C_10
REMARK    4  A    between atoms: O_3  and  C_12
REMARK    5  A    between atoms: O_6  and  C_25
REMARK    6  A    between atoms: O_6  and  C_26
REMARK    7  A    between atoms: N_7  and  C_9
REMARK    8  A    between atoms: C_8  and  C_13
REMARK    9  A    between atoms: C_14  and  C_18
REMARK                            x       y       z     vdW  Elec       q    Type
REMARK                         _______ _______ _______ _____ _____    ______ ____
ROOT
ATOM      8  C   UNL     1      -8.836 -12.130  18.722  0.00  0.00    +0.043 C 
ATOM      9  C   UNL     1      -9.482 -10.721  18.617  0.00  0.00    +0.115 C 
ATOM     10  C   UNL     1     -10.587 -10.686  19.681  0.00  0.00    +0.162 C 
ATOM     11  C   UNL     1      -9.512 -12.802  19.929  0.00  0.00    +0.043 C 
ATOM     12  C   UNL     1     -10.889 -12.157  19.955  0.00  0.00    +0.145 C 
ENDROOT
BRANCH   8  13
ATOM     13  C   UNL     1      -7.327 -12.110  18.822  0.00  0.00    -0.040 A 
ATOM     14  C   UNL     1      -6.545 -12.973  18.056  0.00  0.00    -0.047 A 
ATOM     15  C   UNL     1      -6.719 -11.210  19.699  0.00  0.00    +0.004 A 
ATOM     16  C   UNL     1      -5.155 -12.937  18.164  0.00  0.00    +0.003 A 
ATOM     18  C   UNL     1      -7.173 -13.944  17.111  0.00  0.00    +0.044 C 
ATOM     19  C   UNL     1      -5.329 -11.174  19.807  0.00  0.00    +0.000 A 
ATOM     20  C   UNL     1      -4.547 -12.037  19.040  0.00  0.00    +0.000 A 
ENDBRANCH   8  13
BRANCH  10   2
ATOM      2  O   UNL     1     -10.060 -10.055  20.846  0.00  0.00    -0.388 OA
ATOM     28  H   UNL     1     -10.389 -10.546  21.618  0.00  0.00    +0.210 HD
ENDBRANCH  10   2
BRANCH  12   3
ATOM      3  O   UNL     1     -11.534 -12.360  21.196  0.00  0.00    -0.389 OA
ATOM     29  H   UNL     1     -11.414 -13.294  21.438  0.00  0.00    +0.210 HD
ENDBRANCH  12   3
BRANCH   9   7
ATOM      7  N   UNL     1     -10.088 -10.558  17.269  0.00  0.00    -0.184 NA
ATOM     27  H   UNL     1     -10.680 -11.318  16.915  0.00  0.00    +0.148 HD
BRANCH   7   1
ATOM      1  S   UNL     1      -9.533  -9.331  16.234  0.00  0.00    +0.059 S 
ATOM      4  O   UNL     1      -9.425  -8.087  16.973  0.00  0.00    -0.153 OA
ATOM      5  O   UNL     1     -10.292  -9.383  14.999  0.00  0.00    -0.153 OA
BRANCH   1  17
ATOM     17  C   UNL     1      -7.897  -9.885  15.859  0.00  0.00    +0.105 A 
ATOM     21  C   UNL     1      -6.803  -9.321  16.515  0.00  0.00    +0.032 A 
ATOM     22  C   UNL     1      -7.700 -10.886  14.907  0.00  0.00    +0.032 A 
ATOM     23  C   UNL     1      -5.512  -9.758  16.220  0.00  0.00    +0.047 A 
ATOM     24  C   UNL     1      -6.408 -11.323  14.612  0.00  0.00    +0.047 A 
ATOM     25  C   UNL     1      -5.314 -10.759  15.268  0.00  0.00    +0.120 A 
BRANCH  25   6
ATOM      6  O   UNL     1      -4.054 -11.183  14.980  0.00  0.00    -0.495 OA
ATOM     26  C   UNL     1      -3.017 -10.801  15.882  0.00  0.00    +0.277 C 
ENDBRANCH  25   6
ENDBRANCH   1  17
ENDBRANCH   7   1
ENDBRANCH   9   7
TORSDOF 7
ENDMDL
MODEL 4
REMARK VINA RESULT:      -5.9      2.039      4.933
REMARK  Name = 71694020
REMARK  9 active torsions:
REMARK  status: ('A' for Active; 'I' for Inactive)
REMARK    1  A    between atoms: S_1  and  N_7
REMARK    2  A    between atoms: S_1  and  C_17
REMARK    3  A    between atoms: O_2  and  C_10
REMARK    4  A    between atoms: O_3  and  C_12
REMARK    5  A    between atoms: O_6  and  C_25
REMARK    6  A    between atoms: O_6  and  C_26
REMARK    7  A    between atoms: N_7  and  C_9
REMARK    8  A    between atoms: C_8  and  C_13
REMARK    9  A    between atoms: C_14  and  C_18
REMARK                            x       y       z     vdW  Elec       q    Type
REMARK                         _______ _______ _______ _____ _____    ______ ____
ROOT
ATOM      8  C   UNL     1      12.074   8.422  19.146  0.00  0.00    +0.043 C 
ATOM      9  C   UNL     1      13.479   8.873  18.661  0.00  0.00    +0.115 C 
ATOM     10  C   UNL     1      13.278   9.418  17.241  0.00  0.00    +0.162 C 
ATOM     11  C   UNL     1      11.101   8.844  18.032  0.00  0.00    +0.043 C 
ATOM     12  C   UNL     1      11.965   8.790  16.782  0.00  0.00    +0.145 C 
ENDROOT
BRANCH   8  13
ATOM     13  C   UNL     1      11.689   8.960  20.505  0.00  0.00    -0.040 A 
ATOM     14  C   UNL     1      11.276   8.104  21.526  0.00  0.00    -0.047 A 
ATOM     15  C   UNL     1      11.752  10.336  20.731  0.00  0.00    +0.004 A 
ATOM     16  C   UNL     1      10.926   8.623  22.772  0.00  0.00    +0.003 A 
ATOM     18  C   UNL     1      11.200   6.629  21.308  0.00  0.00    +0.044 C 
ATOM     19  C   UNL     1      11.401  10.854  21.978  0.00  0.00    +0.000 A 
ATOM     20  C   UNL     1      10.989   9.998  22.998  0.00  0.00    +0.000 A 
ENDBRANCH   8  13
BRANCH  10   2
ATOM      2  O   UNL     1      13.155  10.837  17.324  0.00  0.00    -0.388 OA
ATOM     28  H   UNL     1      12.334  11.030  17.809  0.00  0.00    +0.210 HD
ENDBRANCH  10   2
BRANCH  12   3
ATOM      3  O   UNL     1      11.370   9.491  15.709  0.00  0.00    -0.389 OA
ATOM     29  H   UNL     1      10.878  10.239  16.086  0.00  0.00    +0.210 HD
ENDBRANCH  12   3
BRANCH   9   7
ATOM      7  N   UNL     1      14.385   7.695  18.614  0.00  0.00    -0.184 NA
ATOM     27  H   UNL     1      14.244   7.012  17.861  0.00  0.00    +0.148 HD
BRANCH   7   1
ATOM      1  S   UNL     1      15.365   7.326  19.951  0.00  0.00    +0.059 S 
ATOM      4  O   UNL     1      16.720   7.071  19.500  0.00  0.00    -0.153 OA
ATOM      5  O   UNL     1      14.678   6.356  20.781  0.00  0.00    -0.153 OA
BRANCH   1  17
ATOM     17  C   UNL     1      15.365   8.856  20.836  0.00  0.00    +0.105 A 
ATOM     21  C   UNL     1      15.874  10.007  20.235  0.00  0.00    +0.032 A 
ATOM     22  C   UNL     1      14.856   8.912  22.133  0.00  0.00    +0.032 A 
ATOM     23  C   UNL     1      15.874  11.216  20.933  0.00  0.00    +0.047 A 
ATOM     24  C   UNL     1      14.855  10.121  22.830  0.00  0.00    +0.047 A 
ATOM     25  C   UNL     1      15.365  11.272  22.230  0.00  0.00    +0.120 A 
BRANCH  25   6
ATOM      6  O   UNL     1      15.366  12.451  22.910  0.00  0.00    -0.495 OA
ATOM     26  C   UNL     1      14.200  12.764  23.671  0.00  0.00    +0.277 C 
ENDBRANCH  25   6
ENDBRANCH   1  17
ENDBRANCH   7   1
ENDBRANCH   9   7
TORSDOF 7
ENDMDL
MODEL 5
REMARK VINA RESULT:      -5.8      2.779      6.719
REMARK  Name = 71694020
REMARK  9 active torsions:
REMARK  status: ('A' for Active; 'I' for Inactive)
REMARK    1  A    between atoms: S_1  and  N_7
REMARK    2  A    between atoms: S_1  and  C_17
REMARK    3  A    between atoms: O_2  and  C_10
REMARK    4  A    between atoms: O_3  and  C_12
REMARK    5  A    between atoms: O_6  and  C_25
REMARK    6  A    between atoms: O_6  and  C_26
REMARK    7  A    between atoms: N_7  and  C_9
REMARK    8  A    between atoms: C_8  and  C_13
REMARK    9  A    between atoms: C_14  and  C_18
REMARK                            x       y       z     vdW  Elec       q    Type
REMARK                         _______ _______ _______ _____ _____    ______ ____
ROOT
ATOM      8  C   UNL     1      12.938   8.286  19.417  0.00  0.00    +0.043 C 
ATOM      9  C   UNL     1      14.246   9.084  19.165  0.00  0.00    +0.115 C 
ATOM     10  C   UNL     1      14.244   9.433  17.670  0.00  0.00    +0.162 C 
ATOM     11  C   UNL     1      12.174   8.319  18.082  0.00  0.00    +0.043 C 
ATOM     12  C   UNL     1      13.288   8.417  17.051  0.00  0.00    +0.145 C 
ENDROOT
BRANCH   8  13
ATOM     13  C   UNL     1      12.120   8.797  20.582  0.00  0.00    -0.040 A 
ATOM     14  C   UNL     1      11.449   7.916  21.429  0.00  0.00    -0.047 A 
ATOM     15  C   UNL     1      12.041  10.173  20.802  0.00  0.00    +0.004 A 
ATOM     16  C   UNL     1      10.700   8.409  22.497  0.00  0.00    +0.003 A 
ATOM     18  C   UNL     1      11.518   6.440  21.214  0.00  0.00    +0.044 C 
ATOM     19  C   UNL     1      11.293  10.666  21.870  0.00  0.00    +0.000 A 
ATOM     20  C   UNL     1      10.622   9.785  22.718  0.00  0.00    +0.000 A 
ENDBRANCH   8  13
BRANCH  10   2
ATOM      2  O   UNL     1      13.735  10.757  17.526  0.00  0.00    -0.388 OA
ATOM     28  H   UNL     1      14.497  11.361  17.488  0.00  0.00    +0.210 HD
ENDBRANCH  10   2
BRANCH  12   3
ATOM      3  O   UNL     1      12.794   8.828  15.792  0.00  0.00    -0.389 OA
ATOM     29  H   UNL     1      11.854   8.585  15.753  0.00  0.00    +0.210 HD
ENDBRANCH  12   3
BRANCH   9   7
ATOM      7  N   UNL     1      15.417   8.218  19.468  0.00  0.00    -0.184 NA
ATOM     27  H   UNL     1      15.697   7.528  18.762  0.00  0.00    +0.148 HD
BRANCH   7   1
ATOM      1  S   UNL     1      16.026   8.141  21.051  0.00  0.00    +0.059 S 
ATOM      4  O   UNL     1      15.128   7.353  21.875  0.00  0.00    -0.153 OA
ATOM      5  O   UNL     1      16.417   9.473  21.467  0.00  0.00    -0.153 OA
BRANCH   1  17
ATOM     17  C   UNL     1      17.513   7.212  20.824  0.00  0.00    +0.105 A 
ATOM     21  C   UNL     1      17.556   6.187  19.879  0.00  0.00    +0.032 A 
ATOM     22  C   UNL     1      18.642   7.504  21.589  0.00  0.00    +0.032 A 
ATOM     23  C   UNL     1      18.729   5.453  19.699  0.00  0.00    +0.047 A 
ATOM     24  C   UNL     1      19.815   6.771  21.408  0.00  0.00    +0.047 A 
ATOM     25  C   UNL     1      19.858   5.745  20.464  0.00  0.00    +0.120 A 
BRANCH  25   6
ATOM      6  O   UNL     1      21.002   5.029  20.288  0.00  0.00    -0.495 OA
ATOM     26  C   UNL     1      21.418   4.194  21.368  0.00  0.00    +0.277 C 
ENDBRANCH  25   6
ENDBRANCH   1  17
ENDBRANCH   7   1
ENDBRANCH   9   7
TORSDOF 7
ENDMDL
MODEL 6
REMARK VINA RESULT:      -5.6     16.183     17.982
REMARK  Name = 71694020
REMARK  9 active torsions:
REMARK  status: ('A' for Active; 'I' for Inactive)
REMARK    1  A    between atoms: S_1  and  N_7
REMARK    2  A    between atoms: S_1  and  C_17
REMARK    3  A    between atoms: O_2  and  C_10
REMARK    4  A    between atoms: O_3  and  C_12
REMARK    5  A    between atoms: O_6  and  C_25
REMARK    6  A    between atoms: O_6  and  C_26
REMARK    7  A    between atoms: N_7  and  C_9
REMARK    8  A    between atoms: C_8  and  C_13
REMARK    9  A    between atoms: C_14  and  C_18
REMARK                            x       y       z     vdW  Elec       q    Type
REMARK                         _______ _______ _______ _____ _____    ______ ____
ROOT
ATOM      8  C   UNL     1      11.201   5.322   3.029  0.00  0.00    +0.043 C 
ATOM      9  C   UNL     1      12.278   6.235   2.381  0.00  0.00    +0.115 C 
ATOM     10  C   UNL     1      12.495   5.688   0.964  0.00  0.00    +0.162 C 
ATOM     11  C   UNL     1      10.749   4.365   1.912  0.00  0.00    +0.043 C 
ATOM     12  C   UNL     1      11.987   4.250   1.036  0.00  0.00    +0.145 C 
ENDROOT
BRANCH   8  13
ATOM     13  C   UNL     1      10.054   6.077   3.663  0.00  0.00    -0.040 A 
ATOM     14  C   UNL     1       9.463   5.626   4.843  0.00  0.00    -0.047 A 
ATOM     15  C   UNL     1       9.588   7.240   3.050  0.00  0.00    +0.004 A 
ATOM     16  C   UNL     1       8.407   6.338   5.410  0.00  0.00    +0.003 A 
ATOM     18  C   UNL     1       9.944   4.384   5.517  0.00  0.00    +0.044 C 
ATOM     19  C   UNL     1       8.532   7.952   3.617  0.00  0.00    +0.000 A 
ATOM     20  C   UNL     1       7.941   7.502   4.797  0.00  0.00    +0.000 A 
ENDBRANCH   8  13
BRANCH  10   2
ATOM      2  O   UNL     1      11.698   6.458   0.066  0.00  0.00    -0.388 OA
ATOM     28  H   UNL     1      11.809   6.077  -0.823  0.00  0.00    +0.210 HD
ENDBRANCH  10   2
BRANCH  12   3
ATOM      3  O   UNL     1      11.676   3.716  -0.235  0.00  0.00    -0.389 OA
ATOM     29  H   UNL     1      12.263   4.142  -0.882  0.00  0.00    +0.210 HD
ENDBRANCH  12   3
BRANCH   9   7
ATOM      7  N   UNL     1      13.544   6.123   3.152  0.00  0.00    -0.184 NA
ATOM     27  H   UNL     1      13.895   5.182   3.365  0.00  0.00    +0.148 HD
BRANCH   7   1
ATOM      1  S   UNL     1      14.178   7.487   3.942  0.00  0.00    +0.059 S 
ATOM      4  O   UNL     1      14.209   8.607   3.020  0.00  0.00    -0.153 OA
ATOM      5  O   UNL     1      15.377   7.098   4.658  0.00  0.00    -0.153 OA
BRANCH   1  17
ATOM     17  C   UNL     1      12.935   7.815   5.155  0.00  0.00    +0.105 A 
ATOM     21  C   UNL     1      12.160   8.971   5.063  0.00  0.00    +0.032 A 
ATOM     22  C   UNL     1      12.728   6.918   6.203  0.00  0.00    +0.032 A 
ATOM     23  C   UNL     1      11.178   9.231   6.021  0.00  0.00    +0.047 A 
ATOM     24  C   UNL     1      11.746   7.177   7.159  0.00  0.00    +0.047 A 
ATOM     25  C   UNL     1      10.972   8.333   7.068  0.00  0.00    +0.120 A 
BRANCH  25   6
ATOM      6  O   UNL     1      10.015   8.588   8.002  0.00  0.00    -0.495 OA
ATOM     26  C   UNL     1       9.577   9.940   8.133  0.00  0.00    +0.277 C 
ENDBRANCH  25   6
ENDBRANCH   1  17
ENDBRANCH   7   1
ENDBRANCH   9   7
TORSDOF 7
ENDMDL
MODEL 7
REMARK VINA RESULT:      -5.5     30.124     32.246
REMARK  Name = 71694020
REMARK  9 active torsions:
REMARK  status: ('A' for Active; 'I' for Inactive)
REMARK    1  A    between atoms: S_1  and  N_7
REMARK    2  A    between atoms: S_1  and  C_17
REMARK    3  A    between atoms: O_2  and  C_10
REMARK    4  A    between atoms: O_3  and  C_12
REMARK    5  A    between atoms: O_6  and  C_25
REMARK    6  A    between atoms: O_6  and  C_26
REMARK    7  A    between atoms: N_7  and  C_9
REMARK    8  A    between atoms: C_8  and  C_13
REMARK    9  A    between atoms: C_14  and  C_18
REMARK                            x       y       z     vdW  Elec       q    Type
REMARK                         _______ _______ _______ _____ _____    ______ ____
ROOT
ATOM      8  C   UNL     1     -17.542   3.195  29.606  0.00  0.00    +0.043 C 
ATOM      9  C   UNL     1     -16.254   2.466  29.135  0.00  0.00    +0.115 C 
ATOM     10  C   UNL     1     -16.392   2.308  27.615  0.00  0.00    +0.162 C 
ATOM     11  C   UNL     1     -18.311   3.540  28.319  0.00  0.00    +0.043 C 
ATOM     12  C   UNL     1     -17.892   2.436  27.362  0.00  0.00    +0.145 C 
ENDROOT
BRANCH   8  13
ATOM     13  C   UNL     1     -17.282   4.398  30.484  0.00  0.00    -0.040 A 
ATOM     14  C   UNL     1     -18.179   4.762  31.488  0.00  0.00    -0.047 A 
ATOM     15  C   UNL     1     -16.125   5.151  30.277  0.00  0.00    +0.004 A 
ATOM     16  C   UNL     1     -17.919   5.876  32.286  0.00  0.00    +0.003 A 
ATOM     18  C   UNL     1     -19.424   3.973  31.729  0.00  0.00    +0.044 C 
ATOM     19  C   UNL     1     -15.866   6.264  31.075  0.00  0.00    +0.000 A 
ATOM     20  C   UNL     1     -16.762   6.627  32.079  0.00  0.00    +0.000 A 
ENDBRANCH   8  13
BRANCH  10   2
ATOM      2  O   UNL     1     -15.684   3.377  26.992  0.00  0.00    -0.388 OA
ATOM     28  H   UNL     1     -16.069   3.507  26.108  0.00  0.00    +0.210 HD
ENDBRANCH  10   2
BRANCH  12   3
ATOM      3  O   UNL     1     -18.194   2.770  26.022  0.00  0.00    -0.389 OA
ATOM     29  H   UNL     1     -18.441   1.949  25.565  0.00  0.00    +0.210 HD
ENDBRANCH  12   3
BRANCH   9   7
ATOM      7  N   UNL     1     -16.190   1.122  29.767  0.00  0.00    -0.184 NA
ATOM     27  H   UNL     1     -17.067   0.597  29.866  0.00  0.00    +0.148 HD
BRANCH   7   1
ATOM      1  S   UNL     1     -14.791   0.643  30.602  0.00  0.00    +0.059 S 
ATOM      4  O   UNL     1     -13.680   0.557  29.671  0.00  0.00    -0.153 OA
ATOM      5  O   UNL     1     -15.117  -0.483  31.454  0.00  0.00    -0.153 OA
BRANCH   1  17
ATOM     17  C   UNL     1     -14.507   2.029  31.661  0.00  0.00    +0.105 A 
ATOM     21  C   UNL     1     -15.347   2.256  32.751  0.00  0.00    +0.032 A 
ATOM     22  C   UNL     1     -13.443   2.895  31.408  0.00  0.00    +0.032 A 
ATOM     23  C   UNL     1     -15.123   3.350  33.588  0.00  0.00    +0.047 A 
ATOM     24  C   UNL     1     -13.219   3.988  32.245  0.00  0.00    +0.047 A 
ATOM     25  C   UNL     1     -14.060   4.216  33.334  0.00  0.00    +0.120 A 
BRANCH  25   6
ATOM      6  O   UNL     1     -13.843   5.283  34.150  0.00  0.00    -0.495 OA
ATOM     26  C   UNL     1     -14.160   5.120  35.532  0.00  0.00    +0.277 C 
ENDBRANCH  25   6
ENDBRANCH   1  17
ENDBRANCH   7   1
ENDBRANCH   9   7
TORSDOF 7
ENDMDL
MODEL 8
REMARK VINA RESULT:      -5.4     30.363     32.226
REMARK  Name = 71694020
REMARK  9 active torsions:
REMARK  status: ('A' for Active; 'I' for Inactive)
REMARK    1  A    between atoms: S_1  and  N_7
REMARK    2  A    between atoms: S_1  and  C_17
REMARK    3  A    between atoms: O_2  and  C_10
REMARK    4  A    between atoms: O_3  and  C_12
REMARK    5  A    between atoms: O_6  and  C_25
REMARK    6  A    between atoms: O_6  and  C_26
REMARK    7  A    between atoms: N_7  and  C_9
REMARK    8  A    between atoms: C_8  and  C_13
REMARK    9  A    between atoms: C_14  and  C_18
REMARK                            x       y       z     vdW  Elec       q    Type
REMARK                         _______ _______ _______ _____ _____    ______ ____
ROOT
ATOM      8  C   UNL     1     -14.868   1.883  29.922  0.00  0.00    +0.043 C 
ATOM      9  C   UNL     1     -15.777   0.652  29.658  0.00  0.00    +0.115 C 
ATOM     10  C   UNL     1     -14.905  -0.581  29.929  0.00  0.00    +0.162 C 
ATOM     11  C   UNL     1     -13.546   1.308  30.459  0.00  0.00    +0.043 C 
ATOM     12  C   UNL     1     -13.475  -0.062  29.802  0.00  0.00    +0.145 C 
ENDROOT
BRANCH   8  13
ATOM     13  C   UNL     1     -15.482   2.917  30.839  0.00  0.00    -0.040 A 
ATOM     14  C   UNL     1     -16.035   4.091  30.330  0.00  0.00    -0.047 A 
ATOM     15  C   UNL     1     -15.488   2.683  32.215  0.00  0.00    +0.004 A 
ATOM     16  C   UNL     1     -16.595   5.031  31.194  0.00  0.00    +0.003 A 
ATOM     18  C   UNL     1     -16.039   4.365  28.862  0.00  0.00    +0.044 C 
ATOM     19  C   UNL     1     -16.049   3.622  33.079  0.00  0.00    +0.000 A 
ATOM     20  C   UNL     1     -16.602   4.796  32.570  0.00  0.00    +0.000 A 
ENDBRANCH   8  13
BRANCH  10   2
ATOM      2  O   UNL     1     -15.164  -1.022  31.260  0.00  0.00    -0.388 OA
ATOM     28  H   UNL     1     -14.662  -1.843  31.399  0.00  0.00    +0.210 HD
ENDBRANCH  10   2
BRANCH  12   3
ATOM      3  O   UNL     1     -12.532  -0.896  30.444  0.00  0.00    -0.389 OA
ATOM     29  H   UNL     1     -11.850  -0.323  30.832  0.00  0.00    +0.210 HD
ENDBRANCH  12   3
BRANCH   9   7
ATOM      7  N   UNL     1     -16.202   0.652  28.233  0.00  0.00    -0.184 NA
ATOM     27  H   UNL     1     -15.472   0.720  27.515  0.00  0.00    +0.148 HD
BRANCH   7   1
ATOM      1  S   UNL     1     -17.837   0.887  27.836  0.00  0.00    +0.059 S 
ATOM      4  O   UNL     1     -18.364   2.002  28.601  0.00  0.00    -0.153 OA
ATOM      5  O   UNL     1     -18.513  -0.396  27.858  0.00  0.00    -0.153 OA
BRANCH   1  17
ATOM     17  C   UNL     1     -17.732   1.388  26.144  0.00  0.00    +0.105 A 
ATOM     21  C   UNL     1     -18.647   0.894  25.214  0.00  0.00    +0.032 A 
ATOM     22  C   UNL     1     -16.736   2.277  25.740  0.00  0.00    +0.032 A 
ATOM     23  C   UNL     1     -18.565   1.289  23.878  0.00  0.00    +0.047 A 
ATOM     24  C   UNL     1     -16.655   2.673  24.405  0.00  0.00    +0.047 A 
ATOM     25  C   UNL     1     -17.569   2.178  23.474  0.00  0.00    +0.120 A 
BRANCH  25   6
ATOM      6  O   UNL     1     -17.489   2.563  22.171  0.00  0.00    -0.495 OA
ATOM     26  C   UNL     1     -18.628   2.314  21.349  0.00  0.00    +0.277 C 
ENDBRANCH  25   6
ENDBRANCH   1  17
ENDBRANCH   7   1
ENDBRANCH   9   7
TORSDOF 7
ENDMDL
MODEL 9
REMARK VINA RESULT:      -5.4     14.449     16.567
REMARK  Name = 71694020
REMARK  9 active torsions:
REMARK  status: ('A' for Active; 'I' for Inactive)
REMARK    1  A    between atoms: S_1  and  N_7
REMARK    2  A    between atoms: S_1  and  C_17
REMARK    3  A    between atoms: O_2  and  C_10
REMARK    4  A    between atoms: O_3  and  C_12
REMARK    5  A    between atoms: O_6  and  C_25
REMARK    6  A    between atoms: O_6  and  C_26
REMARK    7  A    between atoms: N_7  and  C_9
REMARK    8  A    between atoms: C_8  and  C_13
REMARK    9  A    between atoms: C_14  and  C_18
REMARK                            x       y       z     vdW  Elec       q    Type
REMARK                         _______ _______ _______ _____ _____    ______ ____
ROOT
ATOM      8  C   UNL     1       9.428   6.179   6.285  0.00  0.00    +0.043 C 
ATOM      9  C   UNL     1      10.354   7.011   7.214  0.00  0.00    +0.115 C 
ATOM     10  C   UNL     1      10.794   6.057   8.333  0.00  0.00    +0.162 C 
ATOM     11  C   UNL     1       9.477   4.744   6.838  0.00  0.00    +0.043 C 
ATOM     12  C   UNL     1       9.738   4.955   8.321  0.00  0.00    +0.145 C 
ENDROOT
BRANCH   8  13
ATOM     13  C   UNL     1       9.790   6.263   4.819  0.00  0.00    -0.040 A 
ATOM     14  C   UNL     1       9.094   7.107   3.955  0.00  0.00    -0.047 A 
ATOM     15  C   UNL     1      10.838   5.478   4.335  0.00  0.00    +0.004 A 
ATOM     16  C   UNL     1       9.445   7.168   2.607  0.00  0.00    +0.003 A 
ATOM     18  C   UNL     1       7.969   7.955   4.450  0.00  0.00    +0.044 C 
ATOM     19  C   UNL     1      11.189   5.540   2.987  0.00  0.00    +0.000 A 
ATOM     20  C   UNL     1      10.493   6.384   2.123  0.00  0.00    +0.000 A 
ENDBRANCH   8  13
BRANCH  10   2
ATOM      2  O   UNL     1      12.074   5.531   7.988  0.00  0.00    -0.388 OA
ATOM     28  H   UNL     1      12.645   6.283   7.756  0.00  0.00    +0.210 HD
ENDBRANCH  10   2
BRANCH  12   3
ATOM      3  O   UNL     1      10.181   3.767   8.944  0.00  0.00    -0.389 OA
ATOM     29  H   UNL     1       9.511   3.512   9.600  0.00  0.00    +0.210 HD
ENDBRANCH  12   3
BRANCH   9   7
ATOM      7  N   UNL     1       9.578   8.135   7.801  0.00  0.00    -0.184 NA
ATOM     27  H   UNL     1       8.640   7.932   8.166  0.00  0.00    +0.148 HD
BRANCH   7   1
ATOM      1  S   UNL     1      10.084   9.737   7.549  0.00  0.00    +0.059 S 
ATOM      4  O   UNL     1      10.522  10.308   8.809  0.00  0.00    -0.153 OA
ATOM      5  O   UNL     1       9.091  10.420   6.744  0.00  0.00    -0.153 OA
BRANCH   1  17
ATOM     17  C   UNL     1      11.511   9.511   6.530  0.00  0.00    +0.105 A 
ATOM     21  C   UNL     1      12.748   9.240   7.114  0.00  0.00    +0.032 A 
ATOM     22  C   UNL     1      11.399   9.604   5.143  0.00  0.00    +0.032 A 
ATOM     23  C   UNL     1      13.874   9.061   6.310  0.00  0.00    +0.047 A 
ATOM     24  C   UNL     1      12.525   9.424   4.339  0.00  0.00    +0.047 A 
ATOM     25  C   UNL     1      13.763   9.154   4.923  0.00  0.00    +0.120 A 
BRANCH  25   6
ATOM      6  O   UNL     1      14.862   8.980   4.139  0.00  0.00    -0.495 OA
ATOM     26  C   UNL     1      15.718   7.883   4.454  0.00  0.00    +0.277 C 
ENDBRANCH  25   6
ENDBRANCH   1  17
ENDBRANCH   7   1
ENDBRANCH   9   7
TORSDOF 7
ENDMDL
MODEL 10
REMARK VINA RESULT:      -5.4     25.934     28.064
REMARK  Name = 71694020
REMARK  9 active torsions:
REMARK  status: ('A' for Active; 'I' for Inactive)
REMARK    1  A    between atoms: S_1  and  N_7
REMARK    2  A    between atoms: S_1  and  C_17
REMARK    3  A    between atoms: O_2  and  C_10
REMARK    4  A    between atoms: O_3  and  C_12
REMARK    5  A    between atoms: O_6  and  C_25
REMARK    6  A    between atoms: O_6  and  C_26
REMARK    7  A    between atoms: N_7  and  C_9
REMARK    8  A    between atoms: C_8  and  C_13
REMARK    9  A    between atoms: C_14  and  C_18
REMARK                            x       y       z     vdW  Elec       q    Type
REMARK                         _______ _______ _______ _____ _____    ______ ____
ROOT
ATOM      8  C   UNL     1     -13.313   6.700  20.842  0.00  0.00    +0.043 C 
ATOM      9  C   UNL     1     -14.811   6.884  21.206  0.00  0.00    +0.115 C 
ATOM     10  C   UNL     1     -15.053   6.011  22.445  0.00  0.00    +0.162 C 
ATOM     11  C   UNL     1     -12.723   5.828  21.964  0.00  0.00    +0.043 C 
ATOM     12  C   UNL     1     -13.913   4.996  22.415  0.00  0.00    +0.145 C 
ENDROOT
BRANCH   8  13
ATOM     13  C   UNL     1     -12.564   7.998  20.643  0.00  0.00    -0.040 A 
ATOM     14  C   UNL     1     -11.566   8.111  19.675  0.00  0.00    -0.047 A 
ATOM     15  C   UNL     1     -12.882   9.094  21.447  0.00  0.00    +0.004 A 
ATOM     16  C   UNL     1     -10.888   9.318  19.509  0.00  0.00    +0.003 A 
ATOM     18  C   UNL     1     -11.207   6.953  18.804  0.00  0.00    +0.044 C 
ATOM     19  C   UNL     1     -12.204  10.301  21.281  0.00  0.00    +0.000 A 
ATOM     20  C   UNL     1     -11.207  10.414  20.312  0.00  0.00    +0.000 A 
ENDBRANCH   8  13
BRANCH  10   2
ATOM      2  O   UNL     1     -14.955   6.844  23.599  0.00  0.00    -0.388 OA
ATOM     28  H   UNL     1     -15.769   6.722  24.117  0.00  0.00    +0.210 HD
ENDBRANCH  10   2
BRANCH  12   3
ATOM      3  O   UNL     1     -13.681   4.398  23.674  0.00  0.00    -0.389 OA
ATOM     29  H   UNL     1     -14.503   4.469  24.187  0.00  0.00    +0.210 HD
ENDBRANCH  12   3
BRANCH   9   7
ATOM      7  N   UNL     1     -15.654   6.392  20.084  0.00  0.00    -0.184 NA
ATOM     27  H   UNL     1     -15.456   5.457  19.710  0.00  0.00    +0.148 HD
BRANCH   7   1
ATOM      1  S   UNL     1     -16.653   7.474  19.238  0.00  0.00    +0.059 S 
ATOM      4  O   UNL     1     -17.431   8.253  20.183  0.00  0.00    -0.153 OA
ATOM      5  O   UNL     1     -17.315   6.758  18.165  0.00  0.00    -0.153 OA
BRANCH   1  17
ATOM     17  C   UNL     1     -15.470   8.552  18.488  0.00  0.00    +0.105 A 
ATOM     21  C   UNL     1     -14.647   8.078  17.466  0.00  0.00    +0.032 A 
ATOM     22  C   UNL     1     -15.360   9.874  18.917  0.00  0.00    +0.032 A 
ATOM     23  C   UNL     1     -13.712   8.929  16.874  0.00  0.00    +0.047 A 
ATOM     24  C   UNL     1     -14.426  10.724  18.324  0.00  0.00    +0.047 A 
ATOM     25  C   UNL     1     -13.602  10.251  17.303  0.00  0.00    +0.120 A 
BRANCH  25   6
ATOM      6  O   UNL     1     -12.690  11.080  16.725  0.00  0.00    -0.495 OA
ATOM     26  C   UNL     1     -11.606  10.467  16.027  0.00  0.00    +0.277 C 
ENDBRANCH  25   6
ENDBRANCH   1  17
ENDBRANCH   7   1
ENDBRANCH   9   7
TORSDOF 7
ENDMDL
