MODEL 1
REMARK VINA RESULT:      -7.5      0.000      0.000
REMARK  Name = 11867242
REMARK  8 active torsions:
REMARK  status: ('A' for Active; 'I' for Inactive)
REMARK    1  A    between atoms: S_1  and  N_10
REMARK    2  A    between atoms: S_1  and  C_25
REMARK    3  A    between atoms: O_6  and  C_26
REMARK    4  A    between atoms: N_10  and  C_21
REMARK    5  A    between atoms: C_20  and  C_23
REMARK    6  A    between atoms: C_23  and  C_24
REMARK    7  A    between atoms: C_24  and  C_26
REMARK    8  A    between atoms: C_25  and  C_27
REMARK                            x       y       z     vdW  Elec       q    Type
REMARK                         _______ _______ _______ _____ _____    ______ ____
ROOT
ATOM      2  O   UNL     1      16.999   9.455  21.935  0.00  0.00    -0.266 OA
ATOM      3  O   UNL     1      11.776  10.652  21.868  0.00  0.00    -0.276 OA
ATOM      8  N   UNL     1      12.583  10.372  19.707  0.00  0.00    -0.301 N 
ATOM      9  N   UNL     1      15.650   9.525  20.020  0.00  0.00    -0.310 N 
ATOM     11  C   UNL     1      14.623  11.686  19.114  0.00  0.00    +0.027 C 
ATOM     12  C   UNL     1      14.173   9.552  17.978  0.00  0.00    +0.054 C 
ATOM     13  C   UNL     1      14.673  10.979  17.765  0.00  0.00    +0.018 C 
ATOM     14  C   UNL     1      13.185  11.706  19.661  0.00  0.00    +0.113 C 
ATOM     15  C   UNL     1      15.596  10.991  20.074  0.00  0.00    +0.130 C 
ATOM     16  C   UNL     1      12.715   9.583  18.472  0.00  0.00    +0.117 C 
ATOM     17  C   UNL     1      15.042   8.812  18.979  0.00  0.00    +0.027 A 
ATOM     18  C   UNL     1      15.200   7.480  18.881  0.00  0.00    +0.024 A 
ATOM     19  C   UNL     1      16.429   8.883  21.007  0.00  0.00    +0.274 A 
ATOM     20  C   UNL     1      11.875   9.976  20.841  0.00  0.00    +0.216 C 
ATOM     21  C   UNL     1      16.547   7.411  20.859  0.00  0.00    +0.112 A 
ATOM     22  C   UNL     1      15.975   6.753  19.851  0.00  0.00    +0.031 A 
ENDROOT
BRANCH  21  10
ATOM     10  N   UNL     1      17.291   6.664  21.790  0.00  0.00    -0.215 N 
ATOM     33  H   UNL     1      16.951   5.697  21.884  0.00  0.00    +0.173 HD
BRANCH  10   1
ATOM      1  S   UNL     1      18.985   6.791  21.645  0.00  0.00    +0.047 S 
ATOM      4  O   UNL     1      19.331   8.065  21.045  0.00  0.00    -0.155 OA
ATOM      5  O   UNL     1      19.607   6.348  22.878  0.00  0.00    -0.155 OA
BRANCH   1  25
ATOM     25  C   UNL     1      19.273   5.537  20.420  0.00  0.00    +0.223 C 
BRANCH  25  27
ATOM     27  C   UNL     1      20.675   5.040  20.596  0.00  0.00    -0.025 A 
ATOM     28  C   UNL     1      20.897   3.721  20.981  0.00  0.00    +0.005 A 
ATOM     29  C   UNL     1      21.746   5.901  20.375  0.00  0.00    +0.005 A 
ATOM     30  C   UNL     1      22.202   3.258  21.146  0.00  0.00    +0.000 A 
ATOM     31  C   UNL     1      23.052   5.437  20.540  0.00  0.00    +0.000 A 
ATOM     32  C   UNL     1      23.280   4.116  20.924  0.00  0.00    +0.000 A 
ENDBRANCH  25  27
ENDBRANCH   1  25
ENDBRANCH  10   1
ENDBRANCH  21  10
BRANCH  20  23
ATOM     23  C   UNL     1      11.204   8.626  20.782  0.00  0.00    +0.107 C 
BRANCH  23  24
ATOM     24  C   UNL     1      12.030   7.607  21.541  0.00  0.00    +0.129 C 
BRANCH  24  26
ATOM      7  O   UNL     1      11.172   5.365  21.808  0.00  0.00    -0.251 OA
ATOM     26  C   UNL     1      11.709   6.202  21.095  0.00  0.00    +0.305 C 
BRANCH  26   6
ATOM      6  O   UNL     1      12.101   5.957  19.821  0.00  0.00    -0.481 OA
ATOM     34  H   UNL     1      12.146   4.995  19.631  0.00  0.00    +0.295 HD
ENDBRANCH  26   6
ENDBRANCH  24  26
ENDBRANCH  23  24
ENDBRANCH  20  23
TORSDOF 8
ENDMDL
MODEL 2
REMARK VINA RESULT:      -7.3     27.495     30.036
REMARK  Name = 11867242
REMARK  8 active torsions:
REMARK  status: ('A' for Active; 'I' for Inactive)
REMARK    1  A    between atoms: S_1  and  N_10
REMARK    2  A    between atoms: S_1  and  C_25
REMARK    3  A    between atoms: O_6  and  C_26
REMARK    4  A    between atoms: N_10  and  C_21
REMARK    5  A    between atoms: C_20  and  C_23
REMARK    6  A    between atoms: C_23  and  C_24
REMARK    7  A    between atoms: C_24  and  C_26
REMARK    8  A    between atoms: C_25  and  C_27
REMARK                            x       y       z     vdW  Elec       q    Type
REMARK                         _______ _______ _______ _____ _____    ______ ____
ROOT
ATOM      2  O   UNL     1      -5.290 -13.864  15.569  0.00  0.00    -0.266 OA
ATOM      3  O   UNL     1      -9.708 -10.831  15.556  0.00  0.00    -0.276 OA
ATOM      8  N   UNL     1      -8.900 -11.097  17.718  0.00  0.00    -0.301 N 
ATOM      9  N   UNL     1      -6.207 -12.799  17.444  0.00  0.00    -0.310 N 
ATOM     11  C   UNL     1      -8.468 -13.446  18.451  0.00  0.00    +0.027 C 
ATOM     12  C   UNL     1      -7.176 -11.602  19.439  0.00  0.00    +0.054 C 
ATOM     13  C   UNL     1      -7.881 -12.919  19.755  0.00  0.00    +0.018 C 
ATOM     14  C   UNL     1      -9.471 -12.437  17.864  0.00  0.00    +0.113 C 
ATOM     15  C   UNL     1      -7.323 -13.752  17.479  0.00  0.00    +0.130 C 
ATOM     16  C   UNL     1      -8.199 -10.583  18.905  0.00  0.00    +0.117 C 
ATOM     17  C   UNL     1      -6.069 -11.803  18.421  0.00  0.00    +0.027 A 
ATOM     18  C   UNL     1      -4.980 -11.014  18.441  0.00  0.00    +0.024 A 
ATOM     19  C   UNL     1      -5.232 -13.000  16.443  0.00  0.00    +0.274 A 
ATOM     20  C   UNL     1      -9.117 -10.381  16.541  0.00  0.00    +0.216 C 
ATOM     21  C   UNL     1      -4.067 -12.083  16.503  0.00  0.00    +0.112 A 
ATOM     22  C   UNL     1      -3.946 -11.154  17.452  0.00  0.00    +0.031 A 
ENDROOT
BRANCH  21  10
ATOM     10  N   UNL     1      -3.038 -12.184  15.551  0.00  0.00    -0.215 N 
ATOM     33  H   UNL     1      -2.950 -13.132  15.160  0.00  0.00    +0.173 HD
BRANCH  10   1
ATOM      1  S   UNL     1      -3.001 -10.946  14.378  0.00  0.00    +0.047 S 
ATOM      4  O   UNL     1      -4.337 -10.416  14.185  0.00  0.00    -0.155 OA
ATOM      5  O   UNL     1      -1.875 -10.070  14.639  0.00  0.00    -0.155 OA
BRANCH   1  25
ATOM     25  C   UNL     1      -2.606 -11.911  12.940  0.00  0.00    +0.223 C 
BRANCH  25  27
ATOM     27  C   UNL     1      -3.085 -11.156  11.738  0.00  0.00    -0.025 A 
ATOM     28  C   UNL     1      -2.428  -9.994  11.345  0.00  0.00    +0.005 A 
ATOM     29  C   UNL     1      -4.184 -11.623  11.022  0.00  0.00    +0.005 A 
ATOM     30  C   UNL     1      -2.875  -9.291  10.226  0.00  0.00    +0.000 A 
ATOM     31  C   UNL     1      -4.630 -10.920   9.903  0.00  0.00    +0.000 A 
ATOM     32  C   UNL     1      -3.975  -9.755   9.505  0.00  0.00    +0.000 A 
ENDBRANCH  25  27
ENDBRANCH   1  25
ENDBRANCH  10   1
ENDBRANCH  21  10
BRANCH  20  23
ATOM     23  C   UNL     1      -8.579  -8.973  16.497  0.00  0.00    +0.107 C 
BRANCH  23  24
ATOM     24  C   UNL     1      -9.672  -7.991  16.866  0.00  0.00    +0.129 C 
BRANCH  24  26
ATOM      7  O   UNL     1     -10.906  -7.855  14.793  0.00  0.00    -0.251 OA
ATOM     26  C   UNL     1     -10.221  -7.300  15.642  0.00  0.00    +0.305 C 
BRANCH  26   6
ATOM      6  O   UNL     1      -9.854  -5.997  15.571  0.00  0.00    -0.481 OA
ATOM     34  H   UNL     1     -10.631  -5.400  15.529  0.00  0.00    +0.295 HD
ENDBRANCH  26   6
ENDBRANCH  24  26
ENDBRANCH  23  24
ENDBRANCH  20  23
TORSDOF 8
ENDMDL
MODEL 3
REMARK VINA RESULT:      -7.3      2.258      3.765
REMARK  Name = 11867242
REMARK  8 active torsions:
REMARK  status: ('A' for Active; 'I' for Inactive)
REMARK    1  A    between atoms: S_1  and  N_10
REMARK    2  A    between atoms: S_1  and  C_25
REMARK    3  A    between atoms: O_6  and  C_26
REMARK    4  A    between atoms: N_10  and  C_21
REMARK    5  A    between atoms: C_20  and  C_23
REMARK    6  A    between atoms: C_23  and  C_24
REMARK    7  A    between atoms: C_24  and  C_26
REMARK    8  A    between atoms: C_25  and  C_27
REMARK                            x       y       z     vdW  Elec       q    Type
REMARK                         _______ _______ _______ _____ _____    ______ ____
ROOT
ATOM      2  O   UNL     1      15.690   6.068  20.845  0.00  0.00    -0.266 OA
ATOM      3  O   UNL     1      11.702   7.622  17.620  0.00  0.00    -0.276 OA
ATOM      8  N   UNL     1      11.791   8.957  19.519  0.00  0.00    -0.301 N 
ATOM      9  N   UNL     1      14.318   7.937  21.191  0.00  0.00    -0.310 N 
ATOM     11  C   UNL     1      11.819   7.757  21.710  0.00  0.00    +0.027 C 
ATOM     12  C   UNL     1      12.869   9.973  21.519  0.00  0.00    +0.054 C 
ATOM     13  C   UNL     1      12.015   9.088  22.424  0.00  0.00    +0.018 C 
ATOM     14  C   UNL     1      11.114   7.968  20.359  0.00  0.00    +0.113 C 
ATOM     15  C   UNL     1      13.184   7.076  21.547  0.00  0.00    +0.130 C 
ATOM     16  C   UNL     1      12.129  10.222  20.191  0.00  0.00    +0.117 C 
ATOM     17  C   UNL     1      14.218   9.333  21.245  0.00  0.00    +0.027 A 
ATOM     18  C   UNL     1      15.299  10.103  21.027  0.00  0.00    +0.024 A 
ATOM     19  C   UNL     1      15.536   7.288  20.892  0.00  0.00    +0.274 A 
ATOM     20  C   UNL     1      11.992   8.690  18.165  0.00  0.00    +0.216 C 
ATOM     21  C   UNL     1      16.686   8.191  20.639  0.00  0.00    +0.112 A 
ATOM     22  C   UNL     1      16.575   9.517  20.713  0.00  0.00    +0.031 A 
ENDROOT
BRANCH  21  10
ATOM     10  N   UNL     1      17.948   7.657  20.323  0.00  0.00    -0.215 N 
ATOM     33  H   UNL     1      18.397   8.143  19.534  0.00  0.00    +0.173 HD
BRANCH  10   1
ATOM      1  S   UNL     1      18.984   7.389  21.650  0.00  0.00    +0.047 S 
ATOM      4  O   UNL     1      19.153   8.622  22.396  0.00  0.00    -0.155 OA
ATOM      5  O   UNL     1      18.605   6.156  22.314  0.00  0.00    -0.155 OA
BRANCH   1  25
ATOM     25  C   UNL     1      20.505   7.086  20.784  0.00  0.00    +0.223 C 
BRANCH  25  27
ATOM     27  C   UNL     1      21.095   5.820  21.326  0.00  0.00    -0.025 A 
ATOM     28  C   UNL     1      21.776   5.841  22.540  0.00  0.00    +0.005 A 
ATOM     29  C   UNL     1      20.957   4.633  20.613  0.00  0.00    +0.005 A 
ATOM     30  C   UNL     1      22.326   4.663  23.045  0.00  0.00    +0.000 A 
ATOM     31  C   UNL     1      21.507   3.454  21.119  0.00  0.00    +0.000 A 
ATOM     32  C   UNL     1      22.190   3.469  22.335  0.00  0.00    +0.000 A 
ENDBRANCH  25  27
ENDBRANCH   1  25
ENDBRANCH  10   1
ENDBRANCH  21  10
BRANCH  20  23
ATOM     23  C   UNL     1      12.612   9.792  17.343  0.00  0.00    +0.107 C 
BRANCH  23  24
ATOM     24  C   UNL     1      14.075   9.487  17.093  0.00  0.00    +0.129 C 
BRANCH  24  26
ATOM      7  O   UNL     1      13.957   8.363  14.958  0.00  0.00    -0.251 OA
ATOM     26  C   UNL     1      14.353   9.314  15.620  0.00  0.00    +0.305 C 
BRANCH  26   6
ATOM      6  O   UNL     1      15.110  10.315  15.111  0.00  0.00    -0.481 OA
ATOM     34  H   UNL     1      15.892   9.973  14.626  0.00  0.00    +0.295 HD
ENDBRANCH  26   6
ENDBRANCH  24  26
ENDBRANCH  23  24
ENDBRANCH  20  23
TORSDOF 8
ENDMDL
MODEL 4
REMARK VINA RESULT:      -7.1     28.303     29.996
REMARK  Name = 11867242
REMARK  8 active torsions:
REMARK  status: ('A' for Active; 'I' for Inactive)
REMARK    1  A    between atoms: S_1  and  N_10
REMARK    2  A    between atoms: S_1  and  C_25
REMARK    3  A    between atoms: O_6  and  C_26
REMARK    4  A    between atoms: N_10  and  C_21
REMARK    5  A    between atoms: C_20  and  C_23
REMARK    6  A    between atoms: C_23  and  C_24
REMARK    7  A    between atoms: C_24  and  C_26
REMARK    8  A    between atoms: C_25  and  C_27
REMARK                            x       y       z     vdW  Elec       q    Type
REMARK                         _______ _______ _______ _____ _____    ______ ____
ROOT
ATOM      2  O   UNL     1      -4.695 -14.004  15.688  0.00  0.00    -0.266 OA
ATOM      3  O   UNL     1      -9.527 -11.709  16.001  0.00  0.00    -0.276 OA
ATOM      8  N   UNL     1      -8.127 -10.910  17.675  0.00  0.00    -0.301 N 
ATOM      9  N   UNL     1      -5.292 -12.304  17.185  0.00  0.00    -0.310 N 
ATOM     11  C   UNL     1      -6.986 -12.637  19.073  0.00  0.00    +0.027 C 
ATOM     12  C   UNL     1      -5.935 -10.437  18.752  0.00  0.00    +0.054 C 
ATOM     13  C   UNL     1      -6.206 -11.534  19.779  0.00  0.00    +0.018 C 
ATOM     14  C   UNL     1      -8.314 -12.091  18.521  0.00  0.00    +0.113 C 
ATOM     15  C   UNL     1      -6.107 -13.239  17.971  0.00  0.00    +0.130 C 
ATOM     16  C   UNL     1      -7.271  -9.860  18.247  0.00  0.00    +0.117 C 
ATOM     17  C   UNL     1      -5.128 -10.970  17.582  0.00  0.00    +0.027 A 
ATOM     18  C   UNL     1      -4.286 -10.159  16.917  0.00  0.00    +0.024 A 
ATOM     19  C   UNL     1      -4.604 -12.840  16.076  0.00  0.00    +0.274 A 
ATOM     20  C   UNL     1      -8.813 -10.816  16.464  0.00  0.00    +0.216 C 
ATOM     21  C   UNL     1      -3.709 -11.891  15.368  0.00  0.00    +0.112 A 
ATOM     22  C   UNL     1      -3.553 -10.630  15.773  0.00  0.00    +0.031 A 
ENDROOT
BRANCH  21  10
ATOM     10  N   UNL     1      -2.980 -12.312  14.242  0.00  0.00    -0.215 N 
ATOM     33  H   UNL     1      -2.428 -13.162  14.421  0.00  0.00    +0.173 HD
BRANCH  10   1
ATOM      1  S   UNL     1      -3.852 -12.350  12.778  0.00  0.00    +0.047 S 
ATOM      4  O   UNL     1      -4.071 -13.726  12.375  0.00  0.00    -0.155 OA
ATOM      5  O   UNL     1      -4.949 -11.404  12.847  0.00  0.00    -0.155 OA
BRANCH   1  25
ATOM     25  C   UNL     1      -2.628 -11.671  11.684  0.00  0.00    +0.223 C 
BRANCH  25  27
ATOM     27  C   UNL     1      -3.347 -10.957  10.581  0.00  0.00    -0.025 A 
ATOM     28  C   UNL     1      -4.044 -11.689   9.624  0.00  0.00    +0.005 A 
ATOM     29  C   UNL     1      -3.312  -9.567  10.521  0.00  0.00    +0.005 A 
ATOM     30  C   UNL     1      -4.714 -11.024   8.597  0.00  0.00    +0.000 A 
ATOM     31  C   UNL     1      -3.982  -8.902   9.493  0.00  0.00    +0.000 A 
ATOM     32  C   UNL     1      -4.683  -9.631   8.532  0.00  0.00    +0.000 A 
ENDBRANCH  25  27
ENDBRANCH   1  25
ENDBRANCH  10   1
ENDBRANCH  21  10
BRANCH  20  23
ATOM     23  C   UNL     1      -8.644  -9.533  15.690  0.00  0.00    +0.107 C 
BRANCH  23  24
ATOM     24  C   UNL     1      -9.979  -8.824  15.571  0.00  0.00    +0.129 C 
BRANCH  24  26
ATOM      7  O   UNL     1     -10.094  -6.413  15.667  0.00  0.00    -0.251 OA
ATOM     26  C   UNL     1      -9.945  -7.479  16.252  0.00  0.00    +0.305 C 
BRANCH  26   6
ATOM      6  O   UNL     1      -9.707  -7.573  17.583  0.00  0.00    -0.481 OA
ATOM     34  H   UNL     1     -10.126  -8.370  17.974  0.00  0.00    +0.295 HD
ENDBRANCH  26   6
ENDBRANCH  24  26
ENDBRANCH  23  24
ENDBRANCH  20  23
TORSDOF 8
ENDMDL
MODEL 5
REMARK VINA RESULT:      -7.0     28.272     29.978
REMARK  Name = 11867242
REMARK  8 active torsions:
REMARK  status: ('A' for Active; 'I' for Inactive)
REMARK    1  A    between atoms: S_1  and  N_10
REMARK    2  A    between atoms: S_1  and  C_25
REMARK    3  A    between atoms: O_6  and  C_26
REMARK    4  A    between atoms: N_10  and  C_21
REMARK    5  A    between atoms: C_20  and  C_23
REMARK    6  A    between atoms: C_23  and  C_24
REMARK    7  A    between atoms: C_24  and  C_26
REMARK    8  A    between atoms: C_25  and  C_27
REMARK                            x       y       z     vdW  Elec       q    Type
REMARK                         _______ _______ _______ _____ _____    ______ ____
ROOT
ATOM      2  O   UNL     1      -4.919 -14.156  16.227  0.00  0.00    -0.266 OA
ATOM      3  O   UNL     1      -9.635 -11.747  15.407  0.00  0.00    -0.276 OA
ATOM      8  N   UNL     1      -8.482 -10.726  17.147  0.00  0.00    -0.301 N 
ATOM      9  N   UNL     1      -5.669 -12.232  17.336  0.00  0.00    -0.310 N 
ATOM     11  C   UNL     1      -7.651 -12.236  18.954  0.00  0.00    +0.027 C 
ATOM     12  C   UNL     1      -6.467 -10.133  18.481  0.00  0.00    +0.054 C 
ATOM     13  C   UNL     1      -6.944 -11.053  19.603  0.00  0.00    +0.018 C 
ATOM     14  C   UNL     1      -8.850 -11.757  18.118  0.00  0.00    +0.113 C 
ATOM     15  C   UNL     1      -6.637 -13.018  18.111  0.00  0.00    +0.130 C 
ATOM     16  C   UNL     1      -7.680  -9.616  17.685  0.00  0.00    +0.117 C 
ATOM     17  C   UNL     1      -5.511 -10.857  17.550  0.00  0.00    +0.027 A 
ATOM     18  C   UNL     1      -4.540 -10.175  16.916  0.00  0.00    +0.024 A 
ATOM     19  C   UNL     1      -4.840 -12.948  16.446  0.00  0.00    +0.274 A 
ATOM     20  C   UNL     1      -8.964 -10.807  15.840  0.00  0.00    +0.216 C 
ATOM     21  C   UNL     1      -3.804 -12.137  15.758  0.00  0.00    +0.112 A 
ATOM     22  C   UNL     1      -3.658 -10.832  15.989  0.00  0.00    +0.031 A 
ENDROOT
BRANCH  21  10
ATOM     10  N   UNL     1      -2.926 -12.741  14.841  0.00  0.00    -0.215 N 
ATOM     33  H   UNL     1      -2.495 -13.599  15.210  0.00  0.00    +0.173 HD
BRANCH  10   1
ATOM      1  S   UNL     1      -3.523 -12.897  13.251  0.00  0.00    +0.047 S 
ATOM      4  O   UNL     1      -3.414 -14.278  12.821  0.00  0.00    -0.155 OA
ATOM      5  O   UNL     1      -4.772 -12.169  13.133  0.00  0.00    -0.155 OA
BRANCH   1  25
ATOM     25  C   UNL     1      -2.282 -11.974  12.376  0.00  0.00    +0.223 C 
BRANCH  25  27
ATOM     27  C   UNL     1      -2.956 -11.258  11.247  0.00  0.00    -0.025 A 
ATOM     28  C   UNL     1      -3.634 -11.986  10.274  0.00  0.00    +0.005 A 
ATOM     29  C   UNL     1      -2.901  -9.869  11.180  0.00  0.00    +0.005 A 
ATOM     30  C   UNL     1      -4.263 -11.318   9.223  0.00  0.00    +0.000 A 
ATOM     31  C   UNL     1      -3.529  -9.201  10.128  0.00  0.00    +0.000 A 
ATOM     32  C   UNL     1      -4.211  -9.926   9.150  0.00  0.00    +0.000 A 
ENDBRANCH  25  27
ENDBRANCH   1  25
ENDBRANCH  10   1
ENDBRANCH  21  10
BRANCH  20  23
ATOM     23  C   UNL     1      -8.620  -9.662  14.920  0.00  0.00    +0.107 C 
BRANCH  23  24
ATOM     24  C   UNL     1      -8.395 -10.181  13.515  0.00  0.00    +0.129 C 
BRANCH  24  26
ATOM      7  O   UNL     1      -7.053  -9.252  11.734  0.00  0.00    -0.251 OA
ATOM     26  C   UNL     1      -7.148  -9.589  12.907  0.00  0.00    +0.305 C 
BRANCH  26   6
ATOM      6  O   UNL     1      -6.130  -9.489  13.797  0.00  0.00    -0.481 OA
ATOM     34  H   UNL     1      -5.922  -8.554  14.012  0.00  0.00    +0.295 HD
ENDBRANCH  26   6
ENDBRANCH  24  26
ENDBRANCH  23  24
ENDBRANCH  20  23
TORSDOF 8
ENDMDL
MODEL 6
REMARK VINA RESULT:      -7.0     17.658     20.275
REMARK  Name = 11867242
REMARK  8 active torsions:
REMARK  status: ('A' for Active; 'I' for Inactive)
REMARK    1  A    between atoms: S_1  and  N_10
REMARK    2  A    between atoms: S_1  and  C_25
REMARK    3  A    between atoms: O_6  and  C_26
REMARK    4  A    between atoms: N_10  and  C_21
REMARK    5  A    between atoms: C_20  and  C_23
REMARK    6  A    between atoms: C_23  and  C_24
REMARK    7  A    between atoms: C_24  and  C_26
REMARK    8  A    between atoms: C_25  and  C_27
REMARK                            x       y       z     vdW  Elec       q    Type
REMARK                         _______ _______ _______ _____ _____    ______ ____
ROOT
ATOM      2  O   UNL     1      12.443   8.024   1.711  0.00  0.00    -0.266 OA
ATOM      3  O   UNL     1      13.309   5.248  -2.790  0.00  0.00    -0.276 OA
ATOM      8  N   UNL     1      13.575   3.891  -0.923  0.00  0.00    -0.301 N 
ATOM      9  N   UNL     1      12.864   5.722   1.600  0.00  0.00    -0.310 N 
ATOM     11  C   UNL     1      15.109   4.748   0.853  0.00  0.00    +0.027 C 
ATOM     12  C   UNL     1      13.265   3.238   1.458  0.00  0.00    +0.054 C 
ATOM     13  C   UNL     1      14.731   3.565   1.735  0.00  0.00    +0.018 C 
ATOM     14  C   UNL     1      14.918   4.396  -0.633  0.00  0.00    +0.113 C 
ATOM     15  C   UNL     1      14.274   5.964   1.269  0.00  0.00    +0.130 C 
ATOM     16  C   UNL     1      13.096   2.834  -0.019  0.00  0.00    +0.117 C 
ATOM     17  C   UNL     1      12.371   4.422   1.774  0.00  0.00    +0.027 A 
ATOM     18  C   UNL     1      11.107   4.223   2.191  0.00  0.00    +0.024 A 
ATOM     19  C   UNL     1      12.063   6.861   1.832  0.00  0.00    +0.274 A 
ATOM     20  C   UNL     1      12.890   4.360  -2.044  0.00  0.00    +0.216 C 
ATOM     21  C   UNL     1      10.673   6.576   2.266  0.00  0.00    +0.112 A 
ATOM     22  C   UNL     1      10.227   5.332   2.444  0.00  0.00    +0.031 A 
ENDROOT
BRANCH  21  10
ATOM     10  N   UNL     1       9.780   7.633   2.518  0.00  0.00    -0.215 N 
ATOM     33  H   UNL     1       8.859   7.486   2.083  0.00  0.00    +0.173 HD
BRANCH  10   1
ATOM      1  S   UNL     1       9.703   8.157   4.138  0.00  0.00    +0.047 S 
ATOM      4  O   UNL     1      10.918   7.777   4.834  0.00  0.00    -0.155 OA
ATOM      5  O   UNL     1       9.210   9.521   4.179  0.00  0.00    -0.155 OA
BRANCH   1  25
ATOM     25  C   UNL     1       8.405   7.100   4.732  0.00  0.00    +0.223 C 
BRANCH  25  27
ATOM     27  C   UNL     1       8.813   6.588   6.079  0.00  0.00    -0.025 A 
ATOM     28  C   UNL     1       9.387   5.326   6.193  0.00  0.00    +0.005 A 
ATOM     29  C   UNL     1       8.615   7.379   7.207  0.00  0.00    +0.005 A 
ATOM     30  C   UNL     1       9.768   4.849   7.447  0.00  0.00    +0.000 A 
ATOM     31  C   UNL     1       8.995   6.901   8.462  0.00  0.00    +0.000 A 
ATOM     32  C   UNL     1       9.572   5.637   8.582  0.00  0.00    +0.000 A 
ENDBRANCH  25  27
ENDBRANCH   1  25
ENDBRANCH  10   1
ENDBRANCH  21  10
BRANCH  20  23
ATOM     23  C   UNL     1      11.551   3.727  -2.331  0.00  0.00    +0.107 C 
BRANCH  23  24
ATOM     24  C   UNL     1      10.548   4.797  -2.714  0.00  0.00    +0.129 C 
BRANCH  24  26
ATOM      7  O   UNL     1      10.341   6.706  -1.249  0.00  0.00    -0.251 OA
ATOM     26  C   UNL     1      10.055   5.543  -1.499  0.00  0.00    +0.305 C 
BRANCH  26   6
ATOM      6  O   UNL     1       9.276   4.777  -0.697  0.00  0.00    -0.481 OA
ATOM     34  H   UNL     1       8.884   4.019  -1.183  0.00  0.00    +0.295 HD
ENDBRANCH  26   6
ENDBRANCH  24  26
ENDBRANCH  23  24
ENDBRANCH  20  23
TORSDOF 8
ENDMDL
MODEL 7
REMARK VINA RESULT:      -6.5      4.098      7.310
REMARK  Name = 11867242
REMARK  8 active torsions:
REMARK  status: ('A' for Active; 'I' for Inactive)
REMARK    1  A    between atoms: S_1  and  N_10
REMARK    2  A    between atoms: S_1  and  C_25
REMARK    3  A    between atoms: O_6  and  C_26
REMARK    4  A    between atoms: N_10  and  C_21
REMARK    5  A    between atoms: C_20  and  C_23
REMARK    6  A    between atoms: C_23  and  C_24
REMARK    7  A    between atoms: C_24  and  C_26
REMARK    8  A    between atoms: C_25  and  C_27
REMARK                            x       y       z     vdW  Elec       q    Type
REMARK                         _______ _______ _______ _____ _____    ______ ____
ROOT
ATOM      2  O   UNL     1      16.786  11.379  19.915  0.00  0.00    -0.266 OA
ATOM      3  O   UNL     1      14.475   7.549  16.965  0.00  0.00    -0.276 OA
ATOM      8  N   UNL     1      14.247   7.091  19.231  0.00  0.00    -0.301 N 
ATOM      9  N   UNL     1      15.561   9.571  20.762  0.00  0.00    -0.310 N 
ATOM     11  C   UNL     1      16.347   7.143  20.582  0.00  0.00    +0.027 C 
ATOM     12  C   UNL     1      14.194   7.651  21.655  0.00  0.00    +0.054 C 
ATOM     13  C   UNL     1      15.526   6.930  21.847  0.00  0.00    +0.018 C 
ATOM     14  C   UNL     1      15.611   6.574  19.357  0.00  0.00    +0.113 C 
ATOM     15  C   UNL     1      16.646   8.640  20.431  0.00  0.00    +0.130 C 
ATOM     16  C   UNL     1      13.441   7.036  20.460  0.00  0.00    +0.117 C 
ATOM     17  C   UNL     1      14.404   9.135  21.423  0.00  0.00    +0.027 A 
ATOM     18  C   UNL     1      13.473  10.021  21.822  0.00  0.00    +0.024 A 
ATOM     19  C   UNL     1      15.786  10.935  20.477  0.00  0.00    +0.274 A 
ATOM     20  C   UNL     1      13.782   7.510  17.984  0.00  0.00    +0.216 C 
ATOM     21  C   UNL     1      14.714  11.859  20.921  0.00  0.00    +0.112 A 
ATOM     22  C   UNL     1      13.628  11.427  21.563  0.00  0.00    +0.031 A 
ENDROOT
BRANCH  21  10
ATOM     10  N   UNL     1      14.825  13.240  20.681  0.00  0.00    -0.215 N 
ATOM     33  H   UNL     1      15.790  13.584  20.784  0.00  0.00    +0.173 HD
BRANCH  10   1
ATOM      1  S   UNL     1      14.035  13.807  19.280  0.00  0.00    +0.047 S 
ATOM      4  O   UNL     1      13.187  12.761  18.740  0.00  0.00    -0.155 OA
ATOM      5  O   UNL     1      13.518  15.139  19.526  0.00  0.00    -0.155 OA
BRANCH   1  25
ATOM     25  C   UNL     1      15.431  13.965  18.194  0.00  0.00    +0.223 C 
BRANCH  25  27
ATOM     27  C   UNL     1      15.112  13.229  16.930  0.00  0.00    -0.025 A 
ATOM     28  C   UNL     1      15.538  11.913  16.770  0.00  0.00    +0.005 A 
ATOM     29  C   UNL     1      14.393  13.865  15.923  0.00  0.00    +0.005 A 
ATOM     30  C   UNL     1      15.241  11.228  15.593  0.00  0.00    +0.000 A 
ATOM     31  C   UNL     1      14.096  13.179  14.745  0.00  0.00    +0.000 A 
ATOM     32  C   UNL     1      14.519  11.860  14.580  0.00  0.00    +0.000 A 
ENDBRANCH  25  27
ENDBRANCH   1  25
ENDBRANCH  10   1
ENDBRANCH  21  10
BRANCH  20  23
ATOM     23  C   UNL     1      12.339   7.943  17.911  0.00  0.00    +0.107 C 
BRANCH  23  24
ATOM     24  C   UNL     1      12.237   9.274  17.194  0.00  0.00    +0.129 C 
BRANCH  24  26
ATOM      7  O   UNL     1      10.420   8.401  15.863  0.00  0.00    -0.251 OA
ATOM     26  C   UNL     1      11.370   9.166  15.965  0.00  0.00    +0.305 C 
BRANCH  26   6
ATOM      6  O   UNL     1      11.770   9.995  14.970  0.00  0.00    -0.481 OA
ATOM     34  H   UNL     1      11.661   9.584  14.085  0.00  0.00    +0.295 HD
ENDBRANCH  26   6
ENDBRANCH  24  26
ENDBRANCH  23  24
ENDBRANCH  20  23
TORSDOF 8
ENDMDL
MODEL 8
REMARK VINA RESULT:      -6.5     27.894     30.665
REMARK  Name = 11867242
REMARK  8 active torsions:
REMARK  status: ('A' for Active; 'I' for Inactive)
REMARK    1  A    between atoms: S_1  and  N_10
REMARK    2  A    between atoms: S_1  and  C_25
REMARK    3  A    between atoms: O_6  and  C_26
REMARK    4  A    between atoms: N_10  and  C_21
REMARK    5  A    between atoms: C_20  and  C_23
REMARK    6  A    between atoms: C_23  and  C_24
REMARK    7  A    between atoms: C_24  and  C_26
REMARK    8  A    between atoms: C_25  and  C_27
REMARK                            x       y       z     vdW  Elec       q    Type
REMARK                         _______ _______ _______ _____ _____    ______ ____
ROOT
ATOM      2  O   UNL     1      -6.557  -9.789  13.795  0.00  0.00    -0.266 OA
ATOM      3  O   UNL     1      -4.677 -14.669  12.628  0.00  0.00    -0.276 OA
ATOM      8  N   UNL     1      -2.935 -13.215  13.125  0.00  0.00    -0.301 N 
ATOM      9  N   UNL     1      -4.310 -10.442  13.926  0.00  0.00    -0.310 N 
ATOM     11  C   UNL     1      -2.912 -11.053  11.873  0.00  0.00    +0.027 C 
ATOM     12  C   UNL     1      -1.906 -11.176  14.113  0.00  0.00    +0.054 C 
ATOM     13  C   UNL     1      -1.729 -10.591  12.714  0.00  0.00    +0.018 C 
ATOM     14  C   UNL     1      -2.956 -12.590  11.801  0.00  0.00    +0.113 C 
ATOM     15  C   UNL     1      -4.200 -10.466  12.462  0.00  0.00    +0.130 C 
ATOM     16  C   UNL     1      -1.894 -12.714  14.036  0.00  0.00    +0.117 C 
ATOM     17  C   UNL     1      -3.202 -10.702  14.744  0.00  0.00    +0.027 A 
ATOM     18  C   UNL     1      -3.293 -10.561  16.079  0.00  0.00    +0.024 A 
ATOM     19  C   UNL     1      -5.554 -10.045  14.461  0.00  0.00    +0.274 A 
ATOM     20  C   UNL     1      -3.809 -14.264  13.406  0.00  0.00    +0.216 C 
ATOM     21  C   UNL     1      -5.598  -9.930  15.940  0.00  0.00    +0.112 A 
ATOM     22  C   UNL     1      -4.528 -10.164  16.700  0.00  0.00    +0.031 A 
ENDROOT
BRANCH  21  10
ATOM     10  N   UNL     1      -6.788  -9.551  16.586  0.00  0.00    -0.215 N 
ATOM     33  H   UNL     1      -7.215  -8.712  16.170  0.00  0.00    +0.173 HD
BRANCH  10   1
ATOM      1  S   UNL     1      -7.894 -10.814  16.884  0.00  0.00    +0.047 S 
ATOM      4  O   UNL     1      -8.833 -10.913  15.783  0.00  0.00    -0.155 OA
ATOM      5  O   UNL     1      -7.174 -11.979  17.364  0.00  0.00    -0.155 OA
BRANCH   1  25
ATOM     25  C   UNL     1      -8.772 -10.121  18.264  0.00  0.00    +0.223 C 
BRANCH  25  27
ATOM     27  C   UNL     1      -9.923  -9.331  17.722  0.00  0.00    -0.025 A 
ATOM     28  C   UNL     1     -11.201  -9.882  17.723  0.00  0.00    +0.005 A 
ATOM     29  C   UNL     1      -9.706  -8.050  17.221  0.00  0.00    +0.005 A 
ATOM     30  C   UNL     1     -12.272  -9.145  17.218  0.00  0.00    +0.000 A 
ATOM     31  C   UNL     1     -10.778  -7.314  16.716  0.00  0.00    +0.000 A 
ATOM     32  C   UNL     1     -12.061  -7.861  16.715  0.00  0.00    +0.000 A 
ENDBRANCH  25  27
ENDBRANCH   1  25
ENDBRANCH  10   1
ENDBRANCH  21  10
BRANCH  20  23
ATOM     23  C   UNL     1      -3.668 -14.920  14.756  0.00  0.00    +0.107 C 
BRANCH  23  24
ATOM     24  C   UNL     1      -4.570 -14.231  15.760  0.00  0.00    +0.129 C 
BRANCH  24  26
ATOM      7  O   UNL     1      -5.845 -16.281  15.847  0.00  0.00    -0.251 OA
ATOM     26  C   UNL     1      -5.576 -15.194  16.341  0.00  0.00    +0.305 C 
BRANCH  26   6
ATOM      6  O   UNL     1      -6.169 -14.715  17.462  0.00  0.00    -0.481 OA
ATOM     34  H   UNL     1      -5.590 -14.085  17.942  0.00  0.00    +0.295 HD
ENDBRANCH  26   6
ENDBRANCH  24  26
ENDBRANCH  23  24
ENDBRANCH  20  23
TORSDOF 8
ENDMDL
MODEL 9
REMARK VINA RESULT:      -6.5     28.049     30.639
REMARK  Name = 11867242
REMARK  8 active torsions:
REMARK  status: ('A' for Active; 'I' for Inactive)
REMARK    1  A    between atoms: S_1  and  N_10
REMARK    2  A    between atoms: S_1  and  C_25
REMARK    3  A    between atoms: O_6  and  C_26
REMARK    4  A    between atoms: N_10  and  C_21
REMARK    5  A    between atoms: C_20  and  C_23
REMARK    6  A    between atoms: C_23  and  C_24
REMARK    7  A    between atoms: C_24  and  C_26
REMARK    8  A    between atoms: C_25  and  C_27
REMARK                            x       y       z     vdW  Elec       q    Type
REMARK                         _______ _______ _______ _____ _____    ______ ____
ROOT
ATOM      2  O   UNL     1      -6.611  -9.933  14.362  0.00  0.00    -0.266 OA
ATOM      3  O   UNL     1      -5.056 -14.561  12.153  0.00  0.00    -0.276 OA
ATOM      8  N   UNL     1      -3.274 -13.078  12.295  0.00  0.00    -0.301 N 
ATOM      9  N   UNL     1      -4.411 -10.479  13.769  0.00  0.00    -0.310 N 
ATOM     11  C   UNL     1      -3.657 -10.799  11.345  0.00  0.00    +0.027 C 
ATOM     12  C   UNL     1      -2.042 -11.103  13.176  0.00  0.00    +0.054 C 
ATOM     13  C   UNL     1      -2.290 -10.367  11.860  0.00  0.00    +0.018 C 
ATOM     14  C   UNL     1      -3.690 -12.320  11.114  0.00  0.00    +0.113 C 
ATOM     15  C   UNL     1      -4.729 -10.345  12.342  0.00  0.00    +0.130 C 
ATOM     16  C   UNL     1      -2.023 -12.622  12.922  0.00  0.00    +0.117 C 
ATOM     17  C   UNL     1      -3.109 -10.765  14.200  0.00  0.00    +0.027 A 
ATOM     18  C   UNL     1      -2.811 -10.769  15.513  0.00  0.00    +0.024 A 
ATOM     19  C   UNL     1      -5.454 -10.205  14.680  0.00  0.00    +0.274 A 
ATOM     20  C   UNL     1      -4.009 -14.195  12.691  0.00  0.00    +0.216 C 
ATOM     21  C   UNL     1      -5.070 -10.247  16.112  0.00  0.00    +0.112 A 
ATOM     22  C   UNL     1      -3.821 -10.504  16.502  0.00  0.00    +0.031 A 
ENDROOT
BRANCH  21  10
ATOM     10  N   UNL     1      -6.029 -10.000  17.110  0.00  0.00    -0.215 N 
ATOM     33  H   UNL     1      -6.609  -9.175  16.907  0.00  0.00    +0.173 HD
BRANCH  10   1
ATOM      1  S   UNL     1      -6.918 -11.361  17.625  0.00  0.00    +0.047 S 
ATOM      4  O   UNL     1      -8.140 -11.468  16.851  0.00  0.00    -0.155 OA
ATOM      5  O   UNL     1      -6.022 -12.492  17.773  0.00  0.00    -0.155 OA
BRANCH   1  25
ATOM     25  C   UNL     1      -7.373 -10.821  19.254  0.00  0.00    +0.223 C 
BRANCH  25  27
ATOM     27  C   UNL     1      -8.566 -11.617  19.683  0.00  0.00    -0.025 A 
ATOM     28  C   UNL     1      -8.421 -12.967  19.990  0.00  0.00    +0.005 A 
ATOM     29  C   UNL     1      -9.812 -11.003  19.771  0.00  0.00    +0.005 A 
ATOM     30  C   UNL     1      -9.533 -13.709  20.389  0.00  0.00    +0.000 A 
ATOM     31  C   UNL     1     -10.924 -11.745  20.170  0.00  0.00    +0.000 A 
ATOM     32  C   UNL     1     -10.784 -13.098  20.480  0.00  0.00    +0.000 A 
ENDBRANCH  25  27
ENDBRANCH   1  25
ENDBRANCH  10   1
ENDBRANCH  21  10
BRANCH  20  23
ATOM     23  C   UNL     1      -3.469 -14.980  13.860  0.00  0.00    +0.107 C 
BRANCH  23  24
ATOM     24  C   UNL     1      -4.003 -14.406  15.157  0.00  0.00    +0.129 C 
BRANCH  24  26
ATOM      7  O   UNL     1      -4.953 -16.561  15.696  0.00  0.00    -0.251 OA
ATOM     26  C   UNL     1      -4.484 -15.497  16.081  0.00  0.00    +0.305 C 
BRANCH  26   6
ATOM      6  O   UNL     1      -4.362 -15.165  17.389  0.00  0.00    -0.481 OA
ATOM     34  H   UNL     1      -3.631 -14.527  17.538  0.00  0.00    +0.295 HD
ENDBRANCH  26   6
ENDBRANCH  24  26
ENDBRANCH  23  24
ENDBRANCH  20  23
TORSDOF 8
ENDMDL
MODEL 10
REMARK VINA RESULT:      -6.5     27.746     30.514
REMARK  Name = 11867242
REMARK  8 active torsions:
REMARK  status: ('A' for Active; 'I' for Inactive)
REMARK    1  A    between atoms: S_1  and  N_10
REMARK    2  A    between atoms: S_1  and  C_25
REMARK    3  A    between atoms: O_6  and  C_26
REMARK    4  A    between atoms: N_10  and  C_21
REMARK    5  A    between atoms: C_20  and  C_23
REMARK    6  A    between atoms: C_23  and  C_24
REMARK    7  A    between atoms: C_24  and  C_26
REMARK    8  A    between atoms: C_25  and  C_27
REMARK                            x       y       z     vdW  Elec       q    Type
REMARK                         _______ _______ _______ _____ _____    ______ ____
ROOT
ATOM      2  O   UNL     1     -13.920   9.888  21.479  0.00  0.00    -0.266 OA
ATOM      3  O   UNL     1     -14.652  10.254  16.184  0.00  0.00    -0.276 OA
ATOM      8  N   UNL     1     -12.411   9.899  16.681  0.00  0.00    -0.301 N 
ATOM      9  N   UNL     1     -12.259   9.569  19.857  0.00  0.00    -0.310 N 
ATOM     11  C   UNL     1     -11.395  11.451  18.355  0.00  0.00    +0.027 C 
ATOM     12  C   UNL     1     -10.498   9.175  18.098  0.00  0.00    +0.054 C 
ATOM     13  C   UNL     1     -10.108  10.636  18.312  0.00  0.00    +0.018 C 
ATOM     14  C   UNL     1     -12.173  11.300  17.036  0.00  0.00    +0.113 C 
ATOM     15  C   UNL     1     -12.223  11.007  19.567  0.00  0.00    +0.130 C 
ATOM     16  C   UNL     1     -11.228   9.027  16.750  0.00  0.00    +0.117 C 
ATOM     17  C   UNL     1     -11.386   8.676  19.223  0.00  0.00    +0.027 A 
ATOM     18  C   UNL     1     -11.354   7.381  19.585  0.00  0.00    +0.024 A 
ATOM     19  C   UNL     1     -13.142   9.151  20.876  0.00  0.00    +0.274 A 
ATOM     20  C   UNL     1     -13.672   9.507  16.234  0.00  0.00    +0.216 C 
ATOM     21  C   UNL     1     -13.077   7.707  21.215  0.00  0.00    +0.112 A 
ATOM     22  C   UNL     1     -12.226   6.877  20.612  0.00  0.00    +0.031 A 
ENDROOT
BRANCH  21  10
ATOM     10  N   UNL     1     -13.917   7.175  22.208  0.00  0.00    -0.215 N 
ATOM     33  H   UNL     1     -14.370   7.903  22.777  0.00  0.00    +0.173 HD
BRANCH  10   1
ATOM      1  S   UNL     1     -14.977   5.944  21.689  0.00  0.00    +0.047 S 
ATOM      4  O   UNL     1     -15.607   6.336  20.442  0.00  0.00    -0.155 OA
ATOM      5  O   UNL     1     -14.324   4.657  21.828  0.00  0.00    -0.155 OA
BRANCH   1  25
ATOM     25  C   UNL     1     -16.212   6.059  22.960  0.00  0.00    +0.223 C 
BRANCH  25  27
ATOM     27  C   UNL     1     -16.488   4.673  23.455  0.00  0.00    -0.025 A 
ATOM     28  C   UNL     1     -15.825   4.198  24.583  0.00  0.00    +0.005 A 
ATOM     29  C   UNL     1     -17.404   3.869  22.784  0.00  0.00    +0.005 A 
ATOM     30  C   UNL     1     -16.081   2.907  25.044  0.00  0.00    +0.000 A 
ATOM     31  C   UNL     1     -17.661   2.577  23.245  0.00  0.00    +0.000 A 
ATOM     32  C   UNL     1     -17.000   2.097  24.376  0.00  0.00    +0.000 A 
ENDBRANCH  25  27
ENDBRANCH   1  25
ENDBRANCH  10   1
ENDBRANCH  21  10
BRANCH  20  23
ATOM     23  C   UNL     1     -13.818   8.070  15.798  0.00  0.00    +0.107 C 
BRANCH  23  24
ATOM     24  C   UNL     1     -14.022   8.005  14.298  0.00  0.00    +0.129 C 
BRANCH  24  26
ATOM      7  O   UNL     1     -11.897   8.501  13.262  0.00  0.00    -0.251 OA
ATOM     26  C   UNL     1     -12.735   7.670  13.586  0.00  0.00    +0.305 C 
BRANCH  26   6
ATOM      6  O   UNL     1     -12.615   6.346  13.321  0.00  0.00    -0.481 OA
ATOM     34  H   UNL     1     -13.477   5.940  13.087  0.00  0.00    +0.295 HD
ENDBRANCH  26   6
ENDBRANCH  24  26
ENDBRANCH  23  24
ENDBRANCH  20  23
TORSDOF 8
ENDMDL
