MODEL 1
REMARK VINA RESULT:      -6.2      0.000      0.000
REMARK  Name = 45783880
REMARK  12 active torsions:
REMARK  status: ('A' for Active; 'I' for Inactive)
REMARK    1  A    between atoms: O_2  and  C_25
REMARK    2  A    between atoms: N_3  and  C_12
REMARK    3  A    between atoms: N_4  and  C_24
REMARK    4  A    between atoms: C_7  and  C_11
REMARK    5  A    between atoms: C_8  and  C_12
REMARK    6  A    between atoms: C_10  and  C_15
REMARK    7  A    between atoms: C_11  and  C_18
REMARK    8  A    between atoms: C_11  and  C_19
REMARK    9  A    between atoms: C_14  and  C_22
REMARK   10  A    between atoms: C_15  and  C_23
REMARK   11  A    between atoms: C_24  and  C_25
REMARK   12  A    between atoms: C_26  and  C_27
REMARK                            x       y       z     vdW  Elec       q    Type
REMARK                         _______ _______ _______ _____ _____    ______ ____
ROOT
ATOM      7  C   UNL     1      -4.772 -12.006  15.157  0.00  0.00    +0.000 C 
ATOM      8  C   UNL     1      -4.518 -11.097  16.381  0.00  0.00    +0.029 C 
ATOM      9  C   UNL     1      -4.110 -11.416  13.903  0.00  0.00    +0.012 C 
ATOM     10  C   UNL     1      -2.592 -11.184  14.065  0.00  0.00    +0.024 C 
ATOM     13  C   UNL     1      -3.092 -10.614  16.459  0.00  0.00    -0.023 C 
ATOM     14  C   UNL     1      -2.214 -10.655  15.440  0.00  0.00    -0.073 C 
ATOM     22  C   UNL     1      -0.789 -10.226  15.651  0.00  0.00    +0.039 C 
ENDROOT
BRANCH   7  11
ATOM     11  C   UNL     1      -4.292 -13.441  15.415  0.00  0.00    -0.013 C 
ATOM     18  C   UNL     1      -5.009 -14.032  16.623  0.00  0.00    +0.007 C 
ATOM     19  C   UNL     1      -4.512 -14.306  14.178  0.00  0.00    +0.007 C 
ENDBRANCH   7  11
BRANCH   8  12
ATOM     12  C   UNL     1      -5.461  -9.890  16.396  0.00  0.00    +0.092 C 
BRANCH  12   3
ATOM      3  N   UNL     1      -6.546 -10.093  17.355  0.00  0.00    -0.299 NA
ATOM      4  N   UNL     1      -8.399 -11.749  18.834  0.00  0.00    -0.298 NA
ATOM     16  C   UNL     1      -7.711 -10.703  16.703  0.00  0.00    +0.100 C 
ATOM     17  C   UNL     1      -6.098 -10.921  18.482  0.00  0.00    +0.100 C 
ATOM     20  C   UNL     1      -8.848 -10.921  17.707  0.00  0.00    +0.100 C 
ATOM     21  C   UNL     1      -7.235 -11.137  19.486  0.00  0.00    +0.100 C 
BRANCH   4  24
ATOM     24  C   UNL     1      -9.484 -11.953  19.791  0.00  0.00    +0.112 C 
BRANCH  24  25
ATOM     25  C   UNL     1     -10.460 -10.790  19.753  0.00  0.00    +0.171 C 
BRANCH  25   2
ATOM      2  O   UNL     1     -10.226  -9.959  20.883  0.00  0.00    -0.394 OA
ATOM     28  H   UNL     1      -9.851  -9.126  20.552  0.00  0.00    +0.209 HD
ENDBRANCH  25   2
ENDBRANCH  24  25
ENDBRANCH   4  24
ENDBRANCH  12   3
ENDBRANCH   8  12
BRANCH  10  15
ATOM     15  C   UNL     1      -2.112 -10.278  12.925  0.00  0.00    +0.105 C 
BRANCH  15  23
ATOM      1  O   UNL     1      -3.331  -9.551  10.940  0.00  0.00    -0.425 OA
ATOM      5  N   UNL     1      -3.010 -11.762  11.060  0.00  0.00    -0.112 NA
ATOM      6  N   UNL     1      -3.709 -11.493   9.897  0.00  0.00    -0.113 NA
ATOM     23  C   UNL     1      -2.812 -10.599  11.636  0.00  0.00    +0.218 A 
ATOM     26  C   UNL     1      -3.873 -10.192   9.869  0.00  0.00    +0.214 A 
ATOM     27  C   UNL     1      -4.545  -9.355   8.867  0.00  0.00    +0.111 C 
ENDBRANCH  15  23
ENDBRANCH  10  15
TORSDOF 8
ENDMDL
MODEL 2
REMARK VINA RESULT:      -6.1     19.700     22.674
REMARK  Name = 45783880
REMARK  12 active torsions:
REMARK  status: ('A' for Active; 'I' for Inactive)
REMARK    1  A    between atoms: O_2  and  C_25
REMARK    2  A    between atoms: N_3  and  C_12
REMARK    3  A    between atoms: N_4  and  C_24
REMARK    4  A    between atoms: C_7  and  C_11
REMARK    5  A    between atoms: C_8  and  C_12
REMARK    6  A    between atoms: C_10  and  C_15
REMARK    7  A    between atoms: C_11  and  C_18
REMARK    8  A    between atoms: C_11  and  C_19
REMARK    9  A    between atoms: C_14  and  C_22
REMARK   10  A    between atoms: C_15  and  C_23
REMARK   11  A    between atoms: C_24  and  C_25
REMARK   12  A    between atoms: C_26  and  C_27
REMARK                            x       y       z     vdW  Elec       q    Type
REMARK                         _______ _______ _______ _____ _____    ______ ____
ROOT
ATOM      7  C   UNL     1     -13.677  10.195  21.802  0.00  0.00    +0.000 C 
ATOM      8  C   UNL     1     -12.323  10.132  21.060  0.00  0.00    +0.029 C 
ATOM      9  C   UNL     1     -14.624   9.102  21.288  0.00  0.00    +0.012 C 
ATOM     10  C   UNL     1     -14.037   7.678  21.409  0.00  0.00    +0.024 C 
ATOM     13  C   UNL     1     -11.809   8.723  20.910  0.00  0.00    -0.023 C 
ATOM     14  C   UNL     1     -12.555   7.615  21.073  0.00  0.00    -0.073 C 
ATOM     22  C   UNL     1     -11.920   6.254  20.985  0.00  0.00    +0.039 C 
ENDROOT
BRANCH   7  11
ATOM     11  C   UNL     1     -13.487  10.095  23.322  0.00  0.00    -0.013 C 
ATOM     18  C   UNL     1     -12.452  11.109  23.797  0.00  0.00    +0.007 C 
ATOM     19  C   UNL     1     -14.817  10.305  24.039  0.00  0.00    +0.007 C 
ENDBRANCH   7  11
BRANCH   8  12
ATOM     12  C   UNL     1     -12.404  10.789  19.678  0.00  0.00    +0.092 C 
BRANCH  12   3
ATOM      3  N   UNL     1     -11.863   9.900  18.651  0.00  0.00    -0.299 NA
ATOM      4  N   UNL     1     -11.209   9.221  15.918  0.00  0.00    -0.298 NA
ATOM     16  C   UNL     1     -12.905   9.518  17.691  0.00  0.00    +0.100 C 
ATOM     17  C   UNL     1     -10.733  10.530  17.958  0.00  0.00    +0.100 C 
ATOM     20  C   UNL     1     -12.340   8.589  16.610  0.00  0.00    +0.100 C 
ATOM     21  C   UNL     1     -10.167   9.600  16.879  0.00  0.00    +0.100 C 
BRANCH   4  24
ATOM     24  C   UNL     1     -10.670   8.333  14.890  0.00  0.00    +0.112 C 
BRANCH  24  25
ATOM     25  C   UNL     1     -11.735   7.993  13.861  0.00  0.00    +0.171 C 
BRANCH  25   2
ATOM      2  O   UNL     1     -11.615   6.619  13.516  0.00  0.00    -0.394 OA
ATOM     28  H   UNL     1     -12.191   6.466  12.748  0.00  0.00    +0.209 HD
ENDBRANCH  25   2
ENDBRANCH  24  25
ENDBRANCH   4  24
ENDBRANCH  12   3
ENDBRANCH   8  12
BRANCH  10  15
ATOM     15  C   UNL     1     -14.883   6.726  20.554  0.00  0.00    +0.105 C 
BRANCH  15  23
ATOM      1  O   UNL     1     -14.970   5.458  22.637  0.00  0.00    -0.425 OA
ATOM      5  N   UNL     1     -16.425   4.770  21.084  0.00  0.00    -0.112 NA
ATOM      6  N   UNL     1     -16.581   3.969  22.201  0.00  0.00    -0.113 NA
ATOM     23  C   UNL     1     -15.475   5.623  21.384  0.00  0.00    +0.218 A 
ATOM     26  C   UNL     1     -15.712   4.407  23.080  0.00  0.00    +0.214 A 
ATOM     27  C   UNL     1     -15.437   3.929  24.442  0.00  0.00    +0.111 C 
ENDBRANCH  15  23
ENDBRANCH  10  15
TORSDOF 8
ENDMDL
MODEL 3
REMARK VINA RESULT:      -5.9     22.849     27.312
REMARK  Name = 45783880
REMARK  12 active torsions:
REMARK  status: ('A' for Active; 'I' for Inactive)
REMARK    1  A    between atoms: O_2  and  C_25
REMARK    2  A    between atoms: N_3  and  C_12
REMARK    3  A    between atoms: N_4  and  C_24
REMARK    4  A    between atoms: C_7  and  C_11
REMARK    5  A    between atoms: C_8  and  C_12
REMARK    6  A    between atoms: C_10  and  C_15
REMARK    7  A    between atoms: C_11  and  C_18
REMARK    8  A    between atoms: C_11  and  C_19
REMARK    9  A    between atoms: C_14  and  C_22
REMARK   10  A    between atoms: C_15  and  C_23
REMARK   11  A    between atoms: C_24  and  C_25
REMARK   12  A    between atoms: C_26  and  C_27
REMARK                            x       y       z     vdW  Elec       q    Type
REMARK                         _______ _______ _______ _____ _____    ______ ____
ROOT
ATOM      7  C   UNL     1       8.538   7.785   3.902  0.00  0.00    +0.000 C 
ATOM      8  C   UNL     1       9.963   7.367   3.472  0.00  0.00    +0.029 C 
ATOM      9  C   UNL     1       8.458   7.933   5.428  0.00  0.00    +0.012 C 
ATOM     10  C   UNL     1       9.483   8.936   5.999  0.00  0.00    +0.024 C 
ATOM     13  C   UNL     1      11.037   8.140   4.195  0.00  0.00    -0.023 C 
ATOM     14  C   UNL     1      10.840   8.856   5.317  0.00  0.00    -0.073 C 
ATOM     22  C   UNL     1      11.964   9.661   5.909  0.00  0.00    +0.039 C 
ENDROOT
BRANCH   7  11
ATOM     11  C   UNL     1       8.096   9.074   3.196  0.00  0.00    -0.013 C 
ATOM     18  C   UNL     1       8.090   8.877   1.684  0.00  0.00    +0.007 C 
ATOM     19  C   UNL     1       6.719   9.505   3.690  0.00  0.00    +0.007 C 
ENDBRANCH   7  11
BRANCH   8  12
ATOM     12  C   UNL     1      10.198   5.867   3.675  0.00  0.00    +0.092 C 
BRANCH  12   3
ATOM      3  N   UNL     1      11.180   5.363   2.716  0.00  0.00    -0.299 NA
ATOM      4  N   UNL     1      11.972   3.758   0.446  0.00  0.00    -0.298 NA
ATOM     16  C   UNL     1      11.312   3.905   2.823  0.00  0.00    +0.100 C 
ATOM     17  C   UNL     1      10.815   5.746   1.346  0.00  0.00    +0.100 C 
ATOM     20  C   UNL     1      12.338   3.374   1.815  0.00  0.00    +0.100 C 
ATOM     21  C   UNL     1      11.842   5.216   0.340  0.00  0.00    +0.100 C 
BRANCH   4  24
ATOM     24  C   UNL     1      12.952   3.252  -0.514  0.00  0.00    +0.112 C 
BRANCH  24  25
ATOM     25  C   UNL     1      12.979   4.120  -1.761  0.00  0.00    +0.171 C 
BRANCH  25   2
ATOM      2  O   UNL     1      14.239   3.962  -2.400  0.00  0.00    -0.394 OA
ATOM     28  H   UNL     1      14.613   4.851  -2.519  0.00  0.00    +0.209 HD
ENDBRANCH  25   2
ENDBRANCH  24  25
ENDBRANCH   4  24
ENDBRANCH  12   3
ENDBRANCH   8  12
BRANCH  10  15
ATOM     15  C   UNL     1       9.567   8.739   7.518  0.00  0.00    +0.105 C 
BRANCH  15  23
ATOM      1  O   UNL     1       9.098   6.634   8.658  0.00  0.00    -0.425 OA
ATOM      5  N   UNL     1      11.027   6.653   7.525  0.00  0.00    -0.112 NA
ATOM      6  N   UNL     1      10.892   5.411   8.118  0.00  0.00    -0.113 NA
ATOM     23  C   UNL     1       9.958   7.333   7.868  0.00  0.00    +0.218 A 
ATOM     26  C   UNL     1       9.753   5.445   8.768  0.00  0.00    +0.214 A 
ATOM     27  C   UNL     1       9.106   4.406   9.578  0.00  0.00    +0.111 C 
ENDBRANCH  15  23
ENDBRANCH  10  15
TORSDOF 8
ENDMDL
MODEL 4
REMARK VINA RESULT:      -5.9      2.130      3.468
REMARK  Name = 45783880
REMARK  12 active torsions:
REMARK  status: ('A' for Active; 'I' for Inactive)
REMARK    1  A    between atoms: O_2  and  C_25
REMARK    2  A    between atoms: N_3  and  C_12
REMARK    3  A    between atoms: N_4  and  C_24
REMARK    4  A    between atoms: C_7  and  C_11
REMARK    5  A    between atoms: C_8  and  C_12
REMARK    6  A    between atoms: C_10  and  C_15
REMARK    7  A    between atoms: C_11  and  C_18
REMARK    8  A    between atoms: C_11  and  C_19
REMARK    9  A    between atoms: C_14  and  C_22
REMARK   10  A    between atoms: C_15  and  C_23
REMARK   11  A    between atoms: C_24  and  C_25
REMARK   12  A    between atoms: C_26  and  C_27
REMARK                            x       y       z     vdW  Elec       q    Type
REMARK                         _______ _______ _______ _____ _____    ______ ____
ROOT
ATOM      7  C   UNL     1      -3.888 -11.838  12.443  0.00  0.00    +0.000 C 
ATOM      8  C   UNL     1      -2.951 -11.223  13.508  0.00  0.00    +0.029 C 
ATOM      9  C   UNL     1      -4.253 -10.792  11.380  0.00  0.00    +0.012 C 
ATOM     10  C   UNL     1      -3.022 -10.171  10.685  0.00  0.00    +0.024 C 
ATOM     13  C   UNL     1      -1.861 -10.376  12.901  0.00  0.00    -0.023 C 
ATOM     14  C   UNL     1      -1.869  -9.907  11.640  0.00  0.00    -0.073 C 
ATOM     22  C   UNL     1      -0.688  -9.142  11.109  0.00  0.00    +0.039 C 
ENDROOT
BRANCH   7  11
ATOM     11  C   UNL     1      -3.264 -13.085  11.802  0.00  0.00    -0.013 C 
ATOM     18  C   UNL     1      -2.858 -14.089  12.876  0.00  0.00    +0.007 C 
ATOM     19  C   UNL     1      -4.237 -13.718  10.812  0.00  0.00    +0.007 C 
ENDBRANCH   7  11
BRANCH   8  12
ATOM     12  C   UNL     1      -3.727 -10.389  14.531  0.00  0.00    +0.092 C 
BRANCH  12   3
ATOM      3  N   UNL     1      -4.435 -11.254  15.473  0.00  0.00    -0.299 NA
ATOM      4  N   UNL     1      -6.003 -11.727  17.855  0.00  0.00    -0.298 NA
ATOM     16  C   UNL     1      -3.834 -11.171  16.809  0.00  0.00    +0.100 C 
ATOM     17  C   UNL     1      -5.861 -10.908  15.529  0.00  0.00    +0.100 C 
ATOM     20  C   UNL     1      -4.577 -12.074  17.800  0.00  0.00    +0.100 C 
ATOM     21  C   UNL     1      -6.603 -11.812  16.518  0.00  0.00    +0.100 C 
BRANCH   4  24
ATOM     24  C   UNL     1      -6.711 -12.591  18.799  0.00  0.00    +0.112 C 
BRANCH  24  25
ATOM     25  C   UNL     1      -7.852 -11.838  19.463  0.00  0.00    +0.171 C 
BRANCH  25   2
ATOM      2  O   UNL     1      -7.386 -10.553  19.853  0.00  0.00    -0.394 OA
ATOM     28  H   UNL     1      -8.116  -9.928  19.705  0.00  0.00    +0.209 HD
ENDBRANCH  25   2
ENDBRANCH  24  25
ENDBRANCH   4  24
ENDBRANCH  12   3
ENDBRANCH   8  12
BRANCH  10  15
ATOM     15  C   UNL     1      -3.470  -8.913   9.929  0.00  0.00    +0.105 C 
BRANCH  15  23
ATOM      1  O   UNL     1      -5.824  -8.505   9.434  0.00  0.00    -0.425 OA
ATOM      5  N   UNL     1      -4.843  -9.981   8.069  0.00  0.00    -0.112 NA
ATOM      6  N   UNL     1      -6.163  -9.849   7.678  0.00  0.00    -0.113 NA
ATOM     23  C   UNL     1      -4.691  -9.179   9.097  0.00  0.00    +0.218 A 
ATOM     26  C   UNL     1      -6.696  -8.979   8.502  0.00  0.00    +0.214 A 
ATOM     27  C   UNL     1      -8.069  -8.460   8.556  0.00  0.00    +0.111 C 
ENDBRANCH  15  23
ENDBRANCH  10  15
TORSDOF 8
ENDMDL
MODEL 5
REMARK VINA RESULT:      -5.8     19.740     22.965
REMARK  Name = 45783880
REMARK  12 active torsions:
REMARK  status: ('A' for Active; 'I' for Inactive)
REMARK    1  A    between atoms: O_2  and  C_25
REMARK    2  A    between atoms: N_3  and  C_12
REMARK    3  A    between atoms: N_4  and  C_24
REMARK    4  A    between atoms: C_7  and  C_11
REMARK    5  A    between atoms: C_8  and  C_12
REMARK    6  A    between atoms: C_10  and  C_15
REMARK    7  A    between atoms: C_11  and  C_18
REMARK    8  A    between atoms: C_11  and  C_19
REMARK    9  A    between atoms: C_14  and  C_22
REMARK   10  A    between atoms: C_15  and  C_23
REMARK   11  A    between atoms: C_24  and  C_25
REMARK   12  A    between atoms: C_26  and  C_27
REMARK                            x       y       z     vdW  Elec       q    Type
REMARK                         _______ _______ _______ _____ _____    ______ ____
ROOT
ATOM      7  C   UNL     1     -13.373   8.984  20.673  0.00  0.00    +0.000 C 
ATOM      8  C   UNL     1     -12.060   8.321  20.199  0.00  0.00    +0.029 C 
ATOM      9  C   UNL     1     -14.515   7.959  20.699  0.00  0.00    +0.012 C 
ATOM     10  C   UNL     1     -14.212   6.729  21.582  0.00  0.00    +0.024 C 
ATOM     13  C   UNL     1     -11.827   6.975  20.838  0.00  0.00    -0.023 C 
ATOM     14  C   UNL     1     -12.772   6.254  21.469  0.00  0.00    -0.073 C 
ATOM     22  C   UNL     1     -12.411   4.961  22.147  0.00  0.00    +0.039 C 
ENDROOT
BRANCH   7  11
ATOM     11  C   UNL     1     -13.199   9.655  22.043  0.00  0.00    -0.013 C 
ATOM     18  C   UNL     1     -12.216  10.817  21.945  0.00  0.00    +0.007 C 
ATOM     19  C   UNL     1     -14.546  10.131  22.577  0.00  0.00    +0.007 C 
ENDBRANCH   7  11
BRANCH   8  12
ATOM     12  C   UNL     1     -12.019   8.170  18.676  0.00  0.00    +0.092 C 
BRANCH  12   3
ATOM      3  N   UNL     1     -11.639   9.431  18.041  0.00  0.00    -0.299 NA
ATOM      4  N   UNL     1      -9.842  11.109  16.520  0.00  0.00    -0.298 NA
ATOM     16  C   UNL     1     -10.407   9.963  18.636  0.00  0.00    +0.100 C 
ATOM     17  C   UNL     1     -11.478   9.259  16.592  0.00  0.00    +0.100 C 
ATOM     20  C   UNL     1     -10.004  11.283  17.969  0.00  0.00    +0.100 C 
ATOM     21  C   UNL     1     -11.076  10.579  15.927  0.00  0.00    +0.100 C 
BRANCH   4  24
ATOM     24  C   UNL     1      -9.460  12.369  15.886  0.00  0.00    +0.112 C 
BRANCH  24  25
ATOM     25  C   UNL     1      -8.542  13.170  16.795  0.00  0.00    +0.171 C 
BRANCH  25   2
ATOM      2  O   UNL     1      -7.202  13.004  16.351  0.00  0.00    -0.394 OA
ATOM     28  H   UNL     1      -6.740  13.844  16.515  0.00  0.00    +0.209 HD
ENDBRANCH  25   2
ENDBRANCH  24  25
ENDBRANCH   4  24
ENDBRANCH  12   3
ENDBRANCH   8  12
BRANCH  10  15
ATOM     15  C   UNL     1     -15.230   5.629  21.255  0.00  0.00    +0.105 C 
BRANCH  15  23
ATOM      1  O   UNL     1     -16.304   3.835  22.512  0.00  0.00    -0.425 OA
ATOM      5  N   UNL     1     -16.250   5.799  23.582  0.00  0.00    -0.112 NA
ATOM      6  N   UNL     1     -16.882   4.882  24.403  0.00  0.00    -0.113 NA
ATOM     23  C   UNL     1     -15.930   5.143  22.491  0.00  0.00    +0.218 A 
ATOM     26  C   UNL     1     -16.891   3.752  23.738  0.00  0.00    +0.214 A 
ATOM     27  C   UNL     1     -17.434   2.443  24.124  0.00  0.00    +0.111 C 
ENDBRANCH  15  23
ENDBRANCH  10  15
TORSDOF 8
ENDMDL
MODEL 6
REMARK VINA RESULT:      -5.8      2.727      4.303
REMARK  Name = 45783880
REMARK  12 active torsions:
REMARK  status: ('A' for Active; 'I' for Inactive)
REMARK    1  A    between atoms: O_2  and  C_25
REMARK    2  A    between atoms: N_3  and  C_12
REMARK    3  A    between atoms: N_4  and  C_24
REMARK    4  A    between atoms: C_7  and  C_11
REMARK    5  A    between atoms: C_8  and  C_12
REMARK    6  A    between atoms: C_10  and  C_15
REMARK    7  A    between atoms: C_11  and  C_18
REMARK    8  A    between atoms: C_11  and  C_19
REMARK    9  A    between atoms: C_14  and  C_22
REMARK   10  A    between atoms: C_15  and  C_23
REMARK   11  A    between atoms: C_24  and  C_25
REMARK   12  A    between atoms: C_26  and  C_27
REMARK                            x       y       z     vdW  Elec       q    Type
REMARK                         _______ _______ _______ _____ _____    ______ ____
ROOT
ATOM      7  C   UNL     1      -7.559 -11.981  17.176  0.00  0.00    +0.000 C 
ATOM      8  C   UNL     1      -7.610 -11.976  18.721  0.00  0.00    +0.029 C 
ATOM      9  C   UNL     1      -6.437 -11.062  16.672  0.00  0.00    +0.012 C 
ATOM     10  C   UNL     1      -5.047 -11.429  17.234  0.00  0.00    +0.024 C 
ATOM     13  C   UNL     1      -6.241 -12.072  19.347  0.00  0.00    -0.023 C 
ATOM     14  C   UNL     1      -5.085 -11.843  18.696  0.00  0.00    -0.073 C 
ATOM     22  C   UNL     1      -3.770 -12.051  19.395  0.00  0.00    +0.039 C 
ENDROOT
BRANCH   7  11
ATOM     11  C   UNL     1      -7.398 -13.405  16.626  0.00  0.00    -0.013 C 
ATOM     18  C   UNL     1      -8.436 -14.334  17.246  0.00  0.00    +0.007 C 
ATOM     19  C   UNL     1      -7.514 -13.403  15.105  0.00  0.00    +0.007 C 
ENDBRANCH   7  11
BRANCH   8  12
ATOM     12  C   UNL     1      -8.325 -10.733  19.260  0.00  0.00    +0.092 C 
BRANCH  12   3
ATOM      3  N   UNL     1      -9.507 -11.111  20.033  0.00  0.00    -0.299 NA
ATOM      4  N   UNL     1     -12.129 -12.296  20.312  0.00  0.00    -0.298 NA
ATOM     16  C   UNL     1     -10.705 -10.441  19.513  0.00  0.00    +0.100 C 
ATOM     17  C   UNL     1      -9.690 -12.568  20.027  0.00  0.00    +0.100 C 
ATOM     20  C   UNL     1     -11.947 -10.839  20.318  0.00  0.00    +0.100 C 
ATOM     21  C   UNL     1     -10.930 -12.965  20.834  0.00  0.00    +0.100 C 
BRANCH   4  24
ATOM     24  C   UNL     1     -13.312 -12.674  21.082  0.00  0.00    +0.112 C 
BRANCH  24  25
ATOM     25  C   UNL     1     -12.913 -13.253  22.430  0.00  0.00    +0.171 C 
BRANCH  25   2
ATOM      2  O   UNL     1     -13.195 -12.293  23.441  0.00  0.00    -0.394 OA
ATOM     28  H   UNL     1     -13.951 -11.767  23.132  0.00  0.00    +0.209 HD
ENDBRANCH  25   2
ENDBRANCH  24  25
ENDBRANCH   4  24
ENDBRANCH  12   3
ENDBRANCH   8  12
BRANCH  10  15
ATOM     15  C   UNL     1      -4.088 -10.262  16.969  0.00  0.00    +0.105 C 
BRANCH  15  23
ATOM      1  O   UNL     1      -3.296 -10.691  14.702  0.00  0.00    -0.425 OA
ATOM      5  N   UNL     1      -1.744 -10.985  16.286  0.00  0.00    -0.112 NA
ATOM      6  N   UNL     1      -1.163 -11.263  15.062  0.00  0.00    -0.113 NA
ATOM     23  C   UNL     1      -2.988 -10.657  16.027  0.00  0.00    +0.218 A 
ATOM     26  C   UNL     1      -2.105 -11.078  14.168  0.00  0.00    +0.214 A 
ATOM     27  C   UNL     1      -2.053 -11.229  12.708  0.00  0.00    +0.111 C 
ENDBRANCH  15  23
ENDBRANCH  10  15
TORSDOF 8
ENDMDL
MODEL 7
REMARK VINA RESULT:      -5.7      1.990      7.767
REMARK  Name = 45783880
REMARK  12 active torsions:
REMARK  status: ('A' for Active; 'I' for Inactive)
REMARK    1  A    between atoms: O_2  and  C_25
REMARK    2  A    between atoms: N_3  and  C_12
REMARK    3  A    between atoms: N_4  and  C_24
REMARK    4  A    between atoms: C_7  and  C_11
REMARK    5  A    between atoms: C_8  and  C_12
REMARK    6  A    between atoms: C_10  and  C_15
REMARK    7  A    between atoms: C_11  and  C_18
REMARK    8  A    between atoms: C_11  and  C_19
REMARK    9  A    between atoms: C_14  and  C_22
REMARK   10  A    between atoms: C_15  and  C_23
REMARK   11  A    between atoms: C_24  and  C_25
REMARK   12  A    between atoms: C_26  and  C_27
REMARK                            x       y       z     vdW  Elec       q    Type
REMARK                         _______ _______ _______ _____ _____    ______ ____
ROOT
ATOM      7  C   UNL     1      -3.545 -10.581  15.255  0.00  0.00    +0.000 C 
ATOM      8  C   UNL     1      -4.596 -11.394  14.465  0.00  0.00    +0.029 C 
ATOM      9  C   UNL     1      -4.119 -10.128  16.605  0.00  0.00    +0.012 C 
ATOM     10  C   UNL     1      -4.628 -11.298  17.476  0.00  0.00    +0.024 C 
ATOM     13  C   UNL     1      -5.326 -12.392  15.327  0.00  0.00    -0.023 C 
ATOM     14  C   UNL     1      -5.342 -12.373  16.673  0.00  0.00    -0.073 C 
ATOM     22  C   UNL     1      -6.032 -13.469  17.438  0.00  0.00    +0.039 C 
ENDROOT
BRANCH   7  11
ATOM     11  C   UNL     1      -2.247 -11.379  15.445  0.00  0.00    -0.013 C 
ATOM     18  C   UNL     1      -1.896 -12.134  14.167  0.00  0.00    +0.007 C 
ATOM     19  C   UNL     1      -1.108 -10.451  15.854  0.00  0.00    +0.007 C 
ENDBRANCH   7  11
BRANCH   8  12
ATOM     12  C   UNL     1      -5.615 -10.483  13.776  0.00  0.00    +0.092 C 
BRANCH  12   3
ATOM      3  N   UNL     1      -5.127 -10.058  12.465  0.00  0.00    -0.299 NA
ATOM      4  N   UNL     1      -5.318  -9.859   9.587  0.00  0.00    -0.298 NA
ATOM     16  C   UNL     1      -4.875 -11.219  11.602  0.00  0.00    +0.100 C 
ATOM     17  C   UNL     1      -6.077  -9.140  11.826  0.00  0.00    +0.100 C 
ATOM     20  C   UNL     1      -4.366 -10.777  10.225  0.00  0.00    +0.100 C 
ATOM     21  C   UNL     1      -5.567  -8.698  10.450  0.00  0.00    +0.100 C 
BRANCH   4  24
ATOM     24  C   UNL     1      -4.830  -9.436   8.275  0.00  0.00    +0.112 C 
BRANCH  24  25
ATOM     25  C   UNL     1      -5.775  -9.897   7.178  0.00  0.00    +0.171 C 
BRANCH  25   2
ATOM      2  O   UNL     1      -6.501  -8.773   6.697  0.00  0.00    -0.394 OA
ATOM     28  H   UNL     1      -6.576  -8.145   7.435  0.00  0.00    +0.209 HD
ENDBRANCH  25   2
ENDBRANCH  24  25
ENDBRANCH   4  24
ENDBRANCH  12   3
ENDBRANCH   8  12
BRANCH  10  15
ATOM     15  C   UNL     1      -5.492 -10.725  18.607  0.00  0.00    +0.105 C 
BRANCH  15  23
ATOM      1  O   UNL     1      -7.930 -10.708  18.685  0.00  0.00    -0.425 OA
ATOM      5  N   UNL     1      -7.054  -9.361  17.129  0.00  0.00    -0.112 NA
ATOM      6  N   UNL     1      -8.431  -9.255  17.060  0.00  0.00    -0.113 NA
ATOM     23  C   UNL     1      -6.808 -10.220  18.090  0.00  0.00    +0.218 A 
ATOM     26  C   UNL     1      -8.900 -10.057  17.986  0.00  0.00    +0.214 A 
ATOM     27  C   UNL     1     -10.291 -10.344  18.359  0.00  0.00    +0.111 C 
ENDBRANCH  15  23
ENDBRANCH  10  15
TORSDOF 8
ENDMDL
MODEL 8
REMARK VINA RESULT:      -5.7     24.715     27.814
REMARK  Name = 45783880
REMARK  12 active torsions:
REMARK  status: ('A' for Active; 'I' for Inactive)
REMARK    1  A    between atoms: O_2  and  C_25
REMARK    2  A    between atoms: N_3  and  C_12
REMARK    3  A    between atoms: N_4  and  C_24
REMARK    4  A    between atoms: C_7  and  C_11
REMARK    5  A    between atoms: C_8  and  C_12
REMARK    6  A    between atoms: C_10  and  C_15
REMARK    7  A    between atoms: C_11  and  C_18
REMARK    8  A    between atoms: C_11  and  C_19
REMARK    9  A    between atoms: C_14  and  C_22
REMARK   10  A    between atoms: C_15  and  C_23
REMARK   11  A    between atoms: C_24  and  C_25
REMARK   12  A    between atoms: C_26  and  C_27
REMARK                            x       y       z     vdW  Elec       q    Type
REMARK                         _______ _______ _______ _____ _____    ______ ____
ROOT
ATOM      7  C   UNL     1       9.869   7.426   5.252  0.00  0.00    +0.000 C 
ATOM      8  C   UNL     1       9.141   7.366   3.889  0.00  0.00    +0.029 C 
ATOM      9  C   UNL     1      10.149   8.882   5.649  0.00  0.00    +0.012 C 
ATOM     10  C   UNL     1       8.877   9.755   5.706  0.00  0.00    +0.024 C 
ATOM     13  C   UNL     1       8.036   8.386   3.777  0.00  0.00    -0.023 C 
ATOM     14  C   UNL     1       7.895   9.453   4.586  0.00  0.00    -0.073 C 
ATOM     22  C   UNL     1       6.705  10.361   4.439  0.00  0.00    +0.039 C 
ENDROOT
BRANCH   7  11
ATOM     11  C   UNL     1       9.074   6.696   6.343  0.00  0.00    -0.013 C 
ATOM     18  C   UNL     1       8.949   5.214   6.009  0.00  0.00    +0.007 C 
ATOM     19  C   UNL     1       9.737   6.890   7.703  0.00  0.00    +0.007 C 
ENDBRANCH   7  11
BRANCH   8  12
ATOM     12  C   UNL     1      10.113   7.545   2.719  0.00  0.00    +0.092 C 
BRANCH  12   3
ATOM      3  N   UNL     1      11.097   6.465   2.695  0.00  0.00    -0.299 NA
ATOM      4  N   UNL     1      12.469   4.261   1.422  0.00  0.00    -0.298 NA
ATOM     16  C   UNL     1      10.440   5.166   2.504  0.00  0.00    +0.100 C 
ATOM     17  C   UNL     1      12.097   6.693   1.645  0.00  0.00    +0.100 C 
ATOM     20  C   UNL     1      11.470   4.031   2.473  0.00  0.00    +0.100 C 
ATOM     21  C   UNL     1      13.127   5.559   1.616  0.00  0.00    +0.100 C 
BRANCH   4  24
ATOM     24  C   UNL     1      13.451   3.179   1.396  0.00  0.00    +0.112 C 
BRANCH  24  25
ATOM     25  C   UNL     1      14.864   3.737   1.365  0.00  0.00    +0.171 C 
BRANCH  25   2
ATOM      2  O   UNL     1      15.616   3.137   2.412  0.00  0.00    -0.394 OA
ATOM     28  H   UNL     1      16.543   3.110   2.119  0.00  0.00    +0.209 HD
ENDBRANCH  25   2
ENDBRANCH  24  25
ENDBRANCH   4  24
ENDBRANCH  12   3
ENDBRANCH   8  12
BRANCH  10  15
ATOM     15  C   UNL     1       9.297  11.230   5.748  0.00  0.00    +0.105 C 
BRANCH  15  23
ATOM      1  O   UNL     1       9.332  11.174   8.188  0.00  0.00    -0.425 OA
ATOM      5  N   UNL     1       8.353  12.992   7.327  0.00  0.00    -0.112 NA
ATOM      6  N   UNL     1       8.301  13.090   8.705  0.00  0.00    -0.113 NA
ATOM     23  C   UNL     1       8.963  11.858   7.071  0.00  0.00    +0.218 A 
ATOM     26  C   UNL     1       8.883  12.009   9.165  0.00  0.00    +0.214 A 
ATOM     27  C   UNL     1       9.110  11.586  10.552  0.00  0.00    +0.111 C 
ENDBRANCH  15  23
ENDBRANCH  10  15
TORSDOF 8
ENDMDL
MODEL 9
REMARK VINA RESULT:      -5.6      2.484      3.038
REMARK  Name = 45783880
REMARK  12 active torsions:
REMARK  status: ('A' for Active; 'I' for Inactive)
REMARK    1  A    between atoms: O_2  and  C_25
REMARK    2  A    between atoms: N_3  and  C_12
REMARK    3  A    between atoms: N_4  and  C_24
REMARK    4  A    between atoms: C_7  and  C_11
REMARK    5  A    between atoms: C_8  and  C_12
REMARK    6  A    between atoms: C_10  and  C_15
REMARK    7  A    between atoms: C_11  and  C_18
REMARK    8  A    between atoms: C_11  and  C_19
REMARK    9  A    between atoms: C_14  and  C_22
REMARK   10  A    between atoms: C_15  and  C_23
REMARK   11  A    between atoms: C_24  and  C_25
REMARK   12  A    between atoms: C_26  and  C_27
REMARK                            x       y       z     vdW  Elec       q    Type
REMARK                         _______ _______ _______ _____ _____    ______ ____
ROOT
ATOM      7  C   UNL     1      -5.130 -12.593  15.735  0.00  0.00    +0.000 C 
ATOM      8  C   UNL     1      -5.186 -11.070  15.997  0.00  0.00    +0.029 C 
ATOM      9  C   UNL     1      -4.091 -12.914  14.651  0.00  0.00    +0.012 C 
ATOM     10  C   UNL     1      -2.675 -12.398  14.988  0.00  0.00    +0.024 C 
ATOM     13  C   UNL     1      -3.816 -10.446  16.081  0.00  0.00    -0.023 C 
ATOM     14  C   UNL     1      -2.682 -11.027  15.646  0.00  0.00    -0.073 C 
ATOM     22  C   UNL     1      -1.356 -10.351  15.857  0.00  0.00    +0.039 C 
ENDROOT
BRANCH   7  11
ATOM     11  C   UNL     1      -4.844 -13.373  17.025  0.00  0.00    -0.013 C 
ATOM     18  C   UNL     1      -5.747 -12.885  18.153  0.00  0.00    +0.007 C 
ATOM     19  C   UNL     1      -5.028 -14.870  16.794  0.00  0.00    +0.007 C 
ENDBRANCH   7  11
BRANCH   8  12
ATOM     12  C   UNL     1      -6.008 -10.342  14.930  0.00  0.00    +0.092 C 
BRANCH  12   3
ATOM      3  N   UNL     1      -7.356 -10.062  15.419  0.00  0.00    -0.299 NA
ATOM      4  N   UNL     1      -9.554  -8.287  16.037  0.00  0.00    -0.298 NA
ATOM     16  C   UNL     1      -7.313  -9.173  16.587  0.00  0.00    +0.100 C 
ATOM     17  C   UNL     1      -8.185  -9.475  14.358  0.00  0.00    +0.100 C 
ATOM     20  C   UNL     1      -8.727  -8.874  17.099  0.00  0.00    +0.100 C 
ATOM     21  C   UNL     1      -9.598  -9.178  14.871  0.00  0.00    +0.100 C 
BRANCH   4  24
ATOM     24  C   UNL     1     -10.902  -8.005  16.526  0.00  0.00    +0.112 C 
BRANCH  24  25
ATOM     25  C   UNL     1     -11.276  -6.556  16.263  0.00  0.00    +0.171 C 
BRANCH  25   2
ATOM      2  O   UNL     1     -10.169  -5.900  15.657  0.00  0.00    -0.394 OA
ATOM     28  H   UNL     1     -10.246  -6.037  14.698  0.00  0.00    +0.209 HD
ENDBRANCH  25   2
ENDBRANCH  24  25
ENDBRANCH   4  24
ENDBRANCH  12   3
ENDBRANCH   8  12
BRANCH  10  15
ATOM     15  C   UNL     1      -1.822 -12.444  13.715  0.00  0.00    +0.105 C 
BRANCH  15  23
ATOM      1  O   UNL     1      -2.974 -12.514  11.565  0.00  0.00    -0.425 OA
ATOM      5  N   UNL     1      -2.705 -10.454  12.394  0.00  0.00    -0.112 NA
ATOM      6  N   UNL     1      -3.364 -10.345  11.183  0.00  0.00    -0.113 NA
ATOM     23  C   UNL     1      -2.497 -11.737  12.576  0.00  0.00    +0.218 A 
ATOM     26  C   UNL     1      -3.499 -11.571  10.736  0.00  0.00    +0.214 A 
ATOM     27  C   UNL     1      -4.122 -12.052   9.497  0.00  0.00    +0.111 C 
ENDBRANCH  15  23
ENDBRANCH  10  15
TORSDOF 8
ENDMDL
MODEL 10
REMARK VINA RESULT:      -5.5      3.249      4.603
REMARK  Name = 45783880
REMARK  12 active torsions:
REMARK  status: ('A' for Active; 'I' for Inactive)
REMARK    1  A    between atoms: O_2  and  C_25
REMARK    2  A    between atoms: N_3  and  C_12
REMARK    3  A    between atoms: N_4  and  C_24
REMARK    4  A    between atoms: C_7  and  C_11
REMARK    5  A    between atoms: C_8  and  C_12
REMARK    6  A    between atoms: C_10  and  C_15
REMARK    7  A    between atoms: C_11  and  C_18
REMARK    8  A    between atoms: C_11  and  C_19
REMARK    9  A    between atoms: C_14  and  C_22
REMARK   10  A    between atoms: C_15  and  C_23
REMARK   11  A    between atoms: C_24  and  C_25
REMARK   12  A    between atoms: C_26  and  C_27
REMARK                            x       y       z     vdW  Elec       q    Type
REMARK                         _______ _______ _______ _____ _____    ______ ____
ROOT
ATOM      7  C   UNL     1      -7.626 -11.861  16.870  0.00  0.00    +0.000 C 
ATOM      8  C   UNL     1      -7.761 -11.925  18.409  0.00  0.00    +0.029 C 
ATOM      9  C   UNL     1      -6.455 -10.952  16.471  0.00  0.00    +0.012 C 
ATOM     10  C   UNL     1      -5.107 -11.384  17.089  0.00  0.00    +0.024 C 
ATOM     13  C   UNL     1      -6.432 -12.088  19.102  0.00  0.00    -0.023 C 
ATOM     14  C   UNL     1      -5.237 -11.863  18.526  0.00  0.00    -0.073 C 
ATOM     22  C   UNL     1      -3.967 -12.140  19.283  0.00  0.00    +0.039 C 
ENDROOT
BRANCH   7  11
ATOM     11  C   UNL     1      -7.472 -13.262  16.263  0.00  0.00    -0.013 C 
ATOM     18  C   UNL     1      -8.537 -14.202  16.819  0.00  0.00    +0.007 C 
ATOM     19  C   UNL     1      -7.552 -13.194  14.741  0.00  0.00    +0.007 C 
ENDBRANCH   7  11
BRANCH   8  12
ATOM     12  C   UNL     1      -8.472 -10.688  18.967  0.00  0.00    +0.092 C 
BRANCH  12   3
ATOM      3  N   UNL     1      -9.329 -10.082  17.949  0.00  0.00    -0.299 NA
ATOM      4  N   UNL     1     -11.234  -8.112  17.029  0.00  0.00    -0.298 NA
ATOM     16  C   UNL     1     -10.739 -10.138  18.354  0.00  0.00    +0.100 C 
ATOM     17  C   UNL     1      -8.925  -8.695  17.686  0.00  0.00    +0.100 C 
ATOM     20  C   UNL     1     -11.639  -9.499  17.290  0.00  0.00    +0.100 C 
ATOM     21  C   UNL     1      -9.825  -8.057  16.622  0.00  0.00    +0.100 C 
BRANCH   4  24
ATOM     24  C   UNL     1     -12.092  -7.505  16.013  0.00  0.00    +0.112 C 
BRANCH  24  25
ATOM     25  C   UNL     1     -11.449  -6.249  15.449  0.00  0.00    +0.171 C 
BRANCH  25   2
ATOM      2  O   UNL     1     -12.439  -5.501  14.754  0.00  0.00    -0.394 OA
ATOM     28  H   UNL     1     -12.364  -5.732  13.813  0.00  0.00    +0.209 HD
ENDBRANCH  25   2
ENDBRANCH  24  25
ENDBRANCH   4  24
ENDBRANCH  12   3
ENDBRANCH   8  12
BRANCH  10  15
ATOM     15  C   UNL     1      -4.106 -10.233  16.932  0.00  0.00    +0.105 C 
BRANCH  15  23
ATOM      1  O   UNL     1      -3.274 -10.635  14.673  0.00  0.00    -0.425 OA
ATOM      5  N   UNL     1      -1.740 -10.911  16.277  0.00  0.00    -0.112 NA
ATOM      6  N   UNL     1      -1.137 -11.171  15.059  0.00  0.00    -0.113 NA
ATOM     23  C   UNL     1      -2.986 -10.603  16.003  0.00  0.00    +0.218 A 
ATOM     26  C   UNL     1      -2.070 -10.997  14.153  0.00  0.00    +0.214 A 
ATOM     27  C   UNL     1      -1.994 -11.138  12.694  0.00  0.00    +0.111 C 
ENDBRANCH  15  23
ENDBRANCH  10  15
TORSDOF 8
ENDMDL
