MODEL 1
REMARK VINA RESULT:      -7.8      0.000      0.000
REMARK  Name = 11886429
REMARK  4 active torsions:
REMARK  status: ('A' for Active; 'I' for Inactive)
REMARK    1  A    between atoms: N_6  and  C_18
REMARK    2  A    between atoms: N_7  and  C_26
REMARK    3  A    between atoms: N_8  and  C_29
REMARK    4  A    between atoms: C_32  and  C_35
REMARK                            x       y       z     vdW  Elec       q    Type
REMARK                         _______ _______ _______ _____ _____    ______ ____
ROOT
ATOM      1  O   UNL     1      11.418   8.797  22.503  0.00  0.00    -0.253 OA
ATOM      2  O   UNL     1      17.249   9.534  21.086  0.00  0.00    -0.266 OA
ATOM      4  N   UNL     1      12.227   9.810  20.577  0.00  0.00    -0.285 N 
ATOM      5  N   UNL     1      15.277   8.949  19.978  0.00  0.00    -0.310 N 
ATOM      6  N   UNL     1      12.158  10.963  22.640  0.00  0.00    -0.296 N 
ATOM     10  C   UNL     1      13.787  10.665  18.801  0.00  0.00    +0.027 C 
ATOM     11  C   UNL     1      13.141   8.297  18.813  0.00  0.00    +0.054 C 
ATOM     12  C   UNL     1      13.381   9.502  17.908  0.00  0.00    +0.018 C 
ATOM     13  C   UNL     1      12.683  10.990  19.826  0.00  0.00    +0.114 C 
ATOM     14  C   UNL     1      11.980   8.607  19.771  0.00  0.00    +0.119 C 
ATOM     15  C   UNL     1      15.117  10.323  19.484  0.00  0.00    +0.130 C 
ATOM     16  C   UNL     1      14.384   7.940  19.604  0.00  0.00    +0.027 A 
ATOM     17  C   UNL     1      11.902   9.787  21.946  0.00  0.00    +0.302 C 
ATOM     19  C   UNL     1      14.613   6.667  19.968  0.00  0.00    +0.024 A 
ATOM     20  C   UNL     1      16.425   8.682  20.749  0.00  0.00    +0.273 A 
ATOM     26  C   UNL     1      16.631   7.256  21.156  0.00  0.00    +0.100 A 
ATOM     27  C   UNL     1      15.759   6.322  20.762  0.00  0.00    +0.030 A 
ATOM     36  H   UNL     1      12.413  11.809  22.151  0.00  0.00    +0.151 HD
ENDROOT
BRANCH  26   7
ATOM      3  O   UNL     1      19.198   6.509  20.185  0.00  0.00    -0.252 OA
ATOM      7  N   UNL     1      17.723   6.958  21.917  0.00  0.00    -0.265 N 
ATOM      8  N   UNL     1      19.878   6.355  22.427  0.00  0.00    -0.269 N 
ATOM     28  C   UNL     1      18.969   6.595  21.390  0.00  0.00    +0.308 C 
ATOM     37  H   UNL     1      17.558   6.755  22.898  0.00  0.00    +0.157 HD
ATOM     38  H   UNL     1      19.529   6.476  23.374  0.00  0.00    +0.156 HD
BRANCH   8  29
ATOM     29  C   UNL     1      21.234   5.968  22.321  0.00  0.00    +0.036 A 
ATOM     30  C   UNL     1      21.544   4.697  21.863  0.00  0.00    +0.042 A 
ATOM     31  C   UNL     1      22.226   6.866  22.681  0.00  0.00    +0.023 A 
ATOM     32  C   UNL     1      22.882   4.316  21.760  0.00  0.00    +0.054 A 
ATOM     33  C   UNL     1      23.563   6.484  22.579  0.00  0.00    +0.003 A 
ATOM     34  C   UNL     1      23.891   5.209  22.119  0.00  0.00    +0.019 A 
BRANCH  32  35
ATOM      9  N   UNL     1      23.492   1.947  20.905  0.00  0.00    -0.191 NA
ATOM     35  C   UNL     1      23.218   3.010  21.289  0.00  0.00    +0.099 C 
ENDBRANCH  32  35
ENDBRANCH   8  29
ENDBRANCH  26   7
BRANCH   6  18
ATOM     18  C   UNL     1      11.875  11.102  24.052  0.00  0.00    +0.074 C 
ATOM     21  C   UNL     1      10.548  11.836  24.278  0.00  0.00    +0.022 C 
ATOM     22  C   UNL     1      13.027  11.802  24.779  0.00  0.00    +0.022 C 
ATOM     23  C   UNL     1      10.639  13.325  23.941  0.00  0.00    +0.002 C 
ATOM     24  C   UNL     1      13.114  13.290  24.442  0.00  0.00    +0.002 C 
ATOM     25  C   UNL     1      11.786  14.001  24.686  0.00  0.00    +0.000 C 
ENDBRANCH   6  18
TORSDOF 4
ENDMDL
MODEL 2
REMARK VINA RESULT:      -7.5     19.321     23.201
REMARK  Name = 11886429
REMARK  4 active torsions:
REMARK  status: ('A' for Active; 'I' for Inactive)
REMARK    1  A    between atoms: N_6  and  C_18
REMARK    2  A    between atoms: N_7  and  C_26
REMARK    3  A    between atoms: N_8  and  C_29
REMARK    4  A    between atoms: C_32  and  C_35
REMARK                            x       y       z     vdW  Elec       q    Type
REMARK                         _______ _______ _______ _____ _____    ______ ____
ROOT
ATOM      1  O   UNL     1      11.561   2.565  -3.384  0.00  0.00    -0.253 OA
ATOM      2  O   UNL     1      10.849   6.609   1.054  0.00  0.00    -0.266 OA
ATOM      4  N   UNL     1      12.736   4.555  -3.163  0.00  0.00    -0.285 N 
ATOM      5  N   UNL     1      12.625   5.666  -0.137  0.00  0.00    -0.310 N 
ATOM      6  N   UNL     1      10.538   4.513  -4.034  0.00  0.00    -0.296 N 
ATOM     10  C   UNL     1      13.599   6.732  -2.249  0.00  0.00    +0.027 C 
ATOM     11  C   UNL     1      14.522   4.616  -1.417  0.00  0.00    +0.054 C 
ATOM     12  C   UNL     1      14.889   6.033  -1.846  0.00  0.00    +0.018 C 
ATOM     13  C   UNL     1      12.907   5.995  -3.412  0.00  0.00    +0.114 C 
ATOM     14  C   UNL     1      13.912   3.867  -2.613  0.00  0.00    +0.119 C 
ATOM     15  C   UNL     1      12.689   6.839  -1.019  0.00  0.00    +0.130 C 
ATOM     16  C   UNL     1      13.545   4.621  -0.257  0.00  0.00    +0.027 A 
ATOM     17  C   UNL     1      11.608   3.792  -3.515  0.00  0.00    +0.302 C 
ATOM     19  C   UNL     1      13.545   3.615   0.633  0.00  0.00    +0.024 A 
ATOM     20  C   UNL     1      11.666   5.701   0.897  0.00  0.00    +0.273 A 
ATOM     26  C   UNL     1      11.683   4.550   1.852  0.00  0.00    +0.100 A 
ATOM     27  C   UNL     1      12.592   3.580   1.706  0.00  0.00    +0.030 A 
ATOM     36  H   UNL     1      10.638   5.488  -4.275  0.00  0.00    +0.151 HD
ENDROOT
BRANCH  26   7
ATOM      3  O   UNL     1      11.740   6.156   4.199  0.00  0.00    -0.252 OA
ATOM      7  N   UNL     1      10.760   4.538   2.857  0.00  0.00    -0.265 N 
ATOM      8  N   UNL     1       9.740   5.103   4.833  0.00  0.00    -0.269 N 
ATOM     28  C   UNL     1      10.834   5.351   3.996  0.00  0.00    +0.308 C 
ATOM     37  H   UNL     1      10.134   3.740   2.897  0.00  0.00    +0.157 HD
ATOM     38  H   UNL     1       9.073   4.405   4.515  0.00  0.00    +0.156 HD
BRANCH   8  29
ATOM     29  C   UNL     1       9.442   5.711   6.075  0.00  0.00    +0.036 A 
ATOM     30  C   UNL     1       9.773   5.055   7.250  0.00  0.00    +0.042 A 
ATOM     31  C   UNL     1       8.822   6.950   6.093  0.00  0.00    +0.023 A 
ATOM     32  C   UNL     1       9.477   5.655   8.474  0.00  0.00    +0.054 A 
ATOM     33  C   UNL     1       8.526   7.549   7.316  0.00  0.00    +0.003 A 
ATOM     34  C   UNL     1       8.854   6.901   8.507  0.00  0.00    +0.019 A 
BRANCH  32  35
ATOM      9  N   UNL     1      10.086   4.451  10.686  0.00  0.00    -0.191 NA
ATOM     35  C   UNL     1       9.813   4.991   9.694  0.00  0.00    +0.099 C 
ENDBRANCH  32  35
ENDBRANCH   8  29
ENDBRANCH  26   7
BRANCH   6  18
ATOM     18  C   UNL     1       9.308   3.874  -4.449  0.00  0.00    +0.074 C 
ATOM     21  C   UNL     1       9.414   3.359  -5.889  0.00  0.00    +0.022 C 
ATOM     22  C   UNL     1       8.114   4.818  -4.283  0.00  0.00    +0.022 C 
ATOM     23  C   UNL     1       9.412   4.493  -6.916  0.00  0.00    +0.002 C 
ATOM     24  C   UNL     1       8.113   5.948  -5.313  0.00  0.00    +0.002 C 
ATOM     25  C   UNL     1       8.208   5.412  -6.738  0.00  0.00    +0.000 C 
ENDBRANCH   6  18
TORSDOF 4
ENDMDL
MODEL 3
REMARK VINA RESULT:      -7.3     28.772     31.586
REMARK  Name = 11886429
REMARK  4 active torsions:
REMARK  status: ('A' for Active; 'I' for Inactive)
REMARK    1  A    between atoms: N_6  and  C_18
REMARK    2  A    between atoms: N_7  and  C_26
REMARK    3  A    between atoms: N_8  and  C_29
REMARK    4  A    between atoms: C_32  and  C_35
REMARK                            x       y       z     vdW  Elec       q    Type
REMARK                         _______ _______ _______ _____ _____    ______ ____
ROOT
ATOM      1  O   UNL     1      -2.745 -10.279  15.854  0.00  0.00    -0.253 OA
ATOM      2  O   UNL     1      -6.593 -11.119  11.266  0.00  0.00    -0.266 OA
ATOM      4  N   UNL     1      -3.167 -12.300  14.792  0.00  0.00    -0.285 N 
ATOM      5  N   UNL     1      -4.458 -11.855  11.871  0.00  0.00    -0.310 N 
ATOM      6  N   UNL     1      -4.649 -11.428  16.415  0.00  0.00    -0.296 N 
ATOM     10  C   UNL     1      -4.057 -14.014  13.183  0.00  0.00    +0.027 C 
ATOM     11  C   UNL     1      -2.149 -12.613  12.532  0.00  0.00    +0.054 C 
ATOM     12  C   UNL     1      -2.707 -14.032  12.481  0.00  0.00    +0.018 C 
ATOM     13  C   UNL     1      -3.915 -13.559  14.649  0.00  0.00    +0.114 C 
ATOM     14  C   UNL     1      -1.934 -12.206  13.999  0.00  0.00    +0.119 C 
ATOM     15  C   UNL     1      -5.012 -13.111  12.394  0.00  0.00    +0.130 C 
ATOM     16  C   UNL     1      -3.079 -11.627  11.853  0.00  0.00    +0.027 A 
ATOM     17  C   UNL     1      -3.471 -11.266  15.696  0.00  0.00    +0.302 C 
ATOM     19  C   UNL     1      -2.584 -10.526  11.262  0.00  0.00    +0.024 A 
ATOM     20  C   UNL     1      -5.372 -10.951  11.292  0.00  0.00    +0.273 A 
ATOM     26  C   UNL     1      -4.783  -9.725  10.667  0.00  0.00    +0.100 A 
ATOM     27  C   UNL     1      -3.457  -9.557  10.660  0.00  0.00    +0.030 A 
ATOM     36  H   UNL     1      -5.156 -12.301  16.389  0.00  0.00    +0.151 HD
ENDROOT
BRANCH  26   7
ATOM      3  O   UNL     1      -6.175 -10.023   8.204  0.00  0.00    -0.252 OA
ATOM      7  N   UNL     1      -5.636  -8.817  10.111  0.00  0.00    -0.265 N 
ATOM      8  N   UNL     1      -7.099  -7.901   8.599  0.00  0.00    -0.269 N 
ATOM     28  C   UNL     1      -6.299  -9.011   8.892  0.00  0.00    +0.308 C 
ATOM     37  H   UNL     1      -5.596  -7.869  10.471  0.00  0.00    +0.157 HD
ATOM     38  H   UNL     1      -7.093  -7.144   9.278  0.00  0.00    +0.156 HD
BRANCH   8  29
ATOM     29  C   UNL     1      -7.925  -7.700   7.468  0.00  0.00    +0.036 A 
ATOM     30  C   UNL     1      -7.532  -8.210   6.241  0.00  0.00    +0.042 A 
ATOM     31  C   UNL     1      -9.109  -6.994   7.610  0.00  0.00    +0.023 A 
ATOM     32  C   UNL     1      -8.347  -8.009   5.127  0.00  0.00    +0.054 A 
ATOM     33  C   UNL     1      -9.922  -6.793   6.496  0.00  0.00    +0.003 A 
ATOM     34  C   UNL     1      -9.542  -7.301   5.254  0.00  0.00    +0.019 A 
BRANCH  32  35
ATOM      9  N   UNL     1      -7.641  -8.952   2.819  0.00  0.00    -0.191 NA
ATOM     35  C   UNL     1      -7.958  -8.529   3.854  0.00  0.00    +0.099 C 
ENDBRANCH  32  35
ENDBRANCH   8  29
ENDBRANCH  26   7
BRANCH   6  18
ATOM     18  C   UNL     1      -5.099 -10.456  17.387  0.00  0.00    +0.074 C 
ATOM     21  C   UNL     1      -5.108 -11.054  18.799  0.00  0.00    +0.022 C 
ATOM     22  C   UNL     1      -6.475  -9.897  17.012  0.00  0.00    +0.022 C 
ATOM     23  C   UNL     1      -6.232 -12.073  18.995  0.00  0.00    +0.002 C 
ATOM     24  C   UNL     1      -7.595 -10.917  17.211  0.00  0.00    +0.002 C 
ATOM     25  C   UNL     1      -7.592 -11.489  18.625  0.00  0.00    +0.000 C 
ENDBRANCH   6  18
TORSDOF 4
ENDMDL
MODEL 4
REMARK VINA RESULT:      -7.3     15.578     17.886
REMARK  Name = 11886429
REMARK  4 active torsions:
REMARK  status: ('A' for Active; 'I' for Inactive)
REMARK    1  A    between atoms: N_6  and  C_18
REMARK    2  A    between atoms: N_7  and  C_26
REMARK    3  A    between atoms: N_8  and  C_29
REMARK    4  A    between atoms: C_32  and  C_35
REMARK                            x       y       z     vdW  Elec       q    Type
REMARK                         _______ _______ _______ _____ _____    ______ ____
ROOT
ATOM      1  O   UNL     1       9.406   8.157   3.012  0.00  0.00    -0.253 OA
ATOM      2  O   UNL     1      13.648   6.637   7.043  0.00  0.00    -0.266 OA
ATOM      4  N   UNL     1       9.032   7.061   5.024  0.00  0.00    -0.285 N 
ATOM      5  N   UNL     1      11.476   7.499   7.083  0.00  0.00    -0.310 N 
ATOM      6  N   UNL     1       9.840   5.908   3.125  0.00  0.00    -0.296 N 
ATOM     10  C   UNL     1       9.400   6.017   7.281  0.00  0.00    +0.027 C 
ATOM     11  C   UNL     1       9.144   8.451   7.097  0.00  0.00    +0.054 C 
ATOM     12  C   UNL     1       8.757   7.234   7.931  0.00  0.00    +0.018 C 
ATOM     13  C   UNL     1       8.909   5.837   5.831  0.00  0.00    +0.114 C 
ATOM     14  C   UNL     1       8.574   8.295   5.677  0.00  0.00    +0.119 C 
ATOM     15  C   UNL     1      10.925   6.165   7.354  0.00  0.00    +0.130 C 
ATOM     16  C   UNL     1      10.649   8.625   7.034  0.00  0.00    +0.027 A 
ATOM     17  C   UNL     1       9.427   7.115   3.675  0.00  0.00    +0.302 C 
ATOM     19  C   UNL     1      11.185   9.851   6.903  0.00  0.00    +0.024 A 
ATOM     20  C   UNL     1      12.879   7.598   6.986  0.00  0.00    +0.273 A 
ATOM     26  C   UNL     1      13.434   8.977   6.816  0.00  0.00    +0.100 A 
ATOM     27  C   UNL     1      12.605  10.026   6.790  0.00  0.00    +0.030 A 
ATOM     36  H   UNL     1       9.715   5.040   3.626  0.00  0.00    +0.151 HD
ENDROOT
BRANCH  26   7
ATOM      3  O   UNL     1      14.962   8.597   4.447  0.00  0.00    -0.252 OA
ATOM      7  N   UNL     1      14.786   9.114   6.702  0.00  0.00    -0.265 N 
ATOM      8  N   UNL     1      16.861   9.131   5.720  0.00  0.00    -0.269 N 
ATOM     28  C   UNL     1      15.495   8.915   5.509  0.00  0.00    +0.308 C 
ATOM     37  H   UNL     1      15.323   9.118   7.564  0.00  0.00    +0.157 HD
ATOM     38  H   UNL     1      17.139   9.395   6.663  0.00  0.00    +0.156 HD
BRANCH   8  29
ATOM     29  C   UNL     1      17.911   9.034   4.779  0.00  0.00    +0.036 A 
ATOM     30  C   UNL     1      18.898   8.077   4.958  0.00  0.00    +0.042 A 
ATOM     31  C   UNL     1      17.935   9.899   3.696  0.00  0.00    +0.023 A 
ATOM     32  C   UNL     1      19.935   7.983   4.030  0.00  0.00    +0.054 A 
ATOM     33  C   UNL     1      18.972   9.805   2.769  0.00  0.00    +0.003 A 
ATOM     34  C   UNL     1      19.972   8.847   2.935  0.00  0.00    +0.019 A 
BRANCH  32  35
ATOM      9  N   UNL     1      21.793   6.204   4.338  0.00  0.00    -0.191 NA
ATOM     35  C   UNL     1      20.959   7.002   4.200  0.00  0.00    +0.099 C 
ENDBRANCH  32  35
ENDBRANCH   8  29
ENDBRANCH  26   7
BRANCH   6  18
ATOM     18  C   UNL     1      10.272   5.796   1.749  0.00  0.00    +0.074 C 
ATOM     21  C   UNL     1      10.338   4.328   1.311  0.00  0.00    +0.022 C 
ATOM     22  C   UNL     1      11.615   6.500   1.533  0.00  0.00    +0.022 C 
ATOM     23  C   UNL     1      11.506   3.578   1.952  0.00  0.00    +0.002 C 
ATOM     24  C   UNL     1      12.780   5.747   2.173  0.00  0.00    +0.002 C 
ATOM     25  C   UNL     1      12.833   4.293   1.714  0.00  0.00    +0.000 C 
ENDBRANCH   6  18
TORSDOF 4
ENDMDL
MODEL 5
REMARK VINA RESULT:      -7.3     17.466     21.348
REMARK  Name = 11886429
REMARK  4 active torsions:
REMARK  status: ('A' for Active; 'I' for Inactive)
REMARK    1  A    between atoms: N_6  and  C_18
REMARK    2  A    between atoms: N_7  and  C_26
REMARK    3  A    between atoms: N_8  and  C_29
REMARK    4  A    between atoms: C_32  and  C_35
REMARK                            x       y       z     vdW  Elec       q    Type
REMARK                         _______ _______ _______ _____ _____    ______ ____
ROOT
ATOM      1  O   UNL     1      13.589   8.862  -0.917  0.00  0.00    -0.253 OA
ATOM      2  O   UNL     1      12.989   3.625   2.044  0.00  0.00    -0.266 OA
ATOM      4  N   UNL     1      14.339   6.793  -1.658  0.00  0.00    -0.285 N 
ATOM      5  N   UNL     1      12.815   4.377  -0.162  0.00  0.00    -0.310 N 
ATOM      6  N   UNL     1      15.545   8.037  -0.048  0.00  0.00    -0.296 N 
ATOM     10  C   UNL     1      14.775   4.322  -1.805  0.00  0.00    +0.027 C 
ATOM     11  C   UNL     1      12.607   5.218  -2.527  0.00  0.00    +0.054 C 
ATOM     12  C   UNL     1      13.701   4.213  -2.877  0.00  0.00    +0.018 C 
ATOM     13  C   UNL     1      15.367   5.745  -1.754  0.00  0.00    +0.114 C 
ATOM     14  C   UNL     1      13.194   6.638  -2.564  0.00  0.00    +0.119 C 
ATOM     15  C   UNL     1      14.174   3.905  -0.457  0.00  0.00    +0.130 C 
ATOM     16  C   UNL     1      12.013   4.938  -1.160  0.00  0.00    +0.027 A 
ATOM     17  C   UNL     1      14.431   7.959  -0.876  0.00  0.00    +0.302 C 
ATOM     19  C   UNL     1      10.733   5.254  -0.901  0.00  0.00    +0.024 A 
ATOM     20  C   UNL     1      12.327   4.135   1.138  0.00  0.00    +0.273 A 
ATOM     26  C   UNL     1      10.905   4.523   1.394  0.00  0.00    +0.100 A 
ATOM     27  C   UNL     1      10.172   5.043   0.404  0.00  0.00    +0.030 A 
ATOM     36  H   UNL     1      16.298   7.370  -0.129  0.00  0.00    +0.151 HD
ENDROOT
BRANCH  26   7
ATOM      3  O   UNL     1      10.599   6.498   3.418  0.00  0.00    -0.252 OA
ATOM      7  N   UNL     1      10.401   4.320   2.645  0.00  0.00    -0.265 N 
ATOM      8  N   UNL     1       9.721   4.802   4.783  0.00  0.00    -0.269 N 
ATOM     28  C   UNL     1      10.270   5.329   3.609  0.00  0.00    +0.308 C 
ATOM     37  H   UNL     1      10.349   3.360   2.970  0.00  0.00    +0.157 HD
ATOM     38  H   UNL     1       9.499   3.810   4.776  0.00  0.00    +0.156 HD
BRANCH   8  29
ATOM     29  C   UNL     1       9.430   5.484   5.988  0.00  0.00    +0.036 A 
ATOM     30  C   UNL     1       9.783   4.907   7.197  0.00  0.00    +0.042 A 
ATOM     31  C   UNL     1       8.795   6.714   5.935  0.00  0.00    +0.023 A 
ATOM     32  C   UNL     1       9.494   5.580   8.385  0.00  0.00    +0.054 A 
ATOM     33  C   UNL     1       8.506   7.386   7.122  0.00  0.00    +0.003 A 
ATOM     34  C   UNL     1       8.855   6.819   8.347  0.00  0.00    +0.019 A 
BRANCH  32  35
ATOM      9  N   UNL     1      10.142   4.526  10.661  0.00  0.00    -0.191 NA
ATOM     35  C   UNL     1       9.851   4.999   9.640  0.00  0.00    +0.099 C 
ENDBRANCH  32  35
ENDBRANCH   8  29
ENDBRANCH  26   7
BRANCH   6  18
ATOM     18  C   UNL     1      15.786   9.174   0.813  0.00  0.00    +0.074 C 
ATOM     21  C   UNL     1      17.287   9.461   0.937  0.00  0.00    +0.022 C 
ATOM     22  C   UNL     1      15.145   8.969   2.189  0.00  0.00    +0.022 C 
ATOM     23  C   UNL     1      18.016   8.411   1.776  0.00  0.00    +0.002 C 
ATOM     24  C   UNL     1      15.877   7.921   3.026  0.00  0.00    +0.002 C 
ATOM     25  C   UNL     1      17.365   8.233   3.145  0.00  0.00    +0.000 C 
ENDBRANCH   6  18
TORSDOF 4
ENDMDL
MODEL 6
REMARK VINA RESULT:      -7.0     29.362     32.559
REMARK  Name = 11886429
REMARK  4 active torsions:
REMARK  status: ('A' for Active; 'I' for Inactive)
REMARK    1  A    between atoms: N_6  and  C_18
REMARK    2  A    between atoms: N_7  and  C_26
REMARK    3  A    between atoms: N_8  and  C_29
REMARK    4  A    between atoms: C_32  and  C_35
REMARK                            x       y       z     vdW  Elec       q    Type
REMARK                         _______ _______ _______ _____ _____    ______ ____
ROOT
ATOM      1  O   UNL     1     -14.308  -4.920  14.033  0.00  0.00    -0.253 OA
ATOM      2  O   UNL     1     -10.048  -9.171  13.460  0.00  0.00    -0.266 OA
ATOM      4  N   UNL     1     -14.618  -7.036  13.129  0.00  0.00    -0.285 N 
ATOM      5  N   UNL     1     -12.302  -9.075  14.066  0.00  0.00    -0.310 N 
ATOM      6  N   UNL     1     -13.628  -5.293  11.875  0.00  0.00    -0.296 N 
ATOM     10  C   UNL     1     -14.205  -9.402  12.387  0.00  0.00    +0.027 C 
ATOM     11  C   UNL     1     -14.725  -8.940  14.742  0.00  0.00    +0.054 C 
ATOM     12  C   UNL     1     -14.999  -9.899  13.587  0.00  0.00    +0.018 C 
ATOM     13  C   UNL     1     -14.628  -7.973  11.995  0.00  0.00    +0.114 C 
ATOM     14  C   UNL     1     -15.231  -7.538  14.366  0.00  0.00    +0.119 C 
ATOM     15  C   UNL     1     -12.709  -9.485  12.716  0.00  0.00    +0.130 C 
ATOM     16  C   UNL     1     -13.248  -8.885  15.078  0.00  0.00    +0.027 A 
ATOM     17  C   UNL     1     -14.191  -5.696  13.079  0.00  0.00    +0.302 C 
ATOM     19  C   UNL     1     -12.849  -8.627  16.336  0.00  0.00    +0.024 A 
ATOM     20  C   UNL     1     -10.917  -8.993  14.314  0.00  0.00    +0.273 A 
ATOM     26  C   UNL     1     -10.515  -8.679  15.721  0.00  0.00    +0.100 A 
ATOM     27  C   UNL     1     -11.454  -8.520  16.659  0.00  0.00    +0.030 A 
ATOM     36  H   UNL     1     -13.672  -5.886  11.058  0.00  0.00    +0.151 HD
ENDROOT
BRANCH  26   7
ATOM      3  O   UNL     1      -8.832 -10.765  16.674  0.00  0.00    -0.252 OA
ATOM      7  N   UNL     1      -9.183  -8.574  15.998  0.00  0.00    -0.265 N 
ATOM      8  N   UNL     1      -7.077  -9.207  16.652  0.00  0.00    -0.269 N 
ATOM     28  C   UNL     1      -8.396  -9.634  16.467  0.00  0.00    +0.308 C 
ATOM     37  H   UNL     1      -8.808  -7.637  16.103  0.00  0.00    +0.157 HD
ATOM     38  H   UNL     1      -6.878  -8.234  16.429  0.00  0.00    +0.156 HD
BRANCH   8  29
ATOM     29  C   UNL     1      -5.974  -9.965  17.111  0.00  0.00    +0.036 A 
ATOM     30  C   UNL     1      -4.857 -10.098  16.301  0.00  0.00    +0.042 A 
ATOM     31  C   UNL     1      -6.033 -10.561  18.360  0.00  0.00    +0.023 A 
ATOM     32  C   UNL     1      -3.771 -10.847  16.754  0.00  0.00    +0.054 A 
ATOM     33  C   UNL     1      -4.947 -11.310  18.812  0.00  0.00    +0.003 A 
ATOM     34  C   UNL     1      -3.816 -11.453  18.009  0.00  0.00    +0.019 A 
BRANCH  32  35
ATOM      9  N   UNL     1      -1.670 -11.114  15.262  0.00  0.00    -0.191 NA
ATOM     35  C   UNL     1      -2.613 -10.994  15.931  0.00  0.00    +0.099 C 
ENDBRANCH  32  35
ENDBRANCH   8  29
ENDBRANCH  26   7
BRANCH   6  18
ATOM     18  C   UNL     1     -13.146  -3.946  11.663  0.00  0.00    +0.074 C 
ATOM     21  C   UNL     1     -14.275  -3.025  11.186  0.00  0.00    +0.022 C 
ATOM     22  C   UNL     1     -11.967  -3.930  10.684  0.00  0.00    +0.022 C 
ATOM     23  C   UNL     1     -14.700  -3.319   9.746  0.00  0.00    +0.002 C 
ATOM     24  C   UNL     1     -12.396  -4.221   9.246  0.00  0.00    +0.002 C 
ATOM     25  C   UNL     1     -13.511  -3.286   8.791  0.00  0.00    +0.000 C 
ENDBRANCH   6  18
TORSDOF 4
ENDMDL
MODEL 7
REMARK VINA RESULT:      -6.9     28.566     31.702
REMARK  Name = 11886429
REMARK  4 active torsions:
REMARK  status: ('A' for Active; 'I' for Inactive)
REMARK    1  A    between atoms: N_6  and  C_18
REMARK    2  A    between atoms: N_7  and  C_26
REMARK    3  A    between atoms: N_8  and  C_29
REMARK    4  A    between atoms: C_32  and  C_35
REMARK                            x       y       z     vdW  Elec       q    Type
REMARK                         _______ _______ _______ _____ _____    ______ ____
ROOT
ATOM      1  O   UNL     1      -4.563 -10.300  15.635  0.00  0.00    -0.253 OA
ATOM      2  O   UNL     1      -4.793 -12.401   9.970  0.00  0.00    -0.266 OA
ATOM      4  N   UNL     1      -3.511 -12.218  14.857  0.00  0.00    -0.285 N 
ATOM      5  N   UNL     1      -3.184 -12.172  11.649  0.00  0.00    -0.310 N 
ATOM      6  N   UNL     1      -5.816 -12.204  15.382  0.00  0.00    -0.296 N 
ATOM     10  C   UNL     1      -2.661 -14.027  13.331  0.00  0.00    +0.027 C 
ATOM     11  C   UNL     1      -1.463 -11.889  13.466  0.00  0.00    +0.054 C 
ATOM     12  C   UNL     1      -1.276 -13.401  13.389  0.00  0.00    +0.018 C 
ATOM     13  C   UNL     1      -3.487 -13.664  14.581  0.00  0.00    +0.114 C 
ATOM     14  C   UNL     1      -2.213 -11.537  14.761  0.00  0.00    +0.119 C 
ATOM     15  C   UNL     1      -3.354 -13.577  12.039  0.00  0.00    +0.130 C 
ATOM     16  C   UNL     1      -2.225 -11.362  12.266  0.00  0.00    +0.027 A 
ATOM     17  C   UNL     1      -4.626 -11.491  15.312  0.00  0.00    +0.302 C 
ATOM     19  C   UNL     1      -2.003 -10.116  11.816  0.00  0.00    +0.024 A 
ATOM     20  C   UNL     1      -3.952 -11.719  10.557  0.00  0.00    +0.273 A 
ATOM     26  C   UNL     1      -3.691 -10.317  10.102  0.00  0.00    +0.100 A 
ATOM     27  C   UNL     1      -2.754  -9.585  10.713  0.00  0.00    +0.030 A 
ATOM     36  H   UNL     1      -5.828 -13.206  15.259  0.00  0.00    +0.151 HD
ENDROOT
BRANCH  26   7
ATOM      3  O   UNL     1      -6.344  -9.301  10.248  0.00  0.00    -0.252 OA
ATOM      7  N   UNL     1      -4.426  -9.836   9.058  0.00  0.00    -0.265 N 
ATOM      8  N   UNL     1      -6.209  -8.927   7.935  0.00  0.00    -0.269 N 
ATOM     28  C   UNL     1      -5.733  -9.345   9.182  0.00  0.00    +0.308 C 
ATOM     37  H   UNL     1      -4.106 -10.070   8.123  0.00  0.00    +0.157 HD
ATOM     38  H   UNL     1      -5.572  -9.027   7.148  0.00  0.00    +0.156 HD
BRANCH   8  29
ATOM     29  C   UNL     1      -7.473  -8.373   7.629  0.00  0.00    +0.036 A 
ATOM     30  C   UNL     1      -7.823  -7.142   8.161  0.00  0.00    +0.042 A 
ATOM     31  C   UNL     1      -8.340  -9.073   6.804  0.00  0.00    +0.023 A 
ATOM     32  C   UNL     1      -9.071  -6.597   7.859  0.00  0.00    +0.054 A 
ATOM     33  C   UNL     1      -9.587  -8.529   6.504  0.00  0.00    +0.003 A 
ATOM     34  C   UNL     1      -9.953  -7.290   7.031  0.00  0.00    +0.019 A 
BRANCH  32  35
ATOM      9  N   UNL     1      -9.751  -4.297   8.839  0.00  0.00    -0.191 NA
ATOM     35  C   UNL     1      -9.446  -5.329   8.399  0.00  0.00    +0.099 C 
ENDBRANCH  32  35
ENDBRANCH   8  29
ENDBRANCH  26   7
BRANCH   6  18
ATOM     18  C   UNL     1      -7.051 -11.601  15.835  0.00  0.00    +0.074 C 
ATOM     21  C   UNL     1      -7.087 -11.503  17.364  0.00  0.00    +0.022 C 
ATOM     22  C   UNL     1      -8.266 -12.364  15.299  0.00  0.00    +0.022 C 
ATOM     23  C   UNL     1      -7.269 -12.866  18.033  0.00  0.00    +0.002 C 
ATOM     24  C   UNL     1      -8.447 -13.724  15.971  0.00  0.00    +0.002 C 
ATOM     25  C   UNL     1      -8.492 -13.601  17.491  0.00  0.00    +0.000 C 
ENDBRANCH   6  18
TORSDOF 4
ENDMDL
MODEL 8
REMARK VINA RESULT:      -6.7     16.004     17.936
REMARK  Name = 11886429
REMARK  4 active torsions:
REMARK  status: ('A' for Active; 'I' for Inactive)
REMARK    1  A    between atoms: N_6  and  C_18
REMARK    2  A    between atoms: N_7  and  C_26
REMARK    3  A    between atoms: N_8  and  C_29
REMARK    4  A    between atoms: C_32  and  C_35
REMARK                            x       y       z     vdW  Elec       q    Type
REMARK                         _______ _______ _______ _____ _____    ______ ____
ROOT
ATOM      1  O   UNL     1       8.660   9.567   7.077  0.00  0.00    -0.253 OA
ATOM      2  O   UNL     1      12.580   7.038   3.230  0.00  0.00    -0.266 OA
ATOM      4  N   UNL     1       8.641   7.351   6.384  0.00  0.00    -0.285 N 
ATOM      5  N   UNL     1      11.512   6.448   5.223  0.00  0.00    -0.310 N 
ATOM      6  N   UNL     1       7.781   9.076   5.016  0.00  0.00    -0.296 N 
ATOM     10  C   UNL     1       9.287   5.186   5.282  0.00  0.00    +0.027 C 
ATOM     11  C   UNL     1      10.368   5.848   7.385  0.00  0.00    +0.054 C 
ATOM     12  C   UNL     1       9.772   4.665   6.628  0.00  0.00    +0.018 C 
ATOM     13  C   UNL     1       8.220   6.283   5.463  0.00  0.00    +0.114 C 
ATOM     14  C   UNL     1       9.270   6.896   7.632  0.00  0.00    +0.119 C 
ATOM     15  C   UNL     1      10.495   5.689   4.483  0.00  0.00    +0.130 C 
ATOM     16  C   UNL     1      11.518   6.474   6.620  0.00  0.00    +0.027 A 
ATOM     17  C   UNL     1       8.382   8.724   6.218  0.00  0.00    +0.302 C 
ATOM     19  C   UNL     1      12.523   7.074   7.281  0.00  0.00    +0.024 A 
ATOM     20  C   UNL     1      12.533   7.051   4.461  0.00  0.00    +0.273 A 
ATOM     26  C   UNL     1      13.620   7.731   5.233  0.00  0.00    +0.100 A 
ATOM     27  C   UNL     1      13.592   7.716   6.569  0.00  0.00    +0.030 A 
ATOM     36  H   UNL     1       7.424   8.371   4.388  0.00  0.00    +0.151 HD
ENDROOT
BRANCH  26   7
ATOM      3  O   UNL     1      15.973   6.481   4.236  0.00  0.00    -0.252 OA
ATOM      7  N   UNL     1      14.619   8.341   4.531  0.00  0.00    -0.265 N 
ATOM      8  N   UNL     1      16.590   8.579   3.381  0.00  0.00    -0.269 N 
ATOM     28  C   UNL     1      15.761   7.679   4.061  0.00  0.00    +0.308 C 
ATOM     37  H   UNL     1      14.652   9.355   4.566  0.00  0.00    +0.157 HD
ATOM     38  H   UNL     1      16.265   9.541   3.321  0.00  0.00    +0.156 HD
BRANCH   8  29
ATOM     29  C   UNL     1      17.832   8.314   2.758  0.00  0.00    +0.036 A 
ATOM     30  C   UNL     1      18.945   8.059   3.543  0.00  0.00    +0.042 A 
ATOM     31  C   UNL     1      17.911   8.318   1.375  0.00  0.00    +0.023 A 
ATOM     32  C   UNL     1      20.169   7.800   2.927  0.00  0.00    +0.054 A 
ATOM     33  C   UNL     1      19.135   8.060   0.760  0.00  0.00    +0.003 A 
ATOM     34  C   UNL     1      20.265   7.800   1.536  0.00  0.00    +0.019 A 
BRANCH  32  35
ATOM      9  N   UNL     1      22.268   7.319   4.369  0.00  0.00    -0.191 NA
ATOM     35  C   UNL     1      21.326   7.535   3.722  0.00  0.00    +0.099 C 
ENDBRANCH  32  35
ENDBRANCH   8  29
ENDBRANCH  26   7
BRANCH   6  18
ATOM     18  C   UNL     1       7.445  10.447   4.696  0.00  0.00    +0.074 C 
ATOM     21  C   UNL     1       5.952  10.587   4.375  0.00  0.00    +0.022 C 
ATOM     22  C   UNL     1       8.311  10.972   3.546  0.00  0.00    +0.022 C 
ATOM     23  C   UNL     1       5.583   9.966   3.027  0.00  0.00    +0.002 C 
ATOM     24  C   UNL     1       7.938  10.352   2.201  0.00  0.00    +0.002 C 
ATOM     25  C   UNL     1       6.452  10.513   1.898  0.00  0.00    +0.000 C 
ENDBRANCH   6  18
TORSDOF 4
ENDMDL
MODEL 9
REMARK VINA RESULT:      -6.7     29.608     32.751
REMARK  Name = 11886429
REMARK  4 active torsions:
REMARK  status: ('A' for Active; 'I' for Inactive)
REMARK    1  A    between atoms: N_6  and  C_18
REMARK    2  A    between atoms: N_7  and  C_26
REMARK    3  A    between atoms: N_8  and  C_29
REMARK    4  A    between atoms: C_32  and  C_35
REMARK                            x       y       z     vdW  Elec       q    Type
REMARK                         _______ _______ _______ _____ _____    ______ ____
ROOT
ATOM      1  O   UNL     1      -6.921 -13.291  13.460  0.00  0.00    -0.253 OA
ATOM      2  O   UNL     1      -7.636  -8.573  17.174  0.00  0.00    -0.266 OA
ATOM      4  N   UNL     1      -5.460 -12.665  15.153  0.00  0.00    -0.285 N 
ATOM      5  N   UNL     1      -6.913 -10.789  17.338  0.00  0.00    -0.310 N 
ATOM      6  N   UNL     1      -5.480 -11.551  13.067  0.00  0.00    -0.296 N 
ATOM     10  C   UNL     1      -4.455 -11.465  17.119  0.00  0.00    +0.027 C 
ATOM     11  C   UNL     1      -6.162 -13.189  17.492  0.00  0.00    +0.054 C 
ATOM     12  C   UNL     1      -4.836 -12.638  18.009  0.00  0.00    +0.018 C 
ATOM     13  C   UNL     1      -4.301 -11.908  15.651  0.00  0.00    +0.114 C 
ATOM     14  C   UNL     1      -5.970 -13.704  16.056  0.00  0.00    +0.119 C 
ATOM     15  C   UNL     1      -5.509 -10.362  17.276  0.00  0.00    +0.130 C 
ATOM     16  C   UNL     1      -7.250 -12.133  17.521  0.00  0.00    +0.027 A 
ATOM     17  C   UNL     1      -6.018 -12.552  13.866  0.00  0.00    +0.302 C 
ATOM     19  C   UNL     1      -8.534 -12.490  17.695  0.00  0.00    +0.024 A 
ATOM     20  C   UNL     1      -7.888  -9.772  17.314  0.00  0.00    +0.273 A 
ATOM     26  C   UNL     1      -9.308 -10.212  17.485  0.00  0.00    +0.100 A 
ATOM     27  C   UNL     1      -9.581 -11.507  17.673  0.00  0.00    +0.030 A 
ATOM     36  H   UNL     1      -4.649 -11.053  13.350  0.00  0.00    +0.151 HD
ENDROOT
BRANCH  26   7
ATOM      3  O   UNL     1     -10.743  -9.364  15.180  0.00  0.00    -0.252 OA
ATOM      7  N   UNL     1     -10.282  -9.258  17.451  0.00  0.00    -0.265 N 
ATOM      8  N   UNL     1     -11.898  -7.879  16.584  0.00  0.00    -0.269 N 
ATOM     28  C   UNL     1     -10.962  -8.875  16.287  0.00  0.00    +0.308 C 
ATOM     37  H   UNL     1     -10.343  -8.634  18.250  0.00  0.00    +0.157 HD
ATOM     38  H   UNL     1     -11.958  -7.586  17.556  0.00  0.00    +0.156 HD
BRANCH   8  29
ATOM     29  C   UNL     1     -12.783  -7.226  15.694  0.00  0.00    +0.036 A 
ATOM     30  C   UNL     1     -12.338  -6.124  14.981  0.00  0.00    +0.042 A 
ATOM     31  C   UNL     1     -14.078  -7.699  15.555  0.00  0.00    +0.023 A 
ATOM     32  C   UNL     1     -13.212  -5.480  14.105  0.00  0.00    +0.054 A 
ATOM     33  C   UNL     1     -14.951  -7.054  14.680  0.00  0.00    +0.003 A 
ATOM     34  C   UNL     1     -14.518  -5.945  13.955  0.00  0.00    +0.019 A 
BRANCH  32  35
ATOM      9  N   UNL     1     -12.408  -3.418  12.757  0.00  0.00    -0.191 NA
ATOM     35  C   UNL     1     -12.769  -4.343  13.362  0.00  0.00    +0.099 C 
ENDBRANCH  32  35
ENDBRANCH   8  29
ENDBRANCH  26   7
BRANCH   6  18
ATOM     18  C   UNL     1      -5.942 -11.310  11.717  0.00  0.00    +0.074 C 
ATOM     21  C   UNL     1      -4.764 -11.220  10.741  0.00  0.00    +0.022 C 
ATOM     22  C   UNL     1      -6.817 -10.054  11.649  0.00  0.00    +0.022 C 
ATOM     23  C   UNL     1      -3.959  -9.931  10.913  0.00  0.00    +0.002 C 
ATOM     24  C   UNL     1      -6.009  -8.768  11.820  0.00  0.00    +0.002 C 
ATOM     25  C   UNL     1      -4.850  -8.695  10.831  0.00  0.00    +0.000 C 
ENDBRANCH   6  18
TORSDOF 4
ENDMDL
MODEL 10
REMARK VINA RESULT:      -6.7     17.175     21.023
REMARK  Name = 11886429
REMARK  4 active torsions:
REMARK  status: ('A' for Active; 'I' for Inactive)
REMARK    1  A    between atoms: N_6  and  C_18
REMARK    2  A    between atoms: N_7  and  C_26
REMARK    3  A    between atoms: N_8  and  C_29
REMARK    4  A    between atoms: C_32  and  C_35
REMARK                            x       y       z     vdW  Elec       q    Type
REMARK                         _______ _______ _______ _____ _____    ______ ____
ROOT
ATOM      1  O   UNL     1      13.823   6.685   7.119  0.00  0.00    -0.253 OA
ATOM      2  O   UNL     1      10.454   7.892   2.245  0.00  0.00    -0.266 OA
ATOM      4  N   UNL     1      11.696   7.615   7.138  0.00  0.00    -0.285 N 
ATOM      5  N   UNL     1      10.119   7.022   4.388  0.00  0.00    -0.310 N 
ATOM      6  N   UNL     1      13.606   8.919   6.648  0.00  0.00    -0.296 N 
ATOM     10  C   UNL     1       9.457   8.477   6.386  0.00  0.00    +0.027 C 
ATOM     11  C   UNL     1       9.789   6.064   6.694  0.00  0.00    +0.054 C 
ATOM     12  C   UNL     1       8.808   7.210   6.923  0.00  0.00    +0.018 C 
ATOM     13  C   UNL     1      10.785   8.771   7.111  0.00  0.00    +0.114 C 
ATOM     14  C   UNL     1      11.075   6.332   7.492  0.00  0.00    +0.119 C 
ATOM     15  C   UNL     1       9.654   8.328   4.872  0.00  0.00    +0.130 C 
ATOM     16  C   UNL     1      10.117   5.901   5.223  0.00  0.00    +0.027 A 
ATOM     17  C   UNL     1      13.092   7.670   6.976  0.00  0.00    +0.302 C 
ATOM     19  C   UNL     1      10.433   4.691   4.729  0.00  0.00    +0.024 A 
ATOM     20  C   UNL     1      10.458   6.936   3.022  0.00  0.00    +0.273 A 
ATOM     26  C   UNL     1      10.827   5.576   2.518  0.00  0.00    +0.100 A 
ATOM     27  C   UNL     1      10.797   4.530   3.350  0.00  0.00    +0.030 A 
ATOM     36  H   UNL     1      13.025   9.744   6.679  0.00  0.00    +0.151 HD
ENDROOT
BRANCH  26   7
ATOM      3  O   UNL     1       9.258   4.379   0.469  0.00  0.00    -0.252 OA
ATOM      7  N   UNL     1      11.177   5.454   1.205  0.00  0.00    -0.265 N 
ATOM      8  N   UNL     1      11.008   4.886  -1.012  0.00  0.00    -0.269 N 
ATOM     28  C   UNL     1      10.367   4.854   0.232  0.00  0.00    +0.308 C 
ATOM     37  H   UNL     1      12.159   5.580   0.978  0.00  0.00    +0.157 HD
ATOM     38  H   UNL     1      11.926   5.322  -1.039  0.00  0.00    +0.156 HD
BRANCH   8  29
ATOM     29  C   UNL     1      10.532   4.388  -2.247  0.00  0.00    +0.036 A 
ATOM     30  C   UNL     1       9.470   5.022  -2.871  0.00  0.00    +0.042 A 
ATOM     31  C   UNL     1      11.136   3.274  -2.807  0.00  0.00    +0.023 A 
ATOM     32  C   UNL     1       9.001   4.528  -4.089  0.00  0.00    +0.054 A 
ATOM     33  C   UNL     1      10.666   2.781  -4.024  0.00  0.00    +0.003 A 
ATOM     34  C   UNL     1       9.599   3.408  -4.665  0.00  0.00    +0.019 A 
BRANCH  32  35
ATOM      9  N   UNL     1       7.017   5.694  -5.280  0.00  0.00    -0.191 NA
ATOM     35  C   UNL     1       7.907   5.171  -4.746  0.00  0.00    +0.099 C 
ENDBRANCH  32  35
ENDBRANCH   8  29
ENDBRANCH  26   7
BRANCH   6  18
ATOM     18  C   UNL     1      15.023   9.142   6.452  0.00  0.00    +0.074 C 
ATOM     21  C   UNL     1      15.377  10.622   6.635  0.00  0.00    +0.022 C 
ATOM     22  C   UNL     1      15.478   8.627   5.083  0.00  0.00    +0.022 C 
ATOM     23  C   UNL     1      14.872  11.490   5.481  0.00  0.00    +0.002 C 
ATOM     24  C   UNL     1      14.974   9.498   3.933  0.00  0.00    +0.002 C 
ATOM     25  C   UNL     1      15.348  10.964   4.130  0.00  0.00    +0.000 C 
ENDBRANCH   6  18
TORSDOF 4
ENDMDL
