MODEL 1
REMARK VINA RESULT:      -7.6      0.000      0.000
REMARK  Name = 45784257
REMARK  4 active torsions:
REMARK  status: ('A' for Active; 'I' for Inactive)
REMARK    1  A    between atoms: N_4  and  C_12
REMARK    2  A    between atoms: C_7  and  C_11
REMARK    3  A    between atoms: C_12  and  C_13
REMARK    4  A    between atoms: C_20  and  C_24
REMARK                            x       y       z     vdW  Elec       q    Type
REMARK                         _______ _______ _______ _____ _____    ______ ____
ROOT
ATOM      5  N   UNL     1      15.436   8.386  20.766  0.00  0.00    -0.342 N 
ATOM      6  N   UNL     1      14.587   7.310  19.016  0.00  0.00    -0.232 NA
ATOM     11  C   UNL     1      14.367   8.232  19.927  0.00  0.00    +0.113 A 
ATOM     14  C   UNL     1      16.409   7.505  20.372  0.00  0.00    +0.067 A 
ATOM     15  C   UNL     1      15.856   6.845  19.277  0.00  0.00    +0.089 A 
ATOM     16  C   UNL     1      17.687   7.236  20.862  0.00  0.00    +0.040 A 
ATOM     17  C   UNL     1      16.609   5.856  18.621  0.00  0.00    +0.030 A 
ATOM     20  C   UNL     1      18.422   6.248  20.197  0.00  0.00    +0.057 A 
ATOM     21  C   UNL     1      17.894   5.569  19.097  0.00  0.00    +0.014 A 
ATOM     26  H   UNL     1      15.500   9.032  21.541  0.00  0.00    +0.167 HD
ENDROOT
BRANCH  11   7
ATOM      4  N   UNL     1      11.424   9.608  21.619  0.00  0.00    -0.297 NA
ATOM      7  C   UNL     1      13.115   9.060  20.089  0.00  0.00    +0.070 C 
ATOM      8  C   UNL     1      11.811   8.347  19.693  0.00  0.00    +0.028 C 
ATOM      9  C   UNL     1      12.883   9.517  21.536  0.00  0.00    +0.096 C 
ATOM     10  C   UNL     1      10.932   8.412  20.935  0.00  0.00    +0.085 C 
BRANCH   4  12
ATOM     12  C   UNL     1      10.950   9.695  22.992  0.00  0.00    +0.119 C 
BRANCH  12  13
ATOM     13  C   UNL     1      10.920  11.117  23.486  0.00  0.00    -0.033 A 
ATOM     18  C   UNL     1      10.885  12.173  22.573  0.00  0.00    +0.005 A 
ATOM     19  C   UNL     1      10.927  11.381  24.856  0.00  0.00    +0.005 A 
ATOM     22  C   UNL     1      10.857  13.490  23.030  0.00  0.00    +0.000 A 
ATOM     23  C   UNL     1      10.899  12.699  25.312  0.00  0.00    +0.000 A 
ATOM     25  C   UNL     1      10.864  13.753  24.400  0.00  0.00    +0.000 A 
ENDBRANCH  12  13
ENDBRANCH   4  12
ENDBRANCH  11   7
BRANCH  20  24
ATOM      1  F   UNL     1      20.760   6.757  20.196  0.00  0.00    -0.166 F 
ATOM      2  F   UNL     1      20.189   4.661  20.308  0.00  0.00    -0.166 F 
ATOM      3  F   UNL     1      19.927   5.959  22.034  0.00  0.00    -0.166 F 
ATOM     24  C   UNL     1      19.797   5.915  20.675  0.00  0.00    +0.417 C 
ENDBRANCH  20  24
TORSDOF 4
ENDMDL
MODEL 2
REMARK VINA RESULT:      -7.5     16.287     19.652
REMARK  Name = 45784257
REMARK  4 active torsions:
REMARK  status: ('A' for Active; 'I' for Inactive)
REMARK    1  A    between atoms: N_4  and  C_12
REMARK    2  A    between atoms: C_7  and  C_11
REMARK    3  A    between atoms: C_12  and  C_13
REMARK    4  A    between atoms: C_20  and  C_24
REMARK                            x       y       z     vdW  Elec       q    Type
REMARK                         _______ _______ _______ _____ _____    ______ ____
ROOT
ATOM      5  N   UNL     1      10.220   4.363   5.160  0.00  0.00    -0.342 N 
ATOM      6  N   UNL     1       9.693   6.472   4.695  0.00  0.00    -0.232 NA
ATOM     11  C   UNL     1      10.113   5.329   4.198  0.00  0.00    +0.113 A 
ATOM     14  C   UNL     1       9.845   4.918   6.356  0.00  0.00    +0.067 A 
ATOM     15  C   UNL     1       9.521   6.235   6.039  0.00  0.00    +0.089 A 
ATOM     16  C   UNL     1       9.764   4.399   7.648  0.00  0.00    +0.040 A 
ATOM     17  C   UNL     1       9.088   7.098   7.061  0.00  0.00    +0.030 A 
ATOM     20  C   UNL     1       9.332   5.272   8.652  0.00  0.00    +0.057 A 
ATOM     21  C   UNL     1       8.999   6.598   8.365  0.00  0.00    +0.014 A 
ATOM     26  H   UNL     1      10.522   3.408   5.018  0.00  0.00    +0.167 HD
ENDROOT
BRANCH  11   7
ATOM      4  N   UNL     1      12.110   4.115   1.377  0.00  0.00    -0.297 NA
ATOM      7  C   UNL     1      10.455   5.043   2.755  0.00  0.00    +0.070 C 
ATOM      8  C   UNL     1      11.216   6.169   2.035  0.00  0.00    +0.028 C 
ATOM      9  C   UNL     1      11.344   3.803   2.585  0.00  0.00    +0.096 C 
ATOM     10  C   UNL     1      12.496   5.518   1.527  0.00  0.00    +0.085 C 
BRANCH   4  12
ATOM     12  C   UNL     1      13.260   3.239   1.208  0.00  0.00    +0.119 C 
BRANCH  12  13
ATOM     13  C   UNL     1      14.183   3.730   0.124  0.00  0.00    -0.033 A 
ATOM     18  C   UNL     1      15.512   4.032   0.423  0.00  0.00    +0.005 A 
ATOM     19  C   UNL     1      13.709   3.884  -1.180  0.00  0.00    +0.005 A 
ATOM     22  C   UNL     1      16.367   4.487  -0.580  0.00  0.00    +0.000 A 
ATOM     23  C   UNL     1      14.565   4.339  -2.182  0.00  0.00    +0.000 A 
ATOM     25  C   UNL     1      15.893   4.640  -1.884  0.00  0.00    +0.000 A 
ENDBRANCH  12  13
ENDBRANCH   4  12
ENDBRANCH  11   7
BRANCH  20  24
ATOM      1  F   UNL     1       8.084   5.174  10.691  0.00  0.00    -0.166 F 
ATOM      2  F   UNL     1      10.253   5.203  10.843  0.00  0.00    -0.166 F 
ATOM      3  F   UNL     1       9.229   3.412  10.153  0.00  0.00    -0.166 F 
ATOM     24  C   UNL     1       9.224   4.775  10.056  0.00  0.00    +0.417 C 
ENDBRANCH  20  24
TORSDOF 4
ENDMDL
MODEL 3
REMARK VINA RESULT:      -7.4     14.086     16.763
REMARK  Name = 45784257
REMARK  4 active torsions:
REMARK  status: ('A' for Active; 'I' for Inactive)
REMARK    1  A    between atoms: N_4  and  C_12
REMARK    2  A    between atoms: C_7  and  C_11
REMARK    3  A    between atoms: C_12  and  C_13
REMARK    4  A    between atoms: C_20  and  C_24
REMARK                            x       y       z     vdW  Elec       q    Type
REMARK                         _______ _______ _______ _____ _____    ______ ____
ROOT
ATOM      5  N   UNL     1      13.048   6.482   6.714  0.00  0.00    -0.342 N 
ATOM      6  N   UNL     1      11.877   8.172   5.868  0.00  0.00    -0.232 NA
ATOM     11  C   UNL     1      13.038   7.555   5.866  0.00  0.00    +0.113 A 
ATOM     14  C   UNL     1      11.813   6.401   7.304  0.00  0.00    +0.067 A 
ATOM     15  C   UNL     1      11.100   7.467   6.759  0.00  0.00    +0.089 A 
ATOM     16  C   UNL     1      11.274   5.516   8.237  0.00  0.00    +0.040 A 
ATOM     17  C   UNL     1       9.769   7.674   7.158  0.00  0.00    +0.030 A 
ATOM     20  C   UNL     1       9.948   5.738   8.624  0.00  0.00    +0.057 A 
ATOM     21  C   UNL     1       9.207   6.798   8.094  0.00  0.00    +0.014 A 
ATOM     26  H   UNL     1      13.827   5.858   6.881  0.00  0.00    +0.167 HD
ENDROOT
BRANCH  11   7
ATOM      4  N   UNL     1      16.324   9.024   5.186  0.00  0.00    -0.297 NA
ATOM      7  C   UNL     1      14.257   7.926   5.054  0.00  0.00    +0.070 C 
ATOM      8  C   UNL     1      14.165   9.282   4.334  0.00  0.00    +0.028 C 
ATOM      9  C   UNL     1      15.534   8.020   5.900  0.00  0.00    +0.096 C 
ATOM     10  C   UNL     1      15.368  10.074   4.830  0.00  0.00    +0.085 C 
BRANCH   4  12
ATOM     12  C   UNL     1      17.431   9.530   5.983  0.00  0.00    +0.119 C 
BRANCH  12  13
ATOM     13  C   UNL     1      18.691   8.736   5.761  0.00  0.00    -0.033 A 
ATOM     18  C   UNL     1      19.618   8.595   6.795  0.00  0.00    +0.005 A 
ATOM     19  C   UNL     1      18.932   8.141   4.522  0.00  0.00    +0.005 A 
ATOM     22  C   UNL     1      20.785   7.860   6.589  0.00  0.00    +0.000 A 
ATOM     23  C   UNL     1      20.099   7.406   4.318  0.00  0.00    +0.000 A 
ATOM     25  C   UNL     1      21.026   7.265   5.350  0.00  0.00    +0.000 A 
ENDBRANCH  12  13
ENDBRANCH   4  12
ENDBRANCH  11   7
BRANCH  20  24
ATOM      1  F   UNL     1      10.113   4.546  10.691  0.00  0.00    -0.166 F 
ATOM      2  F   UNL     1       8.983   3.615   9.083  0.00  0.00    -0.166 F 
ATOM      3  F   UNL     1       8.158   5.319  10.154  0.00  0.00    -0.166 F 
ATOM     24  C   UNL     1       9.314   4.824   9.620  0.00  0.00    +0.417 C 
ENDBRANCH  20  24
TORSDOF 4
ENDMDL
MODEL 4
REMARK VINA RESULT:      -7.2     17.139     20.211
REMARK  Name = 45784257
REMARK  4 active torsions:
REMARK  status: ('A' for Active; 'I' for Inactive)
REMARK    1  A    between atoms: N_4  and  C_12
REMARK    2  A    between atoms: C_7  and  C_11
REMARK    3  A    between atoms: C_12  and  C_13
REMARK    4  A    between atoms: C_20  and  C_24
REMARK                            x       y       z     vdW  Elec       q    Type
REMARK                         _______ _______ _______ _____ _____    ______ ____
ROOT
ATOM      5  N   UNL     1       9.913   5.438   4.611  0.00  0.00    -0.342 N 
ATOM      6  N   UNL     1       9.196   7.542   4.585  0.00  0.00    -0.232 NA
ATOM     11  C   UNL     1       9.640   6.544   3.854  0.00  0.00    +0.113 A 
ATOM     14  C   UNL     1       9.627   5.742   5.917  0.00  0.00    +0.067 A 
ATOM     15  C   UNL     1       9.181   7.061   5.874  0.00  0.00    +0.089 A 
ATOM     16  C   UNL     1       9.716   5.001   7.095  0.00  0.00    +0.040 A 
ATOM     17  C   UNL     1       8.796   7.692   7.070  0.00  0.00    +0.030 A 
ATOM     20  C   UNL     1       9.331   5.646   8.276  0.00  0.00    +0.057 A 
ATOM     21  C   UNL     1       8.878   6.968   8.265  0.00  0.00    +0.014 A 
ATOM     26  H   UNL     1      10.265   4.553   4.272  0.00  0.00    +0.167 HD
ENDROOT
BRANCH  11   7
ATOM      4  N   UNL     1      11.249   5.714   0.670  0.00  0.00    -0.297 NA
ATOM      7  C   UNL     1       9.850   6.543   2.358  0.00  0.00    +0.070 C 
ATOM      8  C   UNL     1      10.746   7.677   1.830  0.00  0.00    +0.028 C 
ATOM      9  C   UNL     1      10.510   5.255   1.847  0.00  0.00    +0.096 C 
ATOM     10  C   UNL     1      11.870   6.974   1.081  0.00  0.00    +0.085 C 
BRANCH   4  12
ATOM     12  C   UNL     1      12.227   4.738   0.213  0.00  0.00    +0.119 C 
BRANCH  12  13
ATOM     13  C   UNL     1      11.761   4.014  -1.022  0.00  0.00    -0.033 A 
ATOM     18  C   UNL     1      10.677   4.504  -1.752  0.00  0.00    +0.005 A 
ATOM     19  C   UNL     1      12.412   2.851  -1.438  0.00  0.00    +0.005 A 
ATOM     22  C   UNL     1      10.245   3.833  -2.896  0.00  0.00    +0.000 A 
ATOM     23  C   UNL     1      11.980   2.181  -2.582  0.00  0.00    +0.000 A 
ATOM     25  C   UNL     1      10.897   2.671  -3.310  0.00  0.00    +0.000 A 
ENDBRANCH  12  13
ENDBRANCH   4  12
ENDBRANCH  11   7
BRANCH  20  24
ATOM      1  F   UNL     1       9.528   3.554   9.419  0.00  0.00    -0.166 F 
ATOM      2  F   UNL     1       8.294   5.089  10.341  0.00  0.00    -0.166 F 
ATOM      3  F   UNL     1      10.461   5.277  10.351  0.00  0.00    -0.166 F 
ATOM     24  C   UNL     1       9.404   4.905   9.570  0.00  0.00    +0.417 C 
ENDBRANCH  20  24
TORSDOF 4
ENDMDL
MODEL 5
REMARK VINA RESULT:      -7.1      3.620      5.669
REMARK  Name = 45784257
REMARK  4 active torsions:
REMARK  status: ('A' for Active; 'I' for Inactive)
REMARK    1  A    between atoms: N_4  and  C_12
REMARK    2  A    between atoms: C_7  and  C_11
REMARK    3  A    between atoms: C_12  and  C_13
REMARK    4  A    between atoms: C_20  and  C_24
REMARK                            x       y       z     vdW  Elec       q    Type
REMARK                         _______ _______ _______ _____ _____    ______ ____
ROOT
ATOM      5  N   UNL     1      19.748   5.112  20.156  0.00  0.00    -0.342 N 
ATOM      6  N   UNL     1      19.908   6.522  21.867  0.00  0.00    -0.232 NA
ATOM     11  C   UNL     1      19.243   6.223  20.773  0.00  0.00    +0.113 A 
ATOM     14  C   UNL     1      20.809   4.665  20.899  0.00  0.00    +0.067 A 
ATOM     15  C   UNL     1      20.888   5.561  21.962  0.00  0.00    +0.089 A 
ATOM     16  C   UNL     1      21.679   3.587  20.740  0.00  0.00    +0.040 A 
ATOM     17  C   UNL     1      21.890   5.385  22.933  0.00  0.00    +0.030 A 
ATOM     20  C   UNL     1      22.670   3.427  21.715  0.00  0.00    +0.057 A 
ATOM     21  C   UNL     1      22.774   4.310  22.793  0.00  0.00    +0.014 A 
ATOM     26  H   UNL     1      19.403   4.693  19.302  0.00  0.00    +0.167 HD
ENDROOT
BRANCH  11   7
ATOM      4  N   UNL     1      15.892   7.703  20.723  0.00  0.00    -0.297 NA
ATOM      7  C   UNL     1      18.057   6.967  20.204  0.00  0.00    +0.070 C 
ATOM      8  C   UNL     1      17.027   6.085  19.480  0.00  0.00    +0.028 C 
ATOM      9  C   UNL     1      17.248   7.710  21.276  0.00  0.00    +0.096 C 
ATOM     10  C   UNL     1      15.708   6.352  20.193  0.00  0.00    +0.085 C 
BRANCH   4  12
ATOM     12  C   UNL     1      14.886   8.052  21.714  0.00  0.00    +0.119 C 
BRANCH  12  13
ATOM     13  C   UNL     1      13.522   8.212  21.097  0.00  0.00    -0.033 A 
ATOM     18  C   UNL     1      12.431   7.520  21.626  0.00  0.00    +0.005 A 
ATOM     19  C   UNL     1      13.349   9.050  19.995  0.00  0.00    +0.005 A 
ATOM     22  C   UNL     1      11.168   7.668  21.054  0.00  0.00    +0.000 A 
ATOM     23  C   UNL     1      12.085   9.196  19.423  0.00  0.00    +0.000 A 
ATOM     25  C   UNL     1      10.995   8.506  19.952  0.00  0.00    +0.000 A 
ENDBRANCH  12  13
ENDBRANCH   4  12
ENDBRANCH  11   7
BRANCH  20  24
ATOM      1  F   UNL     1      23.600   1.438  22.665  0.00  0.00    -0.166 F 
ATOM      2  F   UNL     1      24.927   2.710  21.503  0.00  0.00    -0.166 F 
ATOM      3  F   UNL     1      23.417   1.504  20.505  0.00  0.00    -0.166 F 
ATOM     24  C   UNL     1      23.632   2.291  21.600  0.00  0.00    +0.417 C 
ENDBRANCH  20  24
TORSDOF 4
ENDMDL
MODEL 6
REMARK VINA RESULT:      -7.1     16.316     19.705
REMARK  Name = 45784257
REMARK  4 active torsions:
REMARK  status: ('A' for Active; 'I' for Inactive)
REMARK    1  A    between atoms: N_4  and  C_12
REMARK    2  A    between atoms: C_7  and  C_11
REMARK    3  A    between atoms: C_12  and  C_13
REMARK    4  A    between atoms: C_20  and  C_24
REMARK                            x       y       z     vdW  Elec       q    Type
REMARK                         _______ _______ _______ _____ _____    ______ ____
ROOT
ATOM      5  N   UNL     1      10.813   5.102   4.968  0.00  0.00    -0.342 N 
ATOM      6  N   UNL     1      10.111   7.192   4.680  0.00  0.00    -0.232 NA
ATOM     11  C   UNL     1      10.710   6.167   4.116  0.00  0.00    +0.113 A 
ATOM     14  C   UNL     1      10.244   5.464   6.161  0.00  0.00    +0.067 A 
ATOM     15  C   UNL     1       9.812   6.772   5.956  0.00  0.00    +0.089 A 
ATOM     16  C   UNL     1      10.073   4.781   7.366  0.00  0.00    +0.040 A 
ATOM     17  C   UNL     1       9.171   7.454   7.005  0.00  0.00    +0.030 A 
ATOM     20  C   UNL     1       9.433   5.475   8.399  0.00  0.00    +0.057 A 
ATOM     21  C   UNL     1       8.989   6.788   8.222  0.00  0.00    +0.014 A 
ATOM     26  H   UNL     1      11.235   4.207   4.759  0.00  0.00    +0.167 HD
ENDROOT
BRANCH  11   7
ATOM      4  N   UNL     1      12.834   5.017   1.361  0.00  0.00    -0.297 NA
ATOM      7  C   UNL     1      11.245   6.099   2.705  0.00  0.00    +0.070 C 
ATOM      8  C   UNL     1      12.408   7.061   2.407  0.00  0.00    +0.028 C 
ATOM      9  C   UNL     1      11.786   4.710   2.337  0.00  0.00    +0.096 C 
ATOM     10  C   UNL     1      13.542   6.170   1.918  0.00  0.00    +0.085 C 
BRANCH   4  12
ATOM     12  C   UNL     1      13.718   3.886   1.122  0.00  0.00    +0.119 C 
BRANCH  12  13
ATOM     13  C   UNL     1      14.618   4.119  -0.062  0.00  0.00    -0.033 A 
ATOM     18  C   UNL     1      14.067   4.400  -1.314  0.00  0.00    +0.005 A 
ATOM     19  C   UNL     1      16.003   4.053   0.090  0.00  0.00    +0.005 A 
ATOM     22  C   UNL     1      14.901   4.615  -2.410  0.00  0.00    +0.000 A 
ATOM     23  C   UNL     1      16.836   4.268  -1.007  0.00  0.00    +0.000 A 
ATOM     25  C   UNL     1      16.286   4.550  -2.257  0.00  0.00    +0.000 A 
ENDBRANCH  12  13
ENDBRANCH   4  12
ENDBRANCH  11   7
BRANCH  20  24
ATOM      1  F   UNL     1       8.165   5.296  10.419  0.00  0.00    -0.166 F 
ATOM      2  F   UNL     1      10.301   4.908  10.538  0.00  0.00    -0.166 F 
ATOM      3  F   UNL     1       8.977   3.459   9.601  0.00  0.00    -0.166 F 
ATOM     24  C   UNL     1       9.221   4.798   9.712  0.00  0.00    +0.417 C 
ENDBRANCH  20  24
TORSDOF 4
ENDMDL
MODEL 7
REMARK VINA RESULT:      -7.1     27.360     29.561
REMARK  Name = 45784257
REMARK  4 active torsions:
REMARK  status: ('A' for Active; 'I' for Inactive)
REMARK    1  A    between atoms: N_4  and  C_12
REMARK    2  A    between atoms: C_7  and  C_11
REMARK    3  A    between atoms: C_12  and  C_13
REMARK    4  A    between atoms: C_20  and  C_24
REMARK                            x       y       z     vdW  Elec       q    Type
REMARK                         _______ _______ _______ _____ _____    ______ ____
ROOT
ATOM      5  N   UNL     1      -5.607  -9.935  16.393  0.00  0.00    -0.342 N 
ATOM      6  N   UNL     1      -4.363 -11.308  17.622  0.00  0.00    -0.232 NA
ATOM     11  C   UNL     1      -4.380 -10.509  16.578  0.00  0.00    +0.113 A 
ATOM     14  C   UNL     1      -6.438 -10.395  17.381  0.00  0.00    +0.067 A 
ATOM     15  C   UNL     1      -5.638 -11.250  18.136  0.00  0.00    +0.089 A 
ATOM     16  C   UNL     1      -7.779 -10.145  17.673  0.00  0.00    +0.040 A 
ATOM     17  C   UNL     1      -6.194 -11.901  19.251  0.00  0.00    +0.030 A 
ATOM     20  C   UNL     1      -8.316 -10.802  18.785  0.00  0.00    +0.057 A 
ATOM     21  C   UNL     1      -7.538 -11.665  19.561  0.00  0.00    +0.014 A 
ATOM     26  H   UNL     1      -5.861  -9.289  15.658  0.00  0.00    +0.167 HD
ENDROOT
BRANCH  11   7
ATOM      4  N   UNL     1      -2.102 -11.007  13.752  0.00  0.00    -0.297 NA
ATOM      7  C   UNL     1      -3.225 -10.211  15.650  0.00  0.00    +0.070 C 
ATOM      8  C   UNL     1      -1.881 -10.832  16.070  0.00  0.00    +0.028 C 
ATOM      9  C   UNL     1      -3.459 -10.720  14.221  0.00  0.00    +0.096 C 
ATOM     10  C   UNL     1      -1.446 -11.673  14.878  0.00  0.00    +0.085 C 
BRANCH   4  12
ATOM     12  C   UNL     1      -2.092 -11.819  12.545  0.00  0.00    +0.119 C 
BRANCH  12  13
ATOM     13  C   UNL     1      -2.786 -11.130  11.400  0.00  0.00    -0.033 A 
ATOM     18  C   UNL     1      -2.506  -9.793  11.117  0.00  0.00    +0.005 A 
ATOM     19  C   UNL     1      -3.710 -11.829  10.621  0.00  0.00    +0.005 A 
ATOM     22  C   UNL     1      -3.148  -9.155  10.056  0.00  0.00    +0.000 A 
ATOM     23  C   UNL     1      -4.352 -11.190   9.561  0.00  0.00    +0.000 A 
ATOM     25  C   UNL     1      -4.072  -9.854   9.278  0.00  0.00    +0.000 A 
ENDBRANCH  12  13
ENDBRANCH   4  12
ENDBRANCH  11   7
BRANCH  20  24
ATOM      1  F   UNL     1     -10.583 -11.559  18.710  0.00  0.00    -0.166 F 
ATOM      2  F   UNL     1     -10.239  -9.413  18.631  0.00  0.00    -0.166 F 
ATOM      3  F   UNL     1      -9.959 -10.497  20.496  0.00  0.00    -0.166 F 
ATOM     24  C   UNL     1      -9.746 -10.575  19.149  0.00  0.00    +0.417 C 
ENDBRANCH  20  24
TORSDOF 4
ENDMDL
MODEL 8
REMARK VINA RESULT:      -7.0      4.481     10.410
REMARK  Name = 45784257
REMARK  4 active torsions:
REMARK  status: ('A' for Active; 'I' for Inactive)
REMARK    1  A    between atoms: N_4  and  C_12
REMARK    2  A    between atoms: C_7  and  C_11
REMARK    3  A    between atoms: C_12  and  C_13
REMARK    4  A    between atoms: C_20  and  C_24
REMARK                            x       y       z     vdW  Elec       q    Type
REMARK                         _______ _______ _______ _____ _____    ______ ____
ROOT
ATOM      5  N   UNL     1      17.523   6.999  21.551  0.00  0.00    -0.342 N 
ATOM      6  N   UNL     1      17.633   6.425  19.406  0.00  0.00    -0.232 NA
ATOM     11  C   UNL     1      18.321   6.610  20.510  0.00  0.00    +0.113 A 
ATOM     14  C   UNL     1      16.235   7.072  21.087  0.00  0.00    +0.067 A 
ATOM     15  C   UNL     1      16.330   6.708  19.746  0.00  0.00    +0.089 A 
ATOM     16  C   UNL     1      15.032   7.413  21.705  0.00  0.00    +0.040 A 
ATOM     17  C   UNL     1      15.164   6.677  18.961  0.00  0.00    +0.030 A 
ATOM     20  C   UNL     1      13.882   7.378  20.909  0.00  0.00    +0.057 A 
ATOM     21  C   UNL     1      13.945   7.016  19.561  0.00  0.00    +0.014 A 
ATOM     26  H   UNL     1      17.826   7.201  22.494  0.00  0.00    +0.167 HD
ENDROOT
BRANCH  11   7
ATOM      4  N   UNL     1      21.440   4.890  21.364  0.00  0.00    -0.297 NA
ATOM      7  C   UNL     1      19.811   6.433  20.686  0.00  0.00    +0.070 C 
ATOM      8  C   UNL     1      20.350   6.830  22.072  0.00  0.00    +0.028 C 
ATOM      9  C   UNL     1      20.268   4.981  20.492  0.00  0.00    +0.096 C 
ATOM     10  C   UNL     1      21.051   5.582  22.593  0.00  0.00    +0.085 C 
BRANCH   4  12
ATOM     12  C   UNL     1      21.845   3.513  21.609  0.00  0.00    +0.119 C 
BRANCH  12  13
ATOM     13  C   UNL     1      23.268   3.264  21.184  0.00  0.00    -0.033 A 
ATOM     18  C   UNL     1      23.971   4.247  20.488  0.00  0.00    +0.005 A 
ATOM     19  C   UNL     1      23.883   2.048  21.485  0.00  0.00    +0.005 A 
ATOM     22  C   UNL     1      25.289   4.015  20.094  0.00  0.00    +0.000 A 
ATOM     23  C   UNL     1      25.200   1.817  21.091  0.00  0.00    +0.000 A 
ATOM     25  C   UNL     1      25.904   2.800  20.396  0.00  0.00    +0.000 A 
ENDBRANCH  12  13
ENDBRANCH   4  12
ENDBRANCH  11   7
BRANCH  20  24
ATOM      1  F   UNL     1      11.924   6.672  22.088  0.00  0.00    -0.166 F 
ATOM      2  F   UNL     1      11.688   8.238  20.598  0.00  0.00    -0.166 F 
ATOM      3  F   UNL     1      12.652   8.674  22.499  0.00  0.00    -0.166 F 
ATOM     24  C   UNL     1      12.564   7.732  21.513  0.00  0.00    +0.417 C 
ENDBRANCH  20  24
TORSDOF 4
ENDMDL
MODEL 9
REMARK VINA RESULT:      -6.9     14.819     18.083
REMARK  Name = 45784257
REMARK  4 active torsions:
REMARK  status: ('A' for Active; 'I' for Inactive)
REMARK    1  A    between atoms: N_4  and  C_12
REMARK    2  A    between atoms: C_7  and  C_11
REMARK    3  A    between atoms: C_12  and  C_13
REMARK    4  A    between atoms: C_20  and  C_24
REMARK                            x       y       z     vdW  Elec       q    Type
REMARK                         _______ _______ _______ _____ _____    ______ ____
ROOT
ATOM      5  N   UNL     1      12.567   6.620   6.480  0.00  0.00    -0.342 N 
ATOM      6  N   UNL     1      11.334   8.416   6.035  0.00  0.00    -0.232 NA
ATOM     11  C   UNL     1      12.464   7.792   5.782  0.00  0.00    +0.113 A 
ATOM     14  C   UNL     1      11.430   6.479   7.233  0.00  0.00    +0.067 A 
ATOM     15  C   UNL     1      10.677   7.612   6.938  0.00  0.00    +0.089 A 
ATOM     16  C   UNL     1      11.008   5.488   8.120  0.00  0.00    +0.040 A 
ATOM     17  C   UNL     1       9.425   7.782   7.554  0.00  0.00    +0.030 A 
ATOM     20  C   UNL     1       9.760   5.674   8.725  0.00  0.00    +0.057 A 
ATOM     21  C   UNL     1       8.982   6.800   8.448  0.00  0.00    +0.014 A 
ATOM     26  H   UNL     1      13.342   5.972   6.450  0.00  0.00    +0.167 HD
ENDROOT
BRANCH  11   7
ATOM      4  N   UNL     1      14.555   7.797   2.775  0.00  0.00    -0.297 NA
ATOM      7  C   UNL     1      13.560   8.250   4.849  0.00  0.00    +0.070 C 
ATOM      8  C   UNL     1      14.923   7.571   5.070  0.00  0.00    +0.028 C 
ATOM      9  C   UNL     1      13.233   7.994   3.371  0.00  0.00    +0.096 C 
ATOM     10  C   UNL     1      15.276   6.949   3.726  0.00  0.00    +0.085 C 
BRANCH   4  12
ATOM     12  C   UNL     1      14.484   7.205   1.448  0.00  0.00    +0.119 C 
BRANCH  12  13
ATOM     13  C   UNL     1      13.997   5.781   1.495  0.00  0.00    -0.033 A 
ATOM     18  C   UNL     1      14.906   4.729   1.378  0.00  0.00    +0.005 A 
ATOM     19  C   UNL     1      12.637   5.513   1.653  0.00  0.00    +0.005 A 
ATOM     22  C   UNL     1      14.455   3.410   1.421  0.00  0.00    +0.000 A 
ATOM     23  C   UNL     1      12.187   4.194   1.696  0.00  0.00    +0.000 A 
ATOM     25  C   UNL     1      13.095   3.143   1.580  0.00  0.00    +0.000 A 
ENDBRANCH  12  13
ENDBRANCH   4  12
ENDBRANCH  11   7
BRANCH  20  24
ATOM      1  F   UNL     1       8.971   3.447   9.099  0.00  0.00    -0.166 F 
ATOM      2  F   UNL     1       8.102   5.035  10.304  0.00  0.00    -0.166 F 
ATOM      3  F   UNL     1      10.133   4.359  10.688  0.00  0.00    -0.166 F 
ATOM     24  C   UNL     1       9.253   4.648   9.684  0.00  0.00    +0.417 C 
ENDBRANCH  20  24
TORSDOF 4
ENDMDL
MODEL 10
REMARK VINA RESULT:      -6.8     27.511     30.224
REMARK  Name = 45784257
REMARK  4 active torsions:
REMARK  status: ('A' for Active; 'I' for Inactive)
REMARK    1  A    between atoms: N_4  and  C_12
REMARK    2  A    between atoms: C_7  and  C_11
REMARK    3  A    between atoms: C_12  and  C_13
REMARK    4  A    between atoms: C_20  and  C_24
REMARK                            x       y       z     vdW  Elec       q    Type
REMARK                         _______ _______ _______ _____ _____    ______ ____
ROOT
ATOM      5  N   UNL     1      -8.004  -8.704  16.917  0.00  0.00    -0.342 N 
ATOM      6  N   UNL     1      -8.981 -10.204  18.235  0.00  0.00    -0.232 NA
ATOM     11  C   UNL     1      -7.835  -9.759  17.771  0.00  0.00    +0.113 A 
ATOM     14  C   UNL     1      -9.348  -8.453  16.822  0.00  0.00    +0.067 A 
ATOM     15  C   UNL     1      -9.937  -9.402  17.655  0.00  0.00    +0.089 A 
ATOM     16  C   UNL     1     -10.078  -7.507  16.103  0.00  0.00    +0.040 A 
ATOM     17  C   UNL     1     -11.336  -9.421  17.789  0.00  0.00    +0.030 A 
ATOM     20  C   UNL     1     -11.470  -7.541  16.248  0.00  0.00    +0.057 A 
ATOM     21  C   UNL     1     -12.089  -8.481  17.076  0.00  0.00    +0.014 A 
ATOM     26  H   UNL     1      -7.271  -8.199  16.437  0.00  0.00    +0.167 HD
ENDROOT
BRANCH  11   7
ATOM      4  N   UNL     1      -4.754 -11.679  17.277  0.00  0.00    -0.297 NA
ATOM      7  C   UNL     1      -6.460 -10.294  18.096  0.00  0.00    +0.070 C 
ATOM      8  C   UNL     1      -6.449 -11.616  18.882  0.00  0.00    +0.028 C 
ATOM      9  C   UNL     1      -5.618 -10.579  16.845  0.00  0.00    +0.096 C 
ATOM     10  C   UNL     1      -5.634 -12.577  18.027  0.00  0.00    +0.085 C 
BRANCH   4  12
ATOM     12  C   UNL     1      -4.103 -12.346  16.160  0.00  0.00    +0.119 C 
BRANCH  12  13
ATOM     13  C   UNL     1      -3.088 -11.459  15.491  0.00  0.00    -0.033 A 
ATOM     18  C   UNL     1      -2.092 -10.843  16.250  0.00  0.00    +0.005 A 
ATOM     19  C   UNL     1      -3.144 -11.250  14.112  0.00  0.00    +0.005 A 
ATOM     22  C   UNL     1      -1.151 -10.020  15.630  0.00  0.00    +0.000 A 
ATOM     23  C   UNL     1      -2.203 -10.427  13.494  0.00  0.00    +0.000 A 
ATOM     25  C   UNL     1      -1.207  -9.812  14.251  0.00  0.00    +0.000 A 
ENDBRANCH  12  13
ENDBRANCH   4  12
ENDBRANCH  11   7
BRANCH  20  24
ATOM      1  F   UNL     1     -12.779  -7.025  14.314  0.00  0.00    -0.166 F 
ATOM      2  F   UNL     1     -11.624  -5.411  15.203  0.00  0.00    -0.166 F 
ATOM      3  F   UNL     1     -13.414  -6.150  16.194  0.00  0.00    -0.166 F 
ATOM     24  C   UNL     1     -12.307  -6.553  15.504  0.00  0.00    +0.417 C 
ENDBRANCH  20  24
TORSDOF 4
ENDMDL
