MODEL 1
REMARK VINA RESULT:      -7.5      0.000      0.000
REMARK  Name = 7051361
REMARK  5 active torsions:
REMARK  status: ('A' for Active; 'I' for Inactive)
REMARK    1  A    between atoms: S_1  and  N_11
REMARK    2  A    between atoms: S_1  and  C_25
REMARK    3  A    between atoms: N_11  and  C_22
REMARK    4  A    between atoms: C_21  and  C_24
REMARK    5  A    between atoms: C_28  and  C_31
REMARK                            x       y       z     vdW  Elec       q    Type
REMARK                         _______ _______ _______ _____ _____    ______ ____
ROOT
ATOM      5  O   UNL     1      14.301   7.460   3.172  0.00  0.00    -0.266 OA
ATOM      6  O   UNL     1      11.860   6.774  -2.080  0.00  0.00    -0.276 OA
ATOM      9  N   UNL     1      11.887   5.049  -0.524  0.00  0.00    -0.301 N 
ATOM     10  N   UNL     1      13.126   5.597   2.371  0.00  0.00    -0.310 N 
ATOM     12  C   UNL     1      13.984   4.119   0.466  0.00  0.00    +0.027 C 
ATOM     13  C   UNL     1      11.814   3.624   1.514  0.00  0.00    +0.054 C 
ATOM     14  C   UNL     1      13.167   3.022   1.138  0.00  0.00    +0.018 C 
ATOM     15  C   UNL     1      13.264   4.633  -0.793  0.00  0.00    +0.113 C 
ATOM     16  C   UNL     1      14.239   5.239   1.482  0.00  0.00    +0.130 C 
ATOM     17  C   UNL     1      11.080   4.085   0.240  0.00  0.00    +0.117 C 
ATOM     18  C   UNL     1      11.982   4.795   2.465  0.00  0.00    +0.027 A 
ATOM     19  C   UNL     1      11.025   5.074   3.369  0.00  0.00    +0.024 A 
ATOM     20  C   UNL     1      13.314   6.726   3.196  0.00  0.00    +0.274 A 
ATOM     21  C   UNL     1      11.412   6.247  -1.059  0.00  0.00    +0.212 C 
ATOM     22  C   UNL     1      12.214   6.997   4.156  0.00  0.00    +0.112 A 
ATOM     23  C   UNL     1      11.141   6.210   4.243  0.00  0.00    +0.031 A 
ATOM     24  C   UNL     1      10.285   6.919  -0.315  0.00  0.00    +0.109 C 
ENDROOT
BRANCH  22  11
ATOM     11  N   UNL     1      12.286   8.101   5.023  0.00  0.00    -0.211 N 
ATOM     32  H   UNL     1      12.773   8.906   4.605  0.00  0.00    +0.174 HD
BRANCH  11   1
ATOM      1  S   UNL     1      12.698   7.789   6.636  0.00  0.00    +0.073 S 
ATOM      7  O   UNL     1      13.493   6.577   6.711  0.00  0.00    -0.150 OA
ATOM      8  O   UNL     1      13.166   9.009   7.265  0.00  0.00    -0.150 OA
BRANCH   1  25
ATOM     25  C   UNL     1      11.108   7.419   7.315  0.00  0.00    +0.109 A 
ATOM     26  C   UNL     1      10.944   6.262   8.055  0.00  0.00    +0.041 A 
ATOM     27  C   UNL     1      10.059   8.294   7.093  0.00  0.00    +0.029 A 
ATOM     28  C   UNL     1       9.688   5.969   8.589  0.00  0.00    +0.057 A 
ATOM     29  C   UNL     1       8.804   8.001   7.628  0.00  0.00    +0.002 A 
ATOM     30  C   UNL     1       8.619   6.839   8.376  0.00  0.00    +0.012 A 
BRANCH  28  31
ATOM      2  F   UNL     1      10.461   4.519  10.329  0.00  0.00    -0.166 F 
ATOM      3  F   UNL     1       8.314   4.698  10.079  0.00  0.00    -0.166 F 
ATOM      4  F   UNL     1       9.488   3.599   8.615  0.00  0.00    -0.166 F 
ATOM     31  C   UNL     1       9.492   4.724   9.388  0.00  0.00    +0.417 C 
ENDBRANCH  28  31
ENDBRANCH   1  25
ENDBRANCH  11   1
ENDBRANCH  22  11
TORSDOF 4
ENDMDL
MODEL 2
REMARK VINA RESULT:      -7.5     24.603     27.116
REMARK  Name = 7051361
REMARK  5 active torsions:
REMARK  status: ('A' for Active; 'I' for Inactive)
REMARK    1  A    between atoms: S_1  and  N_11
REMARK    2  A    between atoms: S_1  and  C_25
REMARK    3  A    between atoms: N_11  and  C_22
REMARK    4  A    between atoms: C_21  and  C_24
REMARK    5  A    between atoms: C_28  and  C_31
REMARK                            x       y       z     vdW  Elec       q    Type
REMARK                         _______ _______ _______ _____ _____    ______ ____
ROOT
ATOM      5  O   UNL     1      -6.619  -9.812  13.828  0.00  0.00    -0.266 OA
ATOM      6  O   UNL     1      -4.722 -15.262  12.982  0.00  0.00    -0.276 OA
ATOM      9  N   UNL     1      -3.240 -13.502  13.306  0.00  0.00    -0.301 N 
ATOM     10  N   UNL     1      -4.409 -10.587  13.904  0.00  0.00    -0.310 N 
ATOM     12  C   UNL     1      -3.169 -11.475  11.848  0.00  0.00    +0.027 C 
ATOM     13  C   UNL     1      -2.043 -11.446  14.035  0.00  0.00    +0.054 C 
ATOM     14  C   UNL     1      -1.915 -11.008  12.577  0.00  0.00    +0.018 C 
ATOM     15  C   UNL     1      -3.303 -13.005  11.931  0.00  0.00    +0.113 C 
ATOM     16  C   UNL     1      -4.386 -10.756  12.446  0.00  0.00    +0.130 C 
ATOM     17  C   UNL     1      -2.122 -12.983  14.108  0.00  0.00    +0.117 C 
ATOM     18  C   UNL     1      -3.272 -10.835  14.684  0.00  0.00    +0.027 A 
ATOM     19  C   UNL     1      -3.276 -10.564  16.002  0.00  0.00    +0.024 A 
ATOM     20  C   UNL     1      -5.595 -10.065  14.461  0.00  0.00    +0.274 A 
ATOM     21  C   UNL     1      -4.156 -14.464  13.734  0.00  0.00    +0.212 C 
ATOM     22  C   UNL     1      -5.547  -9.808  15.923  0.00  0.00    +0.112 A 
ATOM     23  C   UNL     1      -4.449 -10.035  16.645  0.00  0.00    +0.031 A 
ATOM     24  C   UNL     1      -4.456 -14.502  15.211  0.00  0.00    +0.109 C 
ENDROOT
BRANCH  22  11
ATOM     11  N   UNL     1      -6.673  -9.298  16.590  0.00  0.00    -0.211 N 
ATOM     32  H   UNL     1      -6.508  -8.368  17.000  0.00  0.00    +0.174 HD
BRANCH  11   1
ATOM      1  S   UNL     1      -7.526 -10.366  17.590  0.00  0.00    +0.073 S 
ATOM      7  O   UNL     1      -7.597 -11.672  16.962  0.00  0.00    -0.150 OA
ATOM      8  O   UNL     1      -7.056 -10.236  18.956  0.00  0.00    -0.150 OA
BRANCH   1  25
ATOM     25  C   UNL     1      -9.146  -9.659  17.520  0.00  0.00    +0.109 A 
ATOM     26  C   UNL     1      -9.336  -8.478  16.825  0.00  0.00    +0.041 A 
ATOM     27  C   UNL     1     -10.191 -10.299  18.162  0.00  0.00    +0.029 A 
ATOM     28  C   UNL     1     -10.613  -7.920  16.771  0.00  0.00    +0.057 A 
ATOM     29  C   UNL     1     -11.468  -9.741  18.108  0.00  0.00    +0.002 A 
ATOM     30  C   UNL     1     -11.679  -8.551  17.412  0.00  0.00    +0.012 A 
BRANCH  28  31
ATOM      2  F   UNL     1      -9.701  -6.129  15.471  0.00  0.00    -0.166 F 
ATOM      3  F   UNL     1     -11.718  -6.764  14.991  0.00  0.00    -0.166 F 
ATOM      4  F   UNL     1     -11.338  -5.655  16.822  0.00  0.00    -0.166 F 
ATOM     31  C   UNL     1     -10.837  -6.645  16.027  0.00  0.00    +0.417 C 
ENDBRANCH  28  31
ENDBRANCH   1  25
ENDBRANCH  11   1
ENDBRANCH  22  11
TORSDOF 4
ENDMDL
MODEL 3
REMARK VINA RESULT:      -7.4     23.894     27.104
REMARK  Name = 7051361
REMARK  5 active torsions:
REMARK  status: ('A' for Active; 'I' for Inactive)
REMARK    1  A    between atoms: S_1  and  N_11
REMARK    2  A    between atoms: S_1  and  C_25
REMARK    3  A    between atoms: N_11  and  C_22
REMARK    4  A    between atoms: C_21  and  C_24
REMARK    5  A    between atoms: C_28  and  C_31
REMARK                            x       y       z     vdW  Elec       q    Type
REMARK                         _______ _______ _______ _____ _____    ______ ____
ROOT
ATOM      5  O   UNL     1      -4.615 -14.049  16.229  0.00  0.00    -0.266 OA
ATOM      6  O   UNL     1      -9.925 -11.640  16.093  0.00  0.00    -0.276 OA
ATOM      9  N   UNL     1      -8.250 -10.800  17.468  0.00  0.00    -0.301 N 
ATOM     10  N   UNL     1      -5.341 -12.120  17.343  0.00  0.00    -0.310 N 
ATOM     12  C   UNL     1      -7.089 -12.160  19.212  0.00  0.00    +0.027 C 
ATOM     13  C   UNL     1      -6.122 -10.016  18.490  0.00  0.00    +0.054 C 
ATOM     14  C   UNL     1      -6.384 -10.903  19.707  0.00  0.00    +0.018 C 
ATOM     15  C   UNL     1      -8.417 -11.799  18.525  0.00  0.00    +0.113 C 
ATOM     16  C   UNL     1      -6.143 -12.922  18.275  0.00  0.00    +0.130 C 
ATOM     17  C   UNL     1      -7.462  -9.617  17.843  0.00  0.00    +0.117 C 
ATOM     18  C   UNL     1      -5.250 -10.728  17.472  0.00  0.00    +0.027 A 
ATOM     19  C   UNL     1      -4.419 -10.022  16.684  0.00  0.00    +0.024 A 
ATOM     20  C   UNL     1      -4.590 -12.829  16.382  0.00  0.00    +0.274 A 
ATOM     21  C   UNL     1      -8.893 -10.981  16.242  0.00  0.00    +0.212 C 
ATOM     22  C   UNL     1      -3.710 -11.994  15.525  0.00  0.00    +0.112 A 
ATOM     23  C   UNL     1      -3.624 -10.672  15.676  0.00  0.00    +0.031 A 
ATOM     24  C   UNL     1      -8.259 -10.321  15.043  0.00  0.00    +0.109 C 
ENDROOT
BRANCH  22  11
ATOM     11  N   UNL     1      -2.922 -12.590  14.526  0.00  0.00    -0.211 N 
ATOM     32  H   UNL     1      -1.978 -12.184  14.467  0.00  0.00    +0.174 HD
BRANCH  11   1
ATOM      1  S   UNL     1      -3.661 -12.874  13.029  0.00  0.00    +0.073 S 
ATOM      7  O   UNL     1      -3.053 -14.028  12.394  0.00  0.00    -0.150 OA
ATOM      8  O   UNL     1      -5.103 -12.794  13.174  0.00  0.00    -0.150 OA
BRANCH   1  25
ATOM     25  C   UNL     1      -3.141 -11.442  12.130  0.00  0.00    +0.109 A 
ATOM     26  C   UNL     1      -4.055 -10.783  11.326  0.00  0.00    +0.041 A 
ATOM     27  C   UNL     1      -1.832 -11.011  12.245  0.00  0.00    +0.029 A 
ATOM     28  C   UNL     1      -3.644  -9.655  10.615  0.00  0.00    +0.057 A 
ATOM     29  C   UNL     1      -1.422  -9.883  11.534  0.00  0.00    +0.002 A 
ATOM     30  C   UNL     1      -2.328  -9.205  10.720  0.00  0.00    +0.012 A 
BRANCH  28  31
ATOM      2  F   UNL     1      -5.822  -9.560   9.629  0.00  0.00    -0.166 F 
ATOM      3  F   UNL     1      -4.908  -7.672  10.177  0.00  0.00    -0.166 F 
ATOM      4  F   UNL     1      -4.159  -8.782   8.464  0.00  0.00    -0.166 F 
ATOM     31  C   UNL     1      -4.614  -8.932   9.742  0.00  0.00    +0.417 C 
ENDBRANCH  28  31
ENDBRANCH   1  25
ENDBRANCH  11   1
ENDBRANCH  22  11
TORSDOF 4
ENDMDL
MODEL 4
REMARK VINA RESULT:      -7.3     13.641     16.404
REMARK  Name = 7051361
REMARK  5 active torsions:
REMARK  status: ('A' for Active; 'I' for Inactive)
REMARK    1  A    between atoms: S_1  and  N_11
REMARK    2  A    between atoms: S_1  and  C_25
REMARK    3  A    between atoms: N_11  and  C_22
REMARK    4  A    between atoms: C_21  and  C_24
REMARK    5  A    between atoms: C_28  and  C_31
REMARK                            x       y       z     vdW  Elec       q    Type
REMARK                         _______ _______ _______ _____ _____    ______ ____
ROOT
ATOM      5  O   UNL     1      12.060   9.172  16.784  0.00  0.00    -0.266 OA
ATOM      6  O   UNL     1      10.327   9.282  22.352  0.00  0.00    -0.276 OA
ATOM      9  N   UNL     1      12.455   8.561  21.762  0.00  0.00    -0.301 N 
ATOM     10  N   UNL     1      13.333   8.686  18.690  0.00  0.00    -0.310 N 
ATOM     12  C   UNL     1      12.881   6.664  20.193  0.00  0.00    +0.027 C 
ATOM     13  C   UNL     1      14.704   8.218  20.753  0.00  0.00    +0.054 C 
ATOM     14  C   UNL     1      14.368   6.747  20.514  0.00  0.00    +0.018 C 
ATOM     15  C   UNL     1      12.046   7.214  21.361  0.00  0.00    +0.113 C 
ATOM     16  C   UNL     1      12.614   7.421  18.886  0.00  0.00    +0.130 C 
ATOM     17  C   UNL     1      13.901   8.742  21.959  0.00  0.00    +0.117 C 
ATOM     18  C   UNL     1      14.395   9.056  19.525  0.00  0.00    +0.027 A 
ATOM     19  C   UNL     1      15.119  10.159  19.261  0.00  0.00    +0.024 A 
ATOM     20  C   UNL     1      12.971   9.452  17.562  0.00  0.00    +0.274 A 
ATOM     21  C   UNL     1      11.484   9.533  22.005  0.00  0.00    +0.212 C 
ATOM     22  C   UNL     1      13.789  10.670  17.336  0.00  0.00    +0.112 A 
ATOM     23  C   UNL     1      14.808  10.996  18.133  0.00  0.00    +0.031 A 
ATOM     24  C   UNL     1      11.903  10.969  21.817  0.00  0.00    +0.109 C 
ENDROOT
BRANCH  22  11
ATOM     11  N   UNL     1      13.514  11.517  16.249  0.00  0.00    -0.211 N 
ATOM     32  H   UNL     1      12.509  11.711  16.138  0.00  0.00    +0.174 HD
BRANCH  11   1
ATOM      1  S   UNL     1      14.335  11.203  14.801  0.00  0.00    +0.073 S 
ATOM      7  O   UNL     1      14.804   9.830  14.793  0.00  0.00    -0.150 OA
ATOM      8  O   UNL     1      13.568  11.719  13.683  0.00  0.00    -0.150 OA
BRANCH   1  25
ATOM     25  C   UNL     1      15.752  12.243  14.995  0.00  0.00    +0.109 A 
ATOM     26  C   UNL     1      17.014  11.691  14.873  0.00  0.00    +0.041 A 
ATOM     27  C   UNL     1      15.571  13.587  15.266  0.00  0.00    +0.029 A 
ATOM     28  C   UNL     1      18.132  12.511  15.028  0.00  0.00    +0.057 A 
ATOM     29  C   UNL     1      16.689  14.408  15.421  0.00  0.00    +0.002 A 
ATOM     30  C   UNL     1      17.969  13.869  15.301  0.00  0.00    +0.012 A 
BRANCH  28  31
ATOM      2  F   UNL     1      20.183  11.877  16.085  0.00  0.00    -0.166 F 
ATOM      3  F   UNL     1      19.515  10.656  14.422  0.00  0.00    -0.166 F 
ATOM      4  F   UNL     1      20.299  12.651  14.056  0.00  0.00    -0.166 F 
ATOM     31  C   UNL     1      19.502  11.934  14.902  0.00  0.00    +0.417 C 
ENDBRANCH  28  31
ENDBRANCH   1  25
ENDBRANCH  11   1
ENDBRANCH  22  11
TORSDOF 4
ENDMDL
MODEL 5
REMARK VINA RESULT:      -7.0      4.595      8.576
REMARK  Name = 7051361
REMARK  5 active torsions:
REMARK  status: ('A' for Active; 'I' for Inactive)
REMARK    1  A    between atoms: S_1  and  N_11
REMARK    2  A    between atoms: S_1  and  C_25
REMARK    3  A    between atoms: N_11  and  C_22
REMARK    4  A    between atoms: C_21  and  C_24
REMARK    5  A    between atoms: C_28  and  C_31
REMARK                            x       y       z     vdW  Elec       q    Type
REMARK                         _______ _______ _______ _____ _____    ______ ____
ROOT
ATOM      5  O   UNL     1      10.281   7.452   2.153  0.00  0.00    -0.266 OA
ATOM      6  O   UNL     1      13.093   9.261   6.933  0.00  0.00    -0.276 OA
ATOM      9  N   UNL     1      11.146   8.001   7.078  0.00  0.00    -0.301 N 
ATOM     10  N   UNL     1       9.780   6.949   4.386  0.00  0.00    -0.310 N 
ATOM     12  C   UNL     1       8.973   8.703   6.065  0.00  0.00    +0.027 C 
ATOM     13  C   UNL     1       9.287   6.373   6.789  0.00  0.00    +0.054 C 
ATOM     14  C   UNL     1       8.287   7.527   6.750  0.00  0.00    +0.018 C 
ATOM     15  C   UNL     1      10.232   9.120   6.843  0.00  0.00    +0.113 C 
ATOM     16  C   UNL     1       9.292   8.314   4.616  0.00  0.00    +0.130 C 
ATOM     17  C   UNL     1      10.520   6.785   7.617  0.00  0.00    +0.117 C 
ATOM     18  C   UNL     1       9.716   5.973   5.389  0.00  0.00    +0.027 A 
ATOM     19  C   UNL     1      10.058   4.699   5.126  0.00  0.00    +0.024 A 
ATOM     20  C   UNL     1      10.217   6.644   3.080  0.00  0.00    +0.274 A 
ATOM     21  C   UNL     1      12.515   8.173   6.866  0.00  0.00    +0.212 C 
ATOM     22  C   UNL     1      10.604   5.229   2.855  0.00  0.00    +0.112 A 
ATOM     23  C   UNL     1      10.518   4.311   3.820  0.00  0.00    +0.031 A 
ATOM     24  C   UNL     1      13.307   6.934   6.531  0.00  0.00    +0.109 C 
ENDROOT
BRANCH  22  11
ATOM     11  N   UNL     1      11.065   4.811   1.595  0.00  0.00    -0.211 N 
ATOM     32  H   UNL     1      10.377   4.236   1.089  0.00  0.00    +0.174 HD
BRANCH  11   1
ATOM      1  S   UNL     1      12.658   4.244   1.507  0.00  0.00    +0.073 S 
ATOM      7  O   UNL     1      13.574   5.296   1.906  0.00  0.00    -0.150 OA
ATOM      8  O   UNL     1      12.743   2.930   2.116  0.00  0.00    -0.150 OA
BRANCH   1  25
ATOM     25  C   UNL     1      12.832   4.027  -0.240  0.00  0.00    +0.109 A 
ATOM     26  C   UNL     1      11.776   3.502  -0.963  0.00  0.00    +0.041 A 
ATOM     27  C   UNL     1      14.022   4.386  -0.849  0.00  0.00    +0.029 A 
ATOM     28  C   UNL     1      11.915   3.329  -2.340  0.00  0.00    +0.057 A 
ATOM     29  C   UNL     1      14.160   4.213  -2.227  0.00  0.00    +0.002 A 
ATOM     30  C   UNL     1      13.106   3.685  -2.972  0.00  0.00    +0.012 A 
BRANCH  28  31
ATOM      2  F   UNL     1      11.074   2.616  -4.464  0.00  0.00    -0.166 F 
ATOM      3  F   UNL     1      10.391   1.524  -2.719  0.00  0.00    -0.166 F 
ATOM      4  F   UNL     1       9.667   3.541  -3.088  0.00  0.00    -0.166 F 
ATOM     31  C   UNL     1      10.787   2.762  -3.136  0.00  0.00    +0.417 C 
ENDBRANCH  28  31
ENDBRANCH   1  25
ENDBRANCH  11   1
ENDBRANCH  22  11
TORSDOF 4
ENDMDL
MODEL 6
REMARK VINA RESULT:      -7.0     25.693     28.976
REMARK  Name = 7051361
REMARK  5 active torsions:
REMARK  status: ('A' for Active; 'I' for Inactive)
REMARK    1  A    between atoms: S_1  and  N_11
REMARK    2  A    between atoms: S_1  and  C_25
REMARK    3  A    between atoms: N_11  and  C_22
REMARK    4  A    between atoms: C_21  and  C_24
REMARK    5  A    between atoms: C_28  and  C_31
REMARK                            x       y       z     vdW  Elec       q    Type
REMARK                         _______ _______ _______ _____ _____    ______ ____
ROOT
ATOM      5  O   UNL     1      -6.981 -12.088  19.274  0.00  0.00    -0.266 OA
ATOM      6  O   UNL     1     -11.861 -13.973  16.695  0.00  0.00    -0.276 OA
ATOM      9  N   UNL     1     -11.718 -11.838  17.600  0.00  0.00    -0.301 N 
ATOM     10  N   UNL     1      -8.941 -10.874  18.857  0.00  0.00    -0.310 N 
ATOM     12  C   UNL     1     -11.173 -11.392  19.997  0.00  0.00    +0.027 C 
ATOM     13  C   UNL     1     -11.036  -9.566  18.354  0.00  0.00    +0.054 C 
ATOM     14  C   UNL     1     -11.468  -9.913  19.778  0.00  0.00    +0.018 C 
ATOM     15  C   UNL     1     -11.948 -12.252  18.985  0.00  0.00    +0.113 C 
ATOM     16  C   UNL     1      -9.659 -11.614  19.903  0.00  0.00    +0.130 C 
ATOM     17  C   UNL     1     -11.858 -10.396  17.348  0.00  0.00    +0.117 C 
ATOM     18  C   UNL     1      -9.555  -9.831  18.152  0.00  0.00    +0.027 A 
ATOM     19  C   UNL     1      -8.849  -9.087  17.281  0.00  0.00    +0.024 A 
ATOM     20  C   UNL     1      -7.580 -11.196  18.675  0.00  0.00    +0.274 A 
ATOM     21  C   UNL     1     -11.473 -12.804  16.623  0.00  0.00    +0.212 C 
ATOM     22  C   UNL     1      -6.859 -10.357  17.685  0.00  0.00    +0.112 A 
ATOM     23  C   UNL     1      -7.457  -9.357  17.036  0.00  0.00    +0.031 A 
ATOM     24  C   UNL     1     -10.677 -12.362  15.421  0.00  0.00    +0.109 C 
ENDROOT
BRANCH  22  11
ATOM     11  N   UNL     1      -5.500 -10.592  17.412  0.00  0.00    -0.211 N 
ATOM     32  H   UNL     1      -4.963  -9.723  17.285  0.00  0.00    +0.174 HD
BRANCH  11   1
ATOM      1  S   UNL     1      -5.139 -11.814  16.297  0.00  0.00    +0.073 S 
ATOM      7  O   UNL     1      -4.748 -13.019  17.003  0.00  0.00    -0.150 OA
ATOM      8  O   UNL     1      -6.169 -11.865  15.278  0.00  0.00    -0.150 OA
BRANCH   1  25
ATOM     25  C   UNL     1      -3.683 -11.149  15.543  0.00  0.00    +0.109 A 
ATOM     26  C   UNL     1      -3.632 -11.031  14.166  0.00  0.00    +0.041 A 
ATOM     27  C   UNL     1      -2.624 -10.763  16.344  0.00  0.00    +0.029 A 
ATOM     28  C   UNL     1      -2.483 -10.509  13.571  0.00  0.00    +0.057 A 
ATOM     29  C   UNL     1      -1.475 -10.241  15.749  0.00  0.00    +0.002 A 
ATOM     30  C   UNL     1      -1.405 -10.113  14.362  0.00  0.00    +0.012 A 
BRANCH  28  31
ATOM      2  F   UNL     1      -1.309  -9.690  11.653  0.00  0.00    -0.166 F 
ATOM      3  F   UNL     1      -2.365 -11.571  11.430  0.00  0.00    -0.166 F 
ATOM      4  F   UNL     1      -3.482  -9.710  11.565  0.00  0.00    -0.166 F 
ATOM     31  C   UNL     1      -2.409 -10.375  12.086  0.00  0.00    +0.417 C 
ENDBRANCH  28  31
ENDBRANCH   1  25
ENDBRANCH  11   1
ENDBRANCH  22  11
TORSDOF 4
ENDMDL
MODEL 7
REMARK VINA RESULT:      -6.8      5.702      7.962
REMARK  Name = 7051361
REMARK  5 active torsions:
REMARK  status: ('A' for Active; 'I' for Inactive)
REMARK    1  A    between atoms: S_1  and  N_11
REMARK    2  A    between atoms: S_1  and  C_25
REMARK    3  A    between atoms: N_11  and  C_22
REMARK    4  A    between atoms: C_21  and  C_24
REMARK    5  A    between atoms: C_28  and  C_31
REMARK                            x       y       z     vdW  Elec       q    Type
REMARK                         _______ _______ _______ _____ _____    ______ ____
ROOT
ATOM      5  O   UNL     1      14.309   6.578   7.329  0.00  0.00    -0.266 OA
ATOM      6  O   UNL     1      10.838   3.953   3.446  0.00  0.00    -0.276 OA
ATOM      9  N   UNL     1      10.125   5.812   4.644  0.00  0.00    -0.301 N 
ATOM     10  N   UNL     1      12.173   7.247   6.636  0.00  0.00    -0.310 N 
ATOM     12  C   UNL     1      10.056   5.899   7.140  0.00  0.00    +0.027 C 
ATOM     13  C   UNL     1       9.898   7.982   5.841  0.00  0.00    +0.054 C 
ATOM     14  C   UNL     1       9.349   7.247   7.062  0.00  0.00    +0.018 C 
ATOM     15  C   UNL     1       9.793   5.078   5.866  0.00  0.00    +0.113 C 
ATOM     16  C   UNL     1      11.553   6.139   7.373  0.00  0.00    +0.130 C 
ATOM     17  C   UNL     1       9.580   7.176   4.566  0.00  0.00    +0.117 C 
ATOM     18  C   UNL     1      11.396   8.194   5.957  0.00  0.00    +0.027 A 
ATOM     19  C   UNL     1      11.973   9.267   5.385  0.00  0.00    +0.024 A 
ATOM     20  C   UNL     1      13.575   7.367   6.735  0.00  0.00    +0.274 A 
ATOM     21  C   UNL     1      10.838   5.174   3.628  0.00  0.00    +0.212 C 
ATOM     22  C   UNL     1      14.157   8.558   6.065  0.00  0.00    +0.112 A 
ATOM     23  C   UNL     1      13.398   9.458   5.438  0.00  0.00    +0.031 A 
ATOM     24  C   UNL     1      11.654   6.056   2.718  0.00  0.00    +0.109 C 
ENDROOT
BRANCH  22  11
ATOM     11  N   UNL     1      15.545   8.777   6.089  0.00  0.00    -0.211 N 
ATOM     32  H   UNL     1      15.808   9.615   6.625  0.00  0.00    +0.174 HD
BRANCH  11   1
ATOM      1  S   UNL     1      16.379   8.585   4.628  0.00  0.00    +0.073 S 
ATOM      7  O   UNL     1      16.000   7.328   4.010  0.00  0.00    -0.150 OA
ATOM      8  O   UNL     1      16.323   9.819   3.868  0.00  0.00    -0.150 OA
BRANCH   1  25
ATOM     25  C   UNL     1      18.037   8.403   5.218  0.00  0.00    +0.109 A 
ATOM     26  C   UNL     1      18.989   7.837   4.389  0.00  0.00    +0.041 A 
ATOM     27  C   UNL     1      18.348   8.828   6.497  0.00  0.00    +0.029 A 
ATOM     28  C   UNL     1      20.295   7.691   4.856  0.00  0.00    +0.057 A 
ATOM     29  C   UNL     1      19.655   8.683   6.963  0.00  0.00    +0.002 A 
ATOM     30  C   UNL     1      20.629   8.115   6.142  0.00  0.00    +0.012 A 
BRANCH  28  31
ATOM      2  F   UNL     1      22.495   7.802   3.920  0.00  0.00    -0.166 F 
ATOM      3  F   UNL     1      21.714   5.828   4.365  0.00  0.00    -0.166 F 
ATOM      4  F   UNL     1      20.920   6.954   2.682  0.00  0.00    -0.166 F 
ATOM     31  C   UNL     1      21.336   7.081   3.977  0.00  0.00    +0.417 C 
ENDBRANCH  28  31
ENDBRANCH   1  25
ENDBRANCH  11   1
ENDBRANCH  22  11
TORSDOF 4
ENDMDL
MODEL 8
REMARK VINA RESULT:      -6.7     24.097     27.217
REMARK  Name = 7051361
REMARK  5 active torsions:
REMARK  status: ('A' for Active; 'I' for Inactive)
REMARK    1  A    between atoms: S_1  and  N_11
REMARK    2  A    between atoms: S_1  and  C_25
REMARK    3  A    between atoms: N_11  and  C_22
REMARK    4  A    between atoms: C_21  and  C_24
REMARK    5  A    between atoms: C_28  and  C_31
REMARK                            x       y       z     vdW  Elec       q    Type
REMARK                         _______ _______ _______ _____ _____    ______ ____
ROOT
ATOM      5  O   UNL     1      -4.761 -14.233  14.841  0.00  0.00    -0.266 OA
ATOM      6  O   UNL     1      -9.426 -13.015  18.124  0.00  0.00    -0.276 OA
ATOM      9  N   UNL     1      -7.588 -11.595  18.059  0.00  0.00    -0.301 N 
ATOM     10  N   UNL     1      -5.155 -12.303  16.109  0.00  0.00    -0.310 N 
ATOM     12  C   UNL     1      -5.272 -12.311  18.665  0.00  0.00    +0.027 C 
ATOM     13  C   UNL     1      -5.618 -10.209  17.434  0.00  0.00    +0.054 C 
ATOM     14  C   UNL     1      -4.807 -10.864  18.551  0.00  0.00    +0.018 C 
ATOM     15  C   UNL     1      -6.773 -12.370  18.996  0.00  0.00    +0.113 C 
ATOM     16  C   UNL     1      -4.940 -13.042  17.359  0.00  0.00    +0.130 C 
ATOM     17  C   UNL     1      -7.114 -10.227  17.802  0.00  0.00    +0.117 C 
ATOM     18  C   UNL     1      -5.404 -10.924  16.112  0.00  0.00    +0.027 A 
ATOM     19  C   UNL     1      -5.482 -10.242  14.955  0.00  0.00    +0.024 A 
ATOM     20  C   UNL     1      -4.995 -13.027  14.909  0.00  0.00    +0.274 A 
ATOM     21  C   UNL     1      -8.764 -12.146  17.550  0.00  0.00    +0.212 C 
ATOM     22  C   UNL     1      -5.116 -12.226  13.665  0.00  0.00    +0.112 A 
ATOM     23  C   UNL     1      -5.335 -10.910  13.690  0.00  0.00    +0.031 A 
ATOM     24  C   UNL     1      -9.226 -11.631  16.209  0.00  0.00    +0.109 C 
ENDROOT
BRANCH  22  11
ATOM     11  N   UNL     1      -4.985 -12.843  12.409  0.00  0.00    -0.211 N 
ATOM     32  H   UNL     1      -5.435 -13.768  12.369  0.00  0.00    +0.174 HD
BRANCH  11   1
ATOM      1  S   UNL     1      -3.464 -12.767  11.669  0.00  0.00    +0.073 S 
ATOM      7  O   UNL     1      -2.446 -12.512  12.670  0.00  0.00    -0.150 OA
ATOM      8  O   UNL     1      -3.317 -13.874  10.742  0.00  0.00    -0.150 OA
BRANCH   1  25
ATOM     25  C   UNL     1      -3.640 -11.293  10.707  0.00  0.00    +0.109 A 
ATOM     26  C   UNL     1      -4.579 -11.259   9.692  0.00  0.00    +0.041 A 
ATOM     27  C   UNL     1      -2.834 -10.204  10.988  0.00  0.00    +0.029 A 
ATOM     28  C   UNL     1      -4.716 -10.097   8.933  0.00  0.00    +0.057 A 
ATOM     29  C   UNL     1      -2.971  -9.042  10.229  0.00  0.00    +0.002 A 
ATOM     30  C   UNL     1      -3.913  -8.988   9.201  0.00  0.00    +0.012 A 
BRANCH  28  31
ATOM      2  F   UNL     1      -6.643 -11.049   7.882  0.00  0.00    -0.166 F 
ATOM      3  F   UNL     1      -6.455  -8.889   7.818  0.00  0.00    -0.166 F 
ATOM      4  F   UNL     1      -5.152 -10.128   6.595  0.00  0.00    -0.166 F 
ATOM     31  C   UNL     1      -5.722 -10.041   7.832  0.00  0.00    +0.417 C 
ENDBRANCH  28  31
ENDBRANCH   1  25
ENDBRANCH  11   1
ENDBRANCH  22  11
TORSDOF 4
ENDMDL
MODEL 9
REMARK VINA RESULT:      -6.7      4.542      8.284
REMARK  Name = 7051361
REMARK  5 active torsions:
REMARK  status: ('A' for Active; 'I' for Inactive)
REMARK    1  A    between atoms: S_1  and  N_11
REMARK    2  A    between atoms: S_1  and  C_25
REMARK    3  A    between atoms: N_11  and  C_22
REMARK    4  A    between atoms: C_21  and  C_24
REMARK    5  A    between atoms: C_28  and  C_31
REMARK                            x       y       z     vdW  Elec       q    Type
REMARK                         _______ _______ _______ _____ _____    ______ ____
ROOT
ATOM      5  O   UNL     1      10.152   4.844   2.658  0.00  0.00    -0.266 OA
ATOM      6  O   UNL     1       7.597   9.306   5.414  0.00  0.00    -0.276 OA
ATOM      9  N   UNL     1       9.445   8.224   6.317  0.00  0.00    -0.301 N 
ATOM     10  N   UNL     1      10.841   5.888   4.640  0.00  0.00    -0.310 N 
ATOM     12  C   UNL     1       9.500   5.777   6.816  0.00  0.00    +0.027 C 
ATOM     13  C   UNL     1      11.601   7.055   6.740  0.00  0.00    +0.054 C 
ATOM     14  C   UNL     1      10.853   5.957   7.495  0.00  0.00    +0.018 C 
ATOM     15  C   UNL     1       8.697   7.088   6.858  0.00  0.00    +0.113 C 
ATOM     16  C   UNL     1       9.728   5.285   5.382  0.00  0.00    +0.130 C 
ATOM     17  C   UNL     1      10.813   8.376   6.835  0.00  0.00    +0.117 C 
ATOM     18  C   UNL     1      11.802   6.679   5.284  0.00  0.00    +0.027 A 
ATOM     19  C   UNL     1      12.879   7.127   4.613  0.00  0.00    +0.024 A 
ATOM     20  C   UNL     1      10.952   5.546   3.276  0.00  0.00    +0.274 A 
ATOM     21  C   UNL     1       8.815   9.109   5.441  0.00  0.00    +0.212 C 
ATOM     22  C   UNL     1      12.148   6.089   2.583  0.00  0.00    +0.112 A 
ATOM     23  C   UNL     1      13.060   6.825   3.218  0.00  0.00    +0.031 A 
ATOM     24  C   UNL     1       9.704   9.852   4.476  0.00  0.00    +0.109 C 
ENDROOT
BRANCH  22  11
ATOM     11  N   UNL     1      12.359   5.822   1.219  0.00  0.00    -0.211 N 
ATOM     32  H   UNL     1      11.515   5.968   0.648  0.00  0.00    +0.174 HD
BRANCH  11   1
ATOM      1  S   UNL     1      13.237   4.427   0.834  0.00  0.00    +0.073 S 
ATOM      7  O   UNL     1      14.574   4.793   0.405  0.00  0.00    -0.150 OA
ATOM      8  O   UNL     1      13.050   3.430   1.871  0.00  0.00    -0.150 OA
BRANCH   1  25
ATOM     25  C   UNL     1      12.359   3.871  -0.598  0.00  0.00    +0.109 A 
ATOM     26  C   UNL     1      11.291   4.617  -1.065  0.00  0.00    +0.041 A 
ATOM     27  C   UNL     1      12.755   2.702  -1.222  0.00  0.00    +0.029 A 
ATOM     28  C   UNL     1      10.598   4.178  -2.193  0.00  0.00    +0.057 A 
ATOM     29  C   UNL     1      12.062   2.263  -2.350  0.00  0.00    +0.002 A 
ATOM     30  C   UNL     1      10.983   3.001  -2.835  0.00  0.00    +0.012 A 
BRANCH  28  31
ATOM      2  F   UNL     1       9.811   6.079  -3.414  0.00  0.00    -0.166 F 
ATOM      3  F   UNL     1       8.632   4.264  -3.554  0.00  0.00    -0.166 F 
ATOM      4  F   UNL     1       8.627   5.420  -1.713  0.00  0.00    -0.166 F 
ATOM     31  C   UNL     1       9.442   4.968  -2.710  0.00  0.00    +0.417 C 
ENDBRANCH  28  31
ENDBRANCH   1  25
ENDBRANCH  11   1
ENDBRANCH  22  11
TORSDOF 4
ENDMDL
MODEL 10
REMARK VINA RESULT:      -6.7     27.316     29.355
REMARK  Name = 7051361
REMARK  5 active torsions:
REMARK  status: ('A' for Active; 'I' for Inactive)
REMARK    1  A    between atoms: S_1  and  N_11
REMARK    2  A    between atoms: S_1  and  C_25
REMARK    3  A    between atoms: N_11  and  C_22
REMARK    4  A    between atoms: C_21  and  C_24
REMARK    5  A    between atoms: C_28  and  C_31
REMARK                            x       y       z     vdW  Elec       q    Type
REMARK                         _______ _______ _______ _____ _____    ______ ____
ROOT
ATOM      5  O   UNL     1      -8.011  -9.017  17.286  0.00  0.00    -0.266 OA
ATOM      6  O   UNL     1      -6.087 -13.382  13.929  0.00  0.00    -0.276 OA
ATOM      9  N   UNL     1      -5.272 -13.060  16.082  0.00  0.00    -0.301 N 
ATOM     10  N   UNL     1      -6.513 -10.720  17.872  0.00  0.00    -0.310 N 
ATOM     12  C   UNL     1      -4.182 -10.945  16.840  0.00  0.00    +0.027 C 
ATOM     13  C   UNL     1      -4.945 -12.589  18.503  0.00  0.00    +0.054 C 
ATOM     14  C   UNL     1      -3.817 -11.618  18.158  0.00  0.00    +0.018 C 
ATOM     15  C   UNL     1      -4.338 -11.992  15.725  0.00  0.00    +0.113 C 
ATOM     16  C   UNL     1      -5.460 -10.122  17.042  0.00  0.00    +0.130 C 
ATOM     17  C   UNL     1      -5.055 -13.665  17.405  0.00  0.00    +0.117 C 
ATOM     18  C   UNL     1      -6.269 -11.861  18.647  0.00  0.00    +0.027 A 
ATOM     19  C   UNL     1      -7.208 -12.328  19.490  0.00  0.00    +0.024 A 
ATOM     20  C   UNL     1      -7.742 -10.031  17.929  0.00  0.00    +0.274 A 
ATOM     21  C   UNL     1      -6.222 -13.485  15.152  0.00  0.00    +0.212 C 
ATOM     22  C   UNL     1      -8.747 -10.606  18.858  0.00  0.00    +0.112 A 
ATOM     23  C   UNL     1      -8.489 -11.684  19.601  0.00  0.00    +0.031 A 
ATOM     24  C   UNL     1      -7.484 -14.097  15.706  0.00  0.00    +0.109 C 
ENDROOT
BRANCH  22  11
ATOM     11  N   UNL     1     -10.013 -10.010  18.991  0.00  0.00    -0.211 N 
ATOM     32  H   UNL     1     -10.235  -9.756  19.964  0.00  0.00    +0.174 HD
BRANCH  11   1
ATOM      1  S   UNL     1     -11.292 -10.720  18.139  0.00  0.00    +0.073 S 
ATOM      7  O   UNL     1     -10.940 -12.079  17.772  0.00  0.00    -0.150 OA
ATOM      8  O   UNL     1     -12.544 -10.447  18.820  0.00  0.00    -0.150 OA
BRANCH   1  25
ATOM     25  C   UNL     1     -11.276  -9.753  16.657  0.00  0.00    +0.109 A 
ATOM     26  C   UNL     1     -11.547  -8.399  16.734  0.00  0.00    +0.041 A 
ATOM     27  C   UNL     1     -10.993 -10.370  15.452  0.00  0.00    +0.029 A 
ATOM     28  C   UNL     1     -11.536  -7.637  15.565  0.00  0.00    +0.057 A 
ATOM     29  C   UNL     1     -10.982  -9.608  14.283  0.00  0.00    +0.002 A 
ATOM     30  C   UNL     1     -11.253  -8.242  14.340  0.00  0.00    +0.012 A 
BRANCH  28  31
ATOM      2  F   UNL     1     -11.317  -5.562  16.736  0.00  0.00    -0.166 F 
ATOM      3  F   UNL     1     -11.329  -5.472  14.569  0.00  0.00    -0.166 F 
ATOM      4  F   UNL     1     -13.167  -5.908  15.645  0.00  0.00    -0.166 F 
ATOM     31  C   UNL     1     -11.828  -6.175  15.627  0.00  0.00    +0.417 C 
ENDBRANCH  28  31
ENDBRANCH   1  25
ENDBRANCH  11   1
ENDBRANCH  22  11
TORSDOF 4
ENDMDL
