MODEL 1
REMARK VINA RESULT:      -5.8      0.000      0.000
REMARK  Name = 11865808
REMARK  10 active torsions:
REMARK  status: ('A' for Active; 'I' for Inactive)
REMARK    1  A    between atoms: O_2  and  C_21
REMARK    2  A    between atoms: O_2  and  C_29
REMARK    3  A    between atoms: N_8  and  C_12
REMARK    4  A    between atoms: N_9  and  C_28
REMARK    5  A    between atoms: N_10  and  C_25
REMARK    6  A    between atoms: C_11  and  C_15
REMARK    7  A    between atoms: C_16  and  C_21
REMARK    8  A    between atoms: C_20  and  C_22
REMARK    9  A    between atoms: C_25  and  C_30
REMARK   10  A    between atoms: C_25  and  C_31
REMARK                            x       y       z     vdW  Elec       q    Type
REMARK                         _______ _______ _______ _____ _____    ______ ____
ROOT
ATOM      3  O   UNL     1      -7.155 -11.463  15.021  0.00  0.00    -0.268 OA
ATOM      6  N   UNL     1      -6.421 -11.283  17.200  0.00  0.00    -0.283 N 
ATOM     11  C   UNL     1      -7.753 -11.211  17.791  0.00  0.00    +0.183 C 
ATOM     12  C   UNL     1      -7.533 -11.417  19.290  0.00  0.00    +0.105 C 
ATOM     13  C   UNL     1      -6.115 -10.887  19.515  0.00  0.00    +0.043 C 
ATOM     14  C   UNL     1      -5.384 -11.260  18.232  0.00  0.00    +0.111 C 
ATOM     20  C   UNL     1      -6.224 -11.456  15.827  0.00  0.00    +0.264 C 
ENDROOT
BRANCH  11  15
ATOM      1  O   UNL     1      -7.513  -8.871  17.417  0.00  0.00    -0.273 OA
ATOM      7  N   UNL     1      -9.656  -9.738  17.337  0.00  0.00    -0.286 N 
ATOM     15  C   UNL     1      -8.283  -9.829  17.502  0.00  0.00    +0.239 C 
ATOM     16  C   UNL     1     -10.347  -8.462  17.212  0.00  0.00    +0.185 C 
ATOM     17  C   UNL     1     -10.607 -10.844  17.429  0.00  0.00    +0.109 C 
ATOM     18  C   UNL     1     -11.807  -8.780  17.515  0.00  0.00    +0.035 C 
ATOM     19  C   UNL     1     -11.953 -10.234  17.073  0.00  0.00    +0.021 C 
BRANCH  16  21
ATOM      4  O   UNL     1     -10.098  -8.744  14.833  0.00  0.00    -0.249 OA
ATOM     21  C   UNL     1     -10.162  -7.995  15.799  0.00  0.00    +0.328 C 
BRANCH  21   2
ATOM      2  O   UNL     1     -10.079  -6.634  15.775  0.00  0.00    -0.467 OA
ATOM     29  C   UNL     1     -11.243  -5.956  15.293  0.00  0.00    +0.280 C 
ENDBRANCH  21   2
ENDBRANCH  16  21
ENDBRANCH  11  15
BRANCH  12   8
ATOM      5  O   UNL     1      -9.845 -12.799  20.326  0.00  0.00    -0.253 OA
ATOM      8  N   UNL     1      -7.626 -12.814  19.645  0.00  0.00    -0.294 N 
ATOM     10  N   UNL     1      -8.600 -14.755  20.399  0.00  0.00    -0.297 N 
ATOM     23  C   UNL     1      -8.788 -13.399  20.140  0.00  0.00    +0.300 C 
ATOM     32  H   UNL     1      -6.786 -13.383  19.596  0.00  0.00    +0.151 HD
ATOM     33  H   UNL     1      -7.714 -15.178  20.140  0.00  0.00    +0.150 HD
BRANCH  10  25
ATOM     25  C   UNL     1      -9.646 -15.604  20.920  0.00  0.00    +0.068 C 
ATOM     30  C   UNL     1      -9.059 -16.645  21.865  0.00  0.00    +0.027 C 
ATOM     31  C   UNL     1     -10.417 -16.262  19.783  0.00  0.00    +0.027 C 
ENDBRANCH  10  25
ENDBRANCH  12   8
BRANCH  20  22
ATOM      9  N   UNL     1      -4.191 -12.799  15.255  0.00  0.00    -0.346 N 
ATOM     22  C   UNL     1      -4.844 -11.602  15.381  0.00  0.00    +0.104 A 
ATOM     24  C   UNL     1      -3.973 -10.602  15.016  0.00  0.00    +0.032 A 
ATOM     26  C   UNL     1      -2.913 -12.579  14.815  0.00  0.00    +0.086 A 
ATOM     27  C   UNL     1      -2.749 -11.219  14.658  0.00  0.00    +0.020 A 
ATOM     28  C   UNL     1      -4.749 -14.104  15.539  0.00  0.00    +0.149 C 
ENDBRANCH  20  22
TORSDOF 6
ENDMDL
MODEL 2
REMARK VINA RESULT:      -5.6      3.921      6.792
REMARK  Name = 11865808
REMARK  10 active torsions:
REMARK  status: ('A' for Active; 'I' for Inactive)
REMARK    1  A    between atoms: O_2  and  C_21
REMARK    2  A    between atoms: O_2  and  C_29
REMARK    3  A    between atoms: N_8  and  C_12
REMARK    4  A    between atoms: N_9  and  C_28
REMARK    5  A    between atoms: N_10  and  C_25
REMARK    6  A    between atoms: C_11  and  C_15
REMARK    7  A    between atoms: C_16  and  C_21
REMARK    8  A    between atoms: C_20  and  C_22
REMARK    9  A    between atoms: C_25  and  C_30
REMARK   10  A    between atoms: C_25  and  C_31
REMARK                            x       y       z     vdW  Elec       q    Type
REMARK                         _______ _______ _______ _____ _____    ______ ____
ROOT
ATOM      3  O   UNL     1      -4.431 -13.698  12.217  0.00  0.00    -0.268 OA
ATOM      6  N   UNL     1      -2.898 -12.709  13.628  0.00  0.00    -0.283 N 
ATOM     11  C   UNL     1      -3.598 -11.431  13.721  0.00  0.00    +0.183 C 
ATOM     12  C   UNL     1      -2.930 -10.699  14.885  0.00  0.00    +0.105 C 
ATOM     13  C   UNL     1      -1.509 -11.265  14.891  0.00  0.00    +0.043 C 
ATOM     14  C   UNL     1      -1.698 -12.715  14.466  0.00  0.00    +0.111 C 
ATOM     20  C   UNL     1      -3.411 -13.787  12.901  0.00  0.00    +0.264 C 
ENDROOT
BRANCH  11  15
ATOM      1  O   UNL     1      -2.251 -10.722  11.890  0.00  0.00    -0.273 OA
ATOM      7  N   UNL     1      -4.471 -10.072  11.881  0.00  0.00    -0.286 N 
ATOM     15  C   UNL     1      -3.365 -10.712  12.417  0.00  0.00    +0.239 C 
ATOM     16  C   UNL     1      -4.385  -9.201  10.716  0.00  0.00    +0.185 C 
ATOM     17  C   UNL     1      -5.808 -10.033  12.470  0.00  0.00    +0.109 C 
ATOM     18  C   UNL     1      -5.666  -8.376  10.754  0.00  0.00    +0.035 C 
ATOM     19  C   UNL     1      -6.663  -9.299  11.449  0.00  0.00    +0.021 C 
BRANCH  16  21
ATOM      4  O   UNL     1      -4.139 -11.293   9.549  0.00  0.00    -0.249 OA
ATOM     21  C   UNL     1      -4.329 -10.085   9.507  0.00  0.00    +0.328 C 
BRANCH  21   2
ATOM      2  O   UNL     1      -4.519  -9.335   8.384  0.00  0.00    -0.467 OA
ATOM     29  C   UNL     1      -5.424  -9.886   7.422  0.00  0.00    +0.280 C 
ENDBRANCH  21   2
ENDBRANCH  16  21
ENDBRANCH  11  15
BRANCH  12   8
ATOM      5  O   UNL     1      -5.444  -9.603  15.786  0.00  0.00    -0.253 OA
ATOM      8  N   UNL     1      -3.604 -10.976  16.133  0.00  0.00    -0.294 N 
ATOM     10  N   UNL     1      -5.242 -10.839  17.740  0.00  0.00    -0.297 N 
ATOM     23  C   UNL     1      -4.820 -10.399  16.487  0.00  0.00    +0.300 C 
ATOM     32  H   UNL     1      -3.136 -11.566  16.815  0.00  0.00    +0.151 HD
ATOM     33  H   UNL     1      -4.697 -11.556  18.208  0.00  0.00    +0.150 HD
BRANCH  10  25
ATOM     25  C   UNL     1      -6.475 -10.398  18.350  0.00  0.00    +0.068 C 
ATOM     30  C   UNL     1      -6.353 -10.428  19.868  0.00  0.00    +0.027 C 
ATOM     31  C   UNL     1      -7.643 -11.251  17.872  0.00  0.00    +0.027 C 
ENDBRANCH  10  25
ENDBRANCH  12   8
BRANCH  20  22
ATOM      9  N   UNL     1      -2.817 -15.988  13.932  0.00  0.00    -0.346 N 
ATOM     22  C   UNL     1      -2.657 -15.033  12.965  0.00  0.00    +0.104 A 
ATOM     24  C   UNL     1      -1.679 -15.464  12.099  0.00  0.00    +0.032 A 
ATOM     26  C   UNL     1      -1.955 -17.027  13.696  0.00  0.00    +0.086 A 
ATOM     27  C   UNL     1      -1.234 -16.726  12.561  0.00  0.00    +0.020 A 
ATOM     28  C   UNL     1      -3.747 -15.929  15.038  0.00  0.00    +0.149 C 
ENDBRANCH  20  22
TORSDOF 6
ENDMDL
MODEL 3
REMARK VINA RESULT:      -5.6     29.481     32.456
REMARK  Name = 11865808
REMARK  10 active torsions:
REMARK  status: ('A' for Active; 'I' for Inactive)
REMARK    1  A    between atoms: O_2  and  C_21
REMARK    2  A    between atoms: O_2  and  C_29
REMARK    3  A    between atoms: N_8  and  C_12
REMARK    4  A    between atoms: N_9  and  C_28
REMARK    5  A    between atoms: N_10  and  C_25
REMARK    6  A    between atoms: C_11  and  C_15
REMARK    7  A    between atoms: C_16  and  C_21
REMARK    8  A    between atoms: C_20  and  C_22
REMARK    9  A    between atoms: C_25  and  C_30
REMARK   10  A    between atoms: C_25  and  C_31
REMARK                            x       y       z     vdW  Elec       q    Type
REMARK                         _______ _______ _______ _____ _____    ______ ____
ROOT
ATOM      3  O   UNL     1      11.282  11.889  21.339  0.00  0.00    -0.268 OA
ATOM      6  N   UNL     1      13.390  11.718  22.259  0.00  0.00    -0.283 N 
ATOM     11  C   UNL     1      14.038  11.247  21.039  0.00  0.00    +0.183 C 
ATOM     12  C   UNL     1      15.537  11.372  21.313  0.00  0.00    +0.105 C 
ATOM     13  C   UNL     1      15.632  11.215  22.833  0.00  0.00    +0.043 C 
ATOM     14  C   UNL     1      14.360  11.878  23.343  0.00  0.00    +0.111 C 
ATOM     20  C   UNL     1      12.035  12.057  22.299  0.00  0.00    +0.264 C 
ENDROOT
BRANCH  11  15
ATOM      1  O   UNL     1      13.655   9.029  21.817  0.00  0.00    -0.273 OA
ATOM      7  N   UNL     1      13.241   9.449  19.580  0.00  0.00    -0.286 N 
ATOM     15  C   UNL     1      13.633   9.805  20.860  0.00  0.00    +0.239 C 
ATOM     16  C   UNL     1      12.974   8.069  19.198  0.00  0.00    +0.185 C 
ATOM     17  C   UNL     1      13.200  10.334  18.417  0.00  0.00    +0.109 C 
ATOM     18  C   UNL     1      13.039   8.069  17.675  0.00  0.00    +0.035 C 
ATOM     19  C   UNL     1      12.612   9.486  17.301  0.00  0.00    +0.021 C 
BRANCH  16  21
ATOM      4  O   UNL     1      10.650   8.499  19.659  0.00  0.00    -0.249 OA
ATOM     21  C   UNL     1      11.601   7.730  19.696  0.00  0.00    +0.328 C 
BRANCH  21   2
ATOM      2  O   UNL     1      11.594   6.456  20.183  0.00  0.00    -0.467 OA
ATOM     29  C   UNL     1      11.269   6.330  21.571  0.00  0.00    +0.280 C 
ENDBRANCH  21   2
ENDBRANCH  16  21
ENDBRANCH  11  15
BRANCH  12   8
ATOM      5  O   UNL     1      18.074  11.919  20.051  0.00  0.00    -0.253 OA
ATOM      8  N   UNL     1      16.040  12.658  20.893  0.00  0.00    -0.294 N 
ATOM     10  N   UNL     1      17.516  14.170  19.986  0.00  0.00    -0.297 N 
ATOM     23  C   UNL     1      17.283  12.831  20.288  0.00  0.00    +0.300 C 
ATOM     32  H   UNL     1      15.493  13.486  21.109  0.00  0.00    +0.151 HD
ATOM     33  H   UNL     1      16.770  14.839  20.151  0.00  0.00    +0.150 HD
BRANCH  10  25
ATOM     25  C   UNL     1      18.730  14.630  19.354  0.00  0.00    +0.068 C 
ATOM     30  C   UNL     1      19.494  15.560  20.288  0.00  0.00    +0.027 C 
ATOM     31  C   UNL     1      18.417  15.312  18.028  0.00  0.00    +0.027 C 
ENDBRANCH  10  25
ENDBRANCH  12   8
BRANCH  20  22
ATOM      9  N   UNL     1      11.508  13.930  23.871  0.00  0.00    -0.346 N 
ATOM     22  C   UNL     1      11.536  12.599  23.557  0.00  0.00    +0.104 A 
ATOM     24  C   UNL     1      11.020  11.899  24.622  0.00  0.00    +0.032 A 
ATOM     26  C   UNL     1      10.981  14.093  25.125  0.00  0.00    +0.086 A 
ATOM     27  C   UNL     1      10.668  12.844  25.617  0.00  0.00    +0.020 A 
ATOM     28  C   UNL     1      11.961  15.012  23.024  0.00  0.00    +0.149 C 
ENDBRANCH  20  22
TORSDOF 6
ENDMDL
MODEL 4
REMARK VINA RESULT:      -5.6     27.956     31.298
REMARK  Name = 11865808
REMARK  10 active torsions:
REMARK  status: ('A' for Active; 'I' for Inactive)
REMARK    1  A    between atoms: O_2  and  C_21
REMARK    2  A    between atoms: O_2  and  C_29
REMARK    3  A    between atoms: N_8  and  C_12
REMARK    4  A    between atoms: N_9  and  C_28
REMARK    5  A    between atoms: N_10  and  C_25
REMARK    6  A    between atoms: C_11  and  C_15
REMARK    7  A    between atoms: C_16  and  C_21
REMARK    8  A    between atoms: C_20  and  C_22
REMARK    9  A    between atoms: C_25  and  C_30
REMARK   10  A    between atoms: C_25  and  C_31
REMARK                            x       y       z     vdW  Elec       q    Type
REMARK                         _______ _______ _______ _____ _____    ______ ____
ROOT
ATOM      3  O   UNL     1      11.666   4.212   2.882  0.00  0.00    -0.268 OA
ATOM      6  N   UNL     1      12.740   6.088   2.078  0.00  0.00    -0.283 N 
ATOM     11  C   UNL     1      12.853   6.751   3.374  0.00  0.00    +0.183 C 
ATOM     12  C   UNL     1      13.840   7.896   3.148  0.00  0.00    +0.105 C 
ATOM     13  C   UNL     1      13.659   8.232   1.666  0.00  0.00    +0.043 C 
ATOM     14  C   UNL     1      13.373   6.881   1.024  0.00  0.00    +0.111 C 
ATOM     20  C   UNL     1      12.183   4.814   1.940  0.00  0.00    +0.264 C 
ENDROOT
BRANCH  11  15
ATOM      1  O   UNL     1      10.763   7.762   2.841  0.00  0.00    -0.273 OA
ATOM      7  N   UNL     1      11.108   7.149   5.045  0.00  0.00    -0.286 N 
ATOM     15  C   UNL     1      11.480   7.273   3.716  0.00  0.00    +0.239 C 
ATOM     16  C   UNL     1       9.888   7.743   5.576  0.00  0.00    +0.185 C 
ATOM     17  C   UNL     1      11.923   6.578   6.115  0.00  0.00    +0.109 C 
ATOM     18  C   UNL     1      10.097   7.774   7.086  0.00  0.00    +0.035 C 
ATOM     19  C   UNL     1      11.023   6.588   7.341  0.00  0.00    +0.021 C 
BRANCH  16  21
ATOM      4  O   UNL     1       8.623   5.694   5.594  0.00  0.00    -0.249 OA
ATOM     21  C   UNL     1       8.754   6.842   5.190  0.00  0.00    +0.328 C 
BRANCH  21   2
ATOM      2  O   UNL     1       7.917   7.500   4.338  0.00  0.00    -0.467 OA
ATOM     29  C   UNL     1       7.825   8.914   4.537  0.00  0.00    +0.280 C 
ENDBRANCH  21   2
ENDBRANCH  16  21
ENDBRANCH  11  15
BRANCH  12   8
ATOM      5  O   UNL     1      16.074   9.589   3.837  0.00  0.00    -0.253 OA
ATOM      8  N   UNL     1      15.195   7.480   3.423  0.00  0.00    -0.294 N 
ATOM     10  N   UNL     1      17.419   7.703   3.964  0.00  0.00    -0.297 N 
ATOM     23  C   UNL     1      16.215   8.370   3.749  0.00  0.00    +0.300 C 
ATOM     32  H   UNL     1      15.434   6.499   3.307  0.00  0.00    +0.151 HD
ATOM     33  H   UNL     1      17.418   6.688   3.944  0.00  0.00    +0.150 HD
BRANCH  10  25
ATOM     25  C   UNL     1      18.641   8.387   4.317  0.00  0.00    +0.068 C 
ATOM     30  C   UNL     1      19.836   7.703   3.667  0.00  0.00    +0.027 C 
ATOM     31  C   UNL     1      18.798   8.455   5.830  0.00  0.00    +0.027 C 
ENDBRANCH  10  25
ENDBRANCH  12   8
BRANCH  20  22
ATOM      9  N   UNL     1      11.240   4.405  -0.341  0.00  0.00    -0.346 N 
ATOM     22  C   UNL     1      12.214   4.231   0.605  0.00  0.00    +0.104 A 
ATOM     24  C   UNL     1      13.191   3.428   0.066  0.00  0.00    +0.032 A 
ATOM     26  C   UNL     1      11.580   3.724  -1.479  0.00  0.00    +0.086 A 
ATOM     27  C   UNL     1      12.791   3.105  -1.254  0.00  0.00    +0.020 A 
ATOM     28  C   UNL     1      10.031   5.185  -0.181  0.00  0.00    +0.149 C 
ENDBRANCH  20  22
TORSDOF 6
ENDMDL
MODEL 5
REMARK VINA RESULT:      -5.5     27.571     31.079
REMARK  Name = 11865808
REMARK  10 active torsions:
REMARK  status: ('A' for Active; 'I' for Inactive)
REMARK    1  A    between atoms: O_2  and  C_21
REMARK    2  A    between atoms: O_2  and  C_29
REMARK    3  A    between atoms: N_8  and  C_12
REMARK    4  A    between atoms: N_9  and  C_28
REMARK    5  A    between atoms: N_10  and  C_25
REMARK    6  A    between atoms: C_11  and  C_15
REMARK    7  A    between atoms: C_16  and  C_21
REMARK    8  A    between atoms: C_20  and  C_22
REMARK    9  A    between atoms: C_25  and  C_30
REMARK   10  A    between atoms: C_25  and  C_31
REMARK                            x       y       z     vdW  Elec       q    Type
REMARK                         _______ _______ _______ _____ _____    ______ ____
ROOT
ATOM      3  O   UNL     1      14.512   6.891   6.612  0.00  0.00    -0.268 OA
ATOM      6  N   UNL     1      13.993   9.103   6.214  0.00  0.00    -0.283 N 
ATOM     11  C   UNL     1      12.688   9.060   6.867  0.00  0.00    +0.183 C 
ATOM     12  C   UNL     1      12.275  10.524   7.022  0.00  0.00    +0.105 C 
ATOM     13  C   UNL     1      12.986  11.217   5.856  0.00  0.00    +0.043 C 
ATOM     14  C   UNL     1      14.295  10.449   5.727  0.00  0.00    +0.111 C 
ATOM     20  C   UNL     1      14.845   7.995   6.180  0.00  0.00    +0.264 C 
ENDROOT
BRANCH  11  15
ATOM      1  O   UNL     1      12.072   8.145   4.757  0.00  0.00    -0.273 OA
ATOM      7  N   UNL     1      10.574   7.881   6.500  0.00  0.00    -0.286 N 
ATOM     15  C   UNL     1      11.759   8.325   5.935  0.00  0.00    +0.239 C 
ATOM     16  C   UNL     1       9.499   7.298   5.708  0.00  0.00    +0.185 C 
ATOM     17  C   UNL     1      10.161   8.073   7.888  0.00  0.00    +0.109 C 
ATOM     18  C   UNL     1       8.267   7.387   6.603  0.00  0.00    +0.035 C 
ATOM     19  C   UNL     1       8.846   7.318   8.013  0.00  0.00    +0.021 C 
BRANCH  16  21
ATOM      4  O   UNL     1      10.164   5.058   6.290  0.00  0.00    -0.249 OA
ATOM     21  C   UNL     1       9.880   5.876   5.426  0.00  0.00    +0.328 C 
BRANCH  21   2
ATOM      2  O   UNL     1       9.855   5.656   4.080  0.00  0.00    -0.467 OA
ATOM     29  C   UNL     1      10.774   4.670   3.601  0.00  0.00    +0.280 C 
ENDBRANCH  21   2
ENDBRANCH  16  21
ENDBRANCH  11  15
BRANCH  12   8
ATOM      5  O   UNL     1      10.613  11.328   9.239  0.00  0.00    -0.253 OA
ATOM      8  N   UNL     1      12.714  11.061   8.289  0.00  0.00    -0.294 N 
ATOM     10  N   UNL     1      12.525  11.911  10.417  0.00  0.00    -0.297 N 
ATOM     23  C   UNL     1      11.837  11.424   9.308  0.00  0.00    +0.300 C 
ATOM     32  H   UNL     1      13.704  11.247   8.419  0.00  0.00    +0.151 HD
ATOM     33  H   UNL     1      13.540  11.879  10.407  0.00  0.00    +0.150 HD
BRANCH  10  25
ATOM     25  C   UNL     1      11.858  12.358  11.617  0.00  0.00    +0.068 C 
ATOM     30  C   UNL     1      11.306  13.764  11.421  0.00  0.00    +0.027 C 
ATOM     31  C   UNL     1      12.804  12.297  12.809  0.00  0.00    +0.027 C 
ENDBRANCH  10  25
ENDBRANCH  12   8
BRANCH  20  22
ATOM      9  N   UNL     1      16.449   7.956   4.260  0.00  0.00    -0.346 N 
ATOM     22  C   UNL     1      16.155   8.200   5.575  0.00  0.00    +0.104 A 
ATOM     24  C   UNL     1      17.297   8.660   6.188  0.00  0.00    +0.032 A 
ATOM     26  C   UNL     1      17.765   8.253   4.023  0.00  0.00    +0.086 A 
ATOM     27  C   UNL     1      18.318   8.694   5.206  0.00  0.00    +0.020 A 
ATOM     28  C   UNL     1      15.526   7.461   3.262  0.00  0.00    +0.149 C 
ENDBRANCH  20  22
TORSDOF 6
ENDMDL
MODEL 6
REMARK VINA RESULT:      -5.4      3.352      6.641
REMARK  Name = 11865808
REMARK  10 active torsions:
REMARK  status: ('A' for Active; 'I' for Inactive)
REMARK    1  A    between atoms: O_2  and  C_21
REMARK    2  A    between atoms: O_2  and  C_29
REMARK    3  A    between atoms: N_8  and  C_12
REMARK    4  A    between atoms: N_9  and  C_28
REMARK    5  A    between atoms: N_10  and  C_25
REMARK    6  A    between atoms: C_11  and  C_15
REMARK    7  A    between atoms: C_16  and  C_21
REMARK    8  A    between atoms: C_20  and  C_22
REMARK    9  A    between atoms: C_25  and  C_30
REMARK   10  A    between atoms: C_25  and  C_31
REMARK                            x       y       z     vdW  Elec       q    Type
REMARK                         _______ _______ _______ _____ _____    ______ ____
ROOT
ATOM      3  O   UNL     1      -7.569  -9.010  17.542  0.00  0.00    -0.268 OA
ATOM      6  N   UNL     1      -7.597 -10.476  15.762  0.00  0.00    -0.283 N 
ATOM     11  C   UNL     1      -8.570  -9.723  14.975  0.00  0.00    +0.183 C 
ATOM     12  C   UNL     1      -8.512 -10.340  13.578  0.00  0.00    +0.105 C 
ATOM     13  C   UNL     1      -8.079 -11.784  13.846  0.00  0.00    +0.043 C 
ATOM     14  C   UNL     1      -7.137 -11.661  15.037  0.00  0.00    +0.111 C 
ATOM     20  C   UNL     1      -7.125 -10.021  16.996  0.00  0.00    +0.264 C 
ENDROOT
BRANCH  11  15
ATOM      1  O   UNL     1     -10.324 -11.094  15.821  0.00  0.00    -0.273 OA
ATOM      7  N   UNL     1     -10.619  -8.803  15.951  0.00  0.00    -0.286 N 
ATOM     15  C   UNL     1      -9.916  -9.949  15.617  0.00  0.00    +0.239 C 
ATOM     16  C   UNL     1     -11.995  -8.839  16.428  0.00  0.00    +0.185 C 
ATOM     17  C   UNL     1     -10.175  -7.429  15.727  0.00  0.00    +0.109 C 
ATOM     18  C   UNL     1     -12.511  -7.418  16.228  0.00  0.00    +0.035 C 
ATOM     19  C   UNL     1     -11.254  -6.562  16.357  0.00  0.00    +0.021 C 
BRANCH  16  21
ATOM      4  O   UNL     1     -10.922  -9.277  18.538  0.00  0.00    -0.249 OA
ATOM     21  C   UNL     1     -11.950  -9.216  17.878  0.00  0.00    +0.328 C 
BRANCH  21   2
ATOM      2  O   UNL     1     -13.214  -9.470  18.322  0.00  0.00    -0.467 OA
ATOM     29  C   UNL     1     -13.320  -9.825  19.705  0.00  0.00    +0.280 C 
ENDBRANCH  21   2
ENDBRANCH  16  21
ENDBRANCH  11  15
BRANCH  12   8
ATOM      5  O   UNL     1      -8.257 -10.520  10.709  0.00  0.00    -0.253 OA
ATOM      8  N   UNL     1      -7.549  -9.657  12.745  0.00  0.00    -0.294 N 
ATOM     10  N   UNL     1      -6.478  -9.035  10.808  0.00  0.00    -0.297 N 
ATOM     23  C   UNL     1      -7.499  -9.804  11.361  0.00  0.00    +0.300 C 
ATOM     32  H   UNL     1      -6.832  -9.097  13.194  0.00  0.00    +0.151 HD
ATOM     33  H   UNL     1      -5.954  -8.416  11.420  0.00  0.00    +0.150 HD
BRANCH  10  25
ATOM     25  C   UNL     1      -6.203  -9.000   9.391  0.00  0.00    +0.068 C 
ATOM     30  C   UNL     1      -4.710  -8.827   9.146  0.00  0.00    +0.027 C 
ATOM     31  C   UNL     1      -7.006  -7.895   8.717  0.00  0.00    +0.027 C 
ENDBRANCH  10  25
ENDBRANCH  12   8
BRANCH  20  22
ATOM      9  N   UNL     1      -6.331 -11.902  18.441  0.00  0.00    -0.346 N 
ATOM     22  C   UNL     1      -6.089 -10.824  17.633  0.00  0.00    +0.104 A 
ATOM     24  C   UNL     1      -4.728 -10.655  17.544  0.00  0.00    +0.032 A 
ATOM     26  C   UNL     1      -5.141 -12.426  18.872  0.00  0.00    +0.086 A 
ATOM     27  C   UNL     1      -4.125 -11.670  18.329  0.00  0.00    +0.020 A 
ATOM     28  C   UNL     1      -7.634 -12.421  18.797  0.00  0.00    +0.149 C 
ENDBRANCH  20  22
TORSDOF 6
ENDMDL
MODEL 7
REMARK VINA RESULT:      -5.4      4.394      7.639
REMARK  Name = 11865808
REMARK  10 active torsions:
REMARK  status: ('A' for Active; 'I' for Inactive)
REMARK    1  A    between atoms: O_2  and  C_21
REMARK    2  A    between atoms: O_2  and  C_29
REMARK    3  A    between atoms: N_8  and  C_12
REMARK    4  A    between atoms: N_9  and  C_28
REMARK    5  A    between atoms: N_10  and  C_25
REMARK    6  A    between atoms: C_11  and  C_15
REMARK    7  A    between atoms: C_16  and  C_21
REMARK    8  A    between atoms: C_20  and  C_22
REMARK    9  A    between atoms: C_25  and  C_30
REMARK   10  A    between atoms: C_25  and  C_31
REMARK                            x       y       z     vdW  Elec       q    Type
REMARK                         _______ _______ _______ _____ _____    ______ ____
ROOT
ATOM      3  O   UNL     1      -5.208  -8.515  11.262  0.00  0.00    -0.268 OA
ATOM      6  N   UNL     1      -7.028  -9.885  11.624  0.00  0.00    -0.283 N 
ATOM     11  C   UNL     1      -6.854  -9.970  13.071  0.00  0.00    +0.183 C 
ATOM     12  C   UNL     1      -8.158 -10.575  13.591  0.00  0.00    +0.105 C 
ATOM     13  C   UNL     1      -8.650 -11.419  12.413  0.00  0.00    +0.043 C 
ATOM     14  C   UNL     1      -8.217 -10.619  11.192  0.00  0.00    +0.111 C 
ATOM     20  C   UNL     1      -6.195  -9.103  10.818  0.00  0.00    +0.264 C 
ENDROOT
BRANCH  11  15
ATOM      1  O   UNL     1      -5.307 -11.664  12.433  0.00  0.00    -0.273 OA
ATOM      7  N   UNL     1      -5.097 -10.792  14.565  0.00  0.00    -0.286 N 
ATOM     15  C   UNL     1      -5.687 -10.892  13.315  0.00  0.00    +0.239 C 
ATOM     16  C   UNL     1      -4.067 -11.715  15.023  0.00  0.00    +0.185 C 
ATOM     17  C   UNL     1      -5.513  -9.893  15.640  0.00  0.00    +0.109 C 
ATOM     18  C   UNL     1      -4.044 -11.550  16.538  0.00  0.00    +0.035 C 
ATOM     19  C   UNL     1      -4.489 -10.105  16.745  0.00  0.00    +0.021 C 
BRANCH  16  21
ATOM      4  O   UNL     1      -2.641 -10.255  13.746  0.00  0.00    -0.249 OA
ATOM     21  C   UNL     1      -2.776 -11.283  14.395  0.00  0.00    +0.328 C 
BRANCH  21   2
ATOM      2  O   UNL     1      -1.807 -12.204  14.666  0.00  0.00    -0.467 OA
ATOM     29  C   UNL     1      -1.617 -13.208  13.664  0.00  0.00    +0.280 C 
ENDBRANCH  21   2
ENDBRANCH  16  21
ENDBRANCH  11  15
BRANCH  12   8
ATOM      5  O   UNL     1      -8.886  -9.673  16.234  0.00  0.00    -0.253 OA
ATOM      8  N   UNL     1      -9.115  -9.547  13.927  0.00  0.00    -0.294 N 
ATOM     10  N   UNL     1     -10.362  -8.162  15.274  0.00  0.00    -0.297 N 
ATOM     23  C   UNL     1      -9.406  -9.174  15.237  0.00  0.00    +0.300 C 
ATOM     32  H   UNL     1      -9.652  -9.122  13.177  0.00  0.00    +0.151 HD
ATOM     33  H   UNL     1     -10.674  -7.761  14.395  0.00  0.00    +0.150 HD
BRANCH  10  25
ATOM     25  C   UNL     1     -10.846  -7.588  16.507  0.00  0.00    +0.068 C 
ATOM     30  C   UNL     1     -11.996  -8.419  17.060  0.00  0.00    +0.027 C 
ATOM     31  C   UNL     1     -11.263  -6.139  16.295  0.00  0.00    +0.027 C 
ENDBRANCH  10  25
ENDBRANCH  12   8
BRANCH  20  22
ATOM      9  N   UNL     1      -6.006  -9.852   8.439  0.00  0.00    -0.346 N 
ATOM     22  C   UNL     1      -6.534  -9.036   9.403  0.00  0.00    +0.104 A 
ATOM     24  C   UNL     1      -7.415  -8.174   8.794  0.00  0.00    +0.032 A 
ATOM     26  C   UNL     1      -6.537  -9.523   7.220  0.00  0.00    +0.086 A 
ATOM     27  C   UNL     1      -7.418  -8.481   7.411  0.00  0.00    +0.020 A 
ATOM     28  C   UNL     1      -5.036 -10.904   8.655  0.00  0.00    +0.149 C 
ENDBRANCH  20  22
TORSDOF 6
ENDMDL
MODEL 8
REMARK VINA RESULT:      -5.4     28.738     30.752
REMARK  Name = 11865808
REMARK  10 active torsions:
REMARK  status: ('A' for Active; 'I' for Inactive)
REMARK    1  A    between atoms: O_2  and  C_21
REMARK    2  A    between atoms: O_2  and  C_29
REMARK    3  A    between atoms: N_8  and  C_12
REMARK    4  A    between atoms: N_9  and  C_28
REMARK    5  A    between atoms: N_10  and  C_25
REMARK    6  A    between atoms: C_11  and  C_15
REMARK    7  A    between atoms: C_16  and  C_21
REMARK    8  A    between atoms: C_20  and  C_22
REMARK    9  A    between atoms: C_25  and  C_30
REMARK   10  A    between atoms: C_25  and  C_31
REMARK                            x       y       z     vdW  Elec       q    Type
REMARK                         _______ _______ _______ _____ _____    ______ ____
ROOT
ATOM      3  O   UNL     1      -5.120   9.946  35.526  0.00  0.00    -0.268 OA
ATOM      6  N   UNL     1      -4.022  11.970  35.655  0.00  0.00    -0.283 N 
ATOM     11  C   UNL     1      -2.711  11.399  35.949  0.00  0.00    +0.183 C 
ATOM     12  C   UNL     1      -1.726  12.552  35.756  0.00  0.00    +0.105 C 
ATOM     13  C   UNL     1      -2.567  13.792  36.068  0.00  0.00    +0.043 C 
ATOM     14  C   UNL     1      -3.951  13.428  35.549  0.00  0.00    +0.111 C 
ATOM     20  C   UNL     1      -5.144  11.172  35.413  0.00  0.00    +0.264 C 
ENDROOT
BRANCH  11  15
ATOM      1  O   UNL     1      -3.424  11.555  38.216  0.00  0.00    -0.273 OA
ATOM      7  N   UNL     1      -1.988   9.823  37.677  0.00  0.00    -0.286 N 
ATOM     15  C   UNL     1      -2.746  10.946  37.387  0.00  0.00    +0.239 C 
ATOM     16  C   UNL     1      -1.783   9.348  39.040  0.00  0.00    +0.185 C 
ATOM     17  C   UNL     1      -1.170   9.070  36.729  0.00  0.00    +0.109 C 
ATOM     18  C   UNL     1      -0.568   8.430  38.951  0.00  0.00    +0.035 C 
ATOM     19  C   UNL     1      -0.634   7.890  37.525  0.00  0.00    +0.021 C 
BRANCH  16  21
ATOM      4  O   UNL     1      -3.897   8.262  38.654  0.00  0.00    -0.249 OA
ATOM     21  C   UNL     1      -3.018   8.598  39.437  0.00  0.00    +0.328 C 
BRANCH  21   2
ATOM      2  O   UNL     1      -2.996   8.361  40.780  0.00  0.00    -0.467 OA
ATOM     29  C   UNL     1      -3.348   7.032  41.175  0.00  0.00    +0.280 C 
ENDBRANCH  21   2
ENDBRANCH  16  21
ENDBRANCH  11  15
BRANCH  12   8
ATOM      5  O   UNL     1       0.806  13.613  34.865  0.00  0.00    -0.253 OA
ATOM      8  N   UNL     1      -1.227  12.593  34.401  0.00  0.00    -0.294 N 
ATOM     10  N   UNL     1       0.242  13.037  32.689  0.00  0.00    -0.297 N 
ATOM     23  C   UNL     1       0.013  13.126  34.060  0.00  0.00    +0.300 C 
ATOM     32  H   UNL     1      -1.837  12.280  33.651  0.00  0.00    +0.151 HD
ATOM     33  H   UNL     1      -0.439  12.549  32.117  0.00  0.00    +0.150 HD
BRANCH  10  25
ATOM     25  C   UNL     1       1.454  13.516  32.066  0.00  0.00    +0.068 C 
ATOM     30  C   UNL     1       1.353  15.012  31.795  0.00  0.00    +0.027 C 
ATOM     31  C   UNL     1       1.739  12.741  30.786  0.00  0.00    +0.027 C 
ENDBRANCH  10  25
ENDBRANCH  12   8
BRANCH  20  22
ATOM      9  N   UNL     1      -7.310  12.308  35.934  0.00  0.00    -0.346 N 
ATOM     22  C   UNL     1      -6.370  11.867  35.043  0.00  0.00    +0.104 A 
ATOM     24  C   UNL     1      -6.794  12.198  33.778  0.00  0.00    +0.032 A 
ATOM     26  C   UNL     1      -8.333  12.918  35.256  0.00  0.00    +0.086 A 
ATOM     27  C   UNL     1      -8.038  12.863  33.911  0.00  0.00    +0.020 A 
ATOM     28  C   UNL     1      -7.251  12.163  37.373  0.00  0.00    +0.149 C 
ENDBRANCH  20  22
TORSDOF 6
ENDMDL
MODEL 9
REMARK VINA RESULT:      -5.3     29.199     33.249
REMARK  Name = 11865808
REMARK  10 active torsions:
REMARK  status: ('A' for Active; 'I' for Inactive)
REMARK    1  A    between atoms: O_2  and  C_21
REMARK    2  A    between atoms: O_2  and  C_29
REMARK    3  A    between atoms: N_8  and  C_12
REMARK    4  A    between atoms: N_9  and  C_28
REMARK    5  A    between atoms: N_10  and  C_25
REMARK    6  A    between atoms: C_11  and  C_15
REMARK    7  A    between atoms: C_16  and  C_21
REMARK    8  A    between atoms: C_20  and  C_22
REMARK    9  A    between atoms: C_25  and  C_30
REMARK   10  A    between atoms: C_25  and  C_31
REMARK                            x       y       z     vdW  Elec       q    Type
REMARK                         _______ _______ _______ _____ _____    ______ ____
ROOT
ATOM      3  O   UNL     1      12.003   6.382  -0.055  0.00  0.00    -0.268 OA
ATOM      6  N   UNL     1      13.703   5.102   0.834  0.00  0.00    -0.283 N 
ATOM     11  C   UNL     1      14.244   4.675  -0.452  0.00  0.00    +0.183 C 
ATOM     12  C   UNL     1      15.606   4.063  -0.125  0.00  0.00    +0.105 C 
ATOM     13  C   UNL     1      15.428   3.549   1.306  0.00  0.00    +0.043 C 
ATOM     14  C   UNL     1      14.500   4.575   1.943  0.00  0.00    +0.111 C 
ATOM     20  C   UNL     1      12.624   5.986   0.932  0.00  0.00    +0.264 C 
ENDROOT
BRANCH  11  15
ATOM      1  O   UNL     1      12.764   2.820  -0.248  0.00  0.00    -0.273 OA
ATOM      7  N   UNL     1      13.079   3.691  -2.368  0.00  0.00    -0.286 N 
ATOM     15  C   UNL     1      13.297   3.638  -1.001  0.00  0.00    +0.239 C 
ATOM     16  C   UNL     1      12.322   2.670  -3.081  0.00  0.00    +0.185 C 
ATOM     17  C   UNL     1      13.686   4.641  -3.297  0.00  0.00    +0.109 C 
ATOM     18  C   UNL     1      12.712   2.850  -4.544  0.00  0.00    +0.035 C 
ATOM     19  C   UNL     1      13.046   4.337  -4.643  0.00  0.00    +0.021 C 
BRANCH  16  21
ATOM      4  O   UNL     1      10.381   4.080  -2.872  0.00  0.00    -0.249 OA
ATOM     21  C   UNL     1      10.868   2.958  -2.853  0.00  0.00    +0.328 C 
BRANCH  21   2
ATOM      2  O   UNL     1      10.202   1.789  -2.628  0.00  0.00    -0.467 OA
ATOM     29  C   UNL     1       9.255   1.418  -3.633  0.00  0.00    +0.280 C 
ENDBRANCH  21   2
ENDBRANCH  16  21
ENDBRANCH  11  15
BRANCH  12   8
ATOM      5  O   UNL     1      17.250   4.701  -2.409  0.00  0.00    -0.253 OA
ATOM      8  N   UNL     1      16.655   5.053  -0.193  0.00  0.00    -0.294 N 
ATOM     10  N   UNL     1      18.344   6.299  -1.132  0.00  0.00    -0.297 N 
ATOM     23  C   UNL     1      17.402   5.295  -1.343  0.00  0.00    +0.300 C 
ATOM     32  H   UNL     1      16.908   5.550   0.656  0.00  0.00    +0.151 HD
ATOM     33  H   UNL     1      18.340   6.784  -0.240  0.00  0.00    +0.150 HD
BRANCH  10  25
ATOM     25  C   UNL     1      19.251   6.750  -2.161  0.00  0.00    +0.068 C 
ATOM     30  C   UNL     1      20.670   6.836  -1.614  0.00  0.00    +0.027 C 
ATOM     31  C   UNL     1      18.795   8.087  -2.729  0.00  0.00    +0.027 C 
ENDBRANCH  10  25
ENDBRANCH  12   8
BRANCH  20  22
ATOM      9  N   UNL     1      11.446   5.669   3.116  0.00  0.00    -0.346 N 
ATOM     22  C   UNL     1      12.241   6.400   2.276  0.00  0.00    +0.104 A 
ATOM     24  C   UNL     1      12.595   7.559   2.925  0.00  0.00    +0.032 A 
ATOM     26  C   UNL     1      11.285   6.345   4.297  0.00  0.00    +0.086 A 
ATOM     27  C   UNL     1      11.989   7.526   4.206  0.00  0.00    +0.020 A 
ATOM     28  C   UNL     1      10.858   4.380   2.821  0.00  0.00    +0.149 C 
ENDBRANCH  20  22
TORSDOF 6
ENDMDL
MODEL 10
REMARK VINA RESULT:      -5.2     26.524     29.992
REMARK  Name = 11865808
REMARK  10 active torsions:
REMARK  status: ('A' for Active; 'I' for Inactive)
REMARK    1  A    between atoms: O_2  and  C_21
REMARK    2  A    between atoms: O_2  and  C_29
REMARK    3  A    between atoms: N_8  and  C_12
REMARK    4  A    between atoms: N_9  and  C_28
REMARK    5  A    between atoms: N_10  and  C_25
REMARK    6  A    between atoms: C_11  and  C_15
REMARK    7  A    between atoms: C_16  and  C_21
REMARK    8  A    between atoms: C_20  and  C_22
REMARK    9  A    between atoms: C_25  and  C_30
REMARK   10  A    between atoms: C_25  and  C_31
REMARK                            x       y       z     vdW  Elec       q    Type
REMARK                         _______ _______ _______ _____ _____    ______ ____
ROOT
ATOM      3  O   UNL     1       8.263   7.999   7.368  0.00  0.00    -0.268 OA
ATOM      6  N   UNL     1      10.546   8.112   7.060  0.00  0.00    -0.283 N 
ATOM     11  C   UNL     1      10.577   9.542   6.763  0.00  0.00    +0.183 C 
ATOM     12  C   UNL     1      12.053   9.930   6.842  0.00  0.00    +0.105 C 
ATOM     13  C   UNL     1      12.780   8.635   6.471  0.00  0.00    +0.043 C 
ATOM     14  C   UNL     1      11.895   7.545   7.061  0.00  0.00    +0.111 C 
ATOM     20  C   UNL     1       9.364   7.447   7.395  0.00  0.00    +0.264 C 
ENDROOT
BRANCH  11  15
ATOM      1  O   UNL     1      10.363   8.915   4.476  0.00  0.00    -0.273 OA
ATOM      7  N   UNL     1       9.184  10.779   5.175  0.00  0.00    -0.286 N 
ATOM     15  C   UNL     1      10.042   9.707   5.364  0.00  0.00    +0.239 C 
ATOM     16  C   UNL     1       8.705  11.176   3.857  0.00  0.00    +0.185 C 
ATOM     17  C   UNL     1       8.776  11.741   6.195  0.00  0.00    +0.109 C 
ATOM     18  C   UNL     1       8.205  12.604   4.041  0.00  0.00    +0.035 C 
ATOM     19  C   UNL     1       7.764  12.641   5.502  0.00  0.00    +0.021 C 
BRANCH  16  21
ATOM      4  O   UNL     1       6.903   9.644   4.304  0.00  0.00    -0.249 OA
ATOM     21  C   UNL     1       7.593  10.240   3.489  0.00  0.00    +0.328 C 
BRANCH  21   2
ATOM      2  O   UNL     1       7.486  10.170   2.132  0.00  0.00    -0.467 OA
ATOM     29  C   UNL     1       8.545   9.474   1.467  0.00  0.00    +0.280 C 
ENDBRANCH  21   2
ENDBRANCH  16  21
ENDBRANCH  11  15
BRANCH  12   8
ATOM      5  O   UNL     1      11.944  12.618   7.887  0.00  0.00    -0.253 OA
ATOM      8  N   UNL     1      12.411  10.362   8.173  0.00  0.00    -0.294 N 
ATOM     10  N   UNL     1      12.731  11.822   9.920  0.00  0.00    -0.297 N 
ATOM     23  C   UNL     1      12.327  11.687   8.594  0.00  0.00    +0.300 C 
ATOM     32  H   UNL     1      12.807   9.680   8.813  0.00  0.00    +0.151 HD
ATOM     33  H   UNL     1      12.956  10.983  10.444  0.00  0.00    +0.150 HD
BRANCH  10  25
ATOM     25  C   UNL     1      12.742  13.092  10.608  0.00  0.00    +0.068 C 
ATOM     30  C   UNL     1      14.169  13.488  10.964  0.00  0.00    +0.027 C 
ATOM     31  C   UNL     1      11.859  13.035  11.848  0.00  0.00    +0.027 C 
ENDBRANCH  10  25
ENDBRANCH  12   8
BRANCH  20  22
ATOM      9  N   UNL     1       9.601   5.016   6.855  0.00  0.00    -0.346 N 
ATOM     22  C   UNL     1       9.489   6.040   7.756  0.00  0.00    +0.104 A 
ATOM     24  C   UNL     1       9.516   5.500   9.020  0.00  0.00    +0.032 A 
ATOM     26  C   UNL     1       9.700   3.825   7.526  0.00  0.00    +0.086 A 
ATOM     27  C   UNL     1       9.649   4.097   8.876  0.00  0.00    +0.020 A 
ATOM     28  C   UNL     1       9.614   5.149   5.414  0.00  0.00    +0.149 C 
ENDBRANCH  20  22
TORSDOF 6
ENDMDL
