MODEL 1
REMARK VINA RESULT:      -7.8      0.000      0.000
REMARK  Name = 9423851
REMARK  4 active torsions:
REMARK  status: ('A' for Active; 'I' for Inactive)
REMARK    1  A    between atoms: N_9  and  C_22
REMARK    2  A    between atoms: C_11  and  C_15
REMARK    3  A    between atoms: C_12  and  C_21
REMARK    4  A    between atoms: C_24  and  C_28
REMARK                            x       y       z     vdW  Elec       q    Type
REMARK                         _______ _______ _______ _____ _____    ______ ____
ROOT
ATOM      2  O   UNL     1      14.530  10.792  24.596  0.00  0.00    -0.275 OA
ATOM      4  O   UNL     1      13.898   6.818  19.060  0.00  0.00    -0.270 OA
ATOM      6  N   UNL     1      13.831  10.406  22.409  0.00  0.00    -0.287 N 
ATOM      7  N   UNL     1      13.079   8.568  20.374  0.00  0.00    -0.294 N 
ATOM     12  C   UNL     1      14.459   9.077  22.362  0.00  0.00    +0.179 C 
ATOM     13  C   UNL     1      13.615   8.036  21.626  0.00  0.00    +0.140 C 
ATOM     14  C   UNL     1      13.203  10.884  21.164  0.00  0.00    +0.127 C 
ATOM     15  C   UNL     1      14.005  11.193  23.554  0.00  0.00    +0.219 C 
ATOM     18  C   UNL     1      12.326   9.814  20.529  0.00  0.00    +0.127 C 
ATOM     24  C   UNL     1      13.263   7.864  19.183  0.00  0.00    +0.247 C 
ENDROOT
BRANCH  24  28
ATOM      1  F   UNL     1      13.627  10.440  15.092  0.00  0.00    -0.205 F 
ATOM     28  C   UNL     1      12.670   8.412  17.957  0.00  0.00    +0.040 A 
ATOM     29  C   UNL     1      13.446   9.181  17.090  0.00  0.00    +0.051 A 
ATOM     30  C   UNL     1      11.330   8.164  17.660  0.00  0.00    +0.013 A 
ATOM     31  C   UNL     1      12.883   9.702  15.925  0.00  0.00    +0.124 A 
ATOM     32  C   UNL     1      10.767   8.685  16.494  0.00  0.00    +0.004 A 
ATOM     33  C   UNL     1      11.543   9.454  15.627  0.00  0.00    +0.038 A 
ENDBRANCH  24  28
BRANCH  15  11
ATOM      8  N   UNL     1      12.228  13.380  26.003  0.00  0.00    -0.316 NA
ATOM     11  C   UNL     1      13.509  12.610  23.480  0.00  0.00    +0.078 C 
ATOM     16  C   UNL     1      11.989  12.664  23.648  0.00  0.00    +0.028 C 
ATOM     17  C   UNL     1      14.207  13.486  24.522  0.00  0.00    +0.028 C 
ATOM     19  C   UNL     1      11.557  12.447  25.098  0.00  0.00    +0.081 C 
ATOM     20  C   UNL     1      13.682  13.234  25.936  0.00  0.00    +0.081 C 
ATOM     34  H   UNL     1      11.915  13.208  26.958  0.00  0.00    +0.122 HD
ENDBRANCH  15  11
BRANCH  12  21
ATOM      3  O   UNL     1      16.197  10.370  21.354  0.00  0.00    -0.274 OA
ATOM      9  N   UNL     1      16.477   8.068  21.553  0.00  0.00    -0.302 N 
ATOM     21  C   UNL     1      15.799   9.264  21.710  0.00  0.00    +0.236 C 
ATOM     35  H   UNL     1      16.086   7.219  21.954  0.00  0.00    +0.150 HD
BRANCH   9  22
ATOM      5  O   UNL     1      16.845   6.180  19.612  0.00  0.00    -0.274 OA
ATOM     10  N   UNL     1      19.085   6.080  20.050  0.00  0.00    -0.314 N 
ATOM     22  C   UNL     1      17.774   7.972  20.935  0.00  0.00    +0.159 C 
ATOM     23  C   UNL     1      18.880   8.155  21.965  0.00  0.00    +0.033 C 
ATOM     25  C   UNL     1      20.228   7.875  21.320  0.00  0.00    +0.021 C 
ATOM     26  C   UNL     1      17.835   6.652  20.174  0.00  0.00    +0.233 C 
ATOM     27  C   UNL     1      20.254   6.440  20.829  0.00  0.00    +0.104 C 
ATOM     36  H   UNL     1      19.147   5.231  19.496  0.00  0.00    +0.149 HD
ENDBRANCH   9  22
ENDBRANCH  12  21
TORSDOF 4
ENDMDL
MODEL 2
REMARK VINA RESULT:      -7.3     28.308     29.857
REMARK  Name = 9423851
REMARK  4 active torsions:
REMARK  status: ('A' for Active; 'I' for Inactive)
REMARK    1  A    between atoms: N_9  and  C_22
REMARK    2  A    between atoms: C_11  and  C_15
REMARK    3  A    between atoms: C_12  and  C_21
REMARK    4  A    between atoms: C_24  and  C_28
REMARK                            x       y       z     vdW  Elec       q    Type
REMARK                         _______ _______ _______ _____ _____    ______ ____
ROOT
ATOM      2  O   UNL     1      -7.423 -12.856  17.233  0.00  0.00    -0.275 OA
ATOM      4  O   UNL     1      -4.499 -13.505  11.079  0.00  0.00    -0.270 OA
ATOM      6  N   UNL     1      -6.520 -11.967  15.280  0.00  0.00    -0.287 N 
ATOM      7  N   UNL     1      -5.858 -12.280  12.532  0.00  0.00    -0.294 N 
ATOM     12  C   UNL     1      -6.114 -13.288  14.776  0.00  0.00    +0.179 C 
ATOM     13  C   UNL     1      -6.327 -13.451  13.271  0.00  0.00    +0.140 C 
ATOM     14  C   UNL     1      -6.128 -10.802  14.468  0.00  0.00    +0.127 C 
ATOM     15  C   UNL     1      -7.094 -11.880  16.554  0.00  0.00    +0.219 C 
ATOM     18  C   UNL     1      -6.435 -11.015  12.992  0.00  0.00    +0.127 C 
ATOM     24  C   UNL     1      -4.981 -12.438  11.459  0.00  0.00    +0.247 C 
ENDROOT
BRANCH  24  28
ATOM      1  F   UNL     1      -1.834  -8.843  10.637  0.00  0.00    -0.205 F 
ATOM     28  C   UNL     1      -4.570 -11.239  10.718  0.00  0.00    +0.040 A 
ATOM     29  C   UNL     1      -3.374 -10.598  11.037  0.00  0.00    +0.051 A 
ATOM     30  C   UNL     1      -5.378 -10.742   9.696  0.00  0.00    +0.013 A 
ATOM     31  C   UNL     1      -2.983  -9.459  10.333  0.00  0.00    +0.124 A 
ATOM     32  C   UNL     1      -4.987  -9.602   8.991  0.00  0.00    +0.004 A 
ATOM     33  C   UNL     1      -3.791  -8.961   9.310  0.00  0.00    +0.038 A 
ENDBRANCH  24  28
BRANCH  15  11
ATOM      8  N   UNL     1      -7.315 -10.543  20.033  0.00  0.00    -0.316 NA
ATOM     11  C   UNL     1      -7.315 -10.498  17.101  0.00  0.00    +0.078 C 
ATOM     16  C   UNL     1      -8.603 -10.437  17.925  0.00  0.00    +0.028 C 
ATOM     17  C   UNL     1      -6.113 -10.042  17.930  0.00  0.00    +0.028 C 
ATOM     19  C   UNL     1      -8.448 -11.099  19.294  0.00  0.00    +0.081 C 
ATOM     20  C   UNL     1      -6.062 -10.721  19.300  0.00  0.00    +0.081 C 
ATOM     34  H   UNL     1      -7.243 -11.005  20.940  0.00  0.00    +0.122 HD
ENDBRANCH  15  11
BRANCH  12  21
ATOM      3  O   UNL     1      -4.156 -12.811  16.059  0.00  0.00    -0.274 OA
ATOM      9  N   UNL     1      -4.028 -14.391  14.354  0.00  0.00    -0.302 N 
ATOM     21  C   UNL     1      -4.670 -13.460  15.152  0.00  0.00    +0.236 C 
ATOM     35  H   UNL     1      -4.570 -14.926  13.680  0.00  0.00    +0.150 HD
BRANCH   9  22
ATOM      5  O   UNL     1      -2.178 -12.652  13.342  0.00  0.00    -0.274 OA
ATOM     10  N   UNL     1      -0.655 -14.333  13.076  0.00  0.00    -0.314 N 
ATOM     22  C   UNL     1      -2.634 -14.722  14.495  0.00  0.00    +0.159 C 
ATOM     23  C   UNL     1      -2.406 -16.210  14.270  0.00  0.00    +0.033 C 
ATOM     25  C   UNL     1      -0.913 -16.500  14.251  0.00  0.00    +0.021 C 
ATOM     26  C   UNL     1      -1.839 -13.816  13.563  0.00  0.00    +0.233 C 
ATOM     27  C   UNL     1      -0.274 -15.733  13.109  0.00  0.00    +0.104 C 
ATOM     36  H   UNL     1      -0.089 -13.718  12.500  0.00  0.00    +0.149 HD
ENDBRANCH   9  22
ENDBRANCH  12  21
TORSDOF 4
ENDMDL
MODEL 3
REMARK VINA RESULT:      -7.2     27.838     29.894
REMARK  Name = 9423851
REMARK  4 active torsions:
REMARK  status: ('A' for Active; 'I' for Inactive)
REMARK    1  A    between atoms: N_9  and  C_22
REMARK    2  A    between atoms: C_11  and  C_15
REMARK    3  A    between atoms: C_12  and  C_21
REMARK    4  A    between atoms: C_24  and  C_28
REMARK                            x       y       z     vdW  Elec       q    Type
REMARK                         _______ _______ _______ _____ _____    ______ ____
ROOT
ATOM      2  O   UNL     1      -2.605 -10.364  11.845  0.00  0.00    -0.275 OA
ATOM      4  O   UNL     1      -3.413 -12.140  18.405  0.00  0.00    -0.270 OA
ATOM      6  N   UNL     1      -3.916 -10.704  13.737  0.00  0.00    -0.287 N 
ATOM      7  N   UNL     1      -4.120 -10.880  16.568  0.00  0.00    -0.294 N 
ATOM     12  C   UNL     1      -2.790 -11.241  14.516  0.00  0.00    +0.179 C 
ATOM     13  C   UNL     1      -2.789 -10.781  15.973  0.00  0.00    +0.140 C 
ATOM     14  C   UNL     1      -5.237 -10.717  14.393  0.00  0.00    +0.127 C 
ATOM     15  C   UNL     1      -3.710 -10.375  12.392  0.00  0.00    +0.219 C 
ATOM     18  C   UNL     1      -5.164 -10.181  15.816  0.00  0.00    +0.127 C 
ATOM     24  C   UNL     1      -4.294 -11.553  17.778  0.00  0.00    +0.247 C 
ENDROOT
BRANCH  24  28
ATOM      1  F   UNL     1      -8.499 -13.832  18.574  0.00  0.00    -0.205 F 
ATOM     28  C   UNL     1      -5.641 -11.591  18.362  0.00  0.00    +0.040 A 
ATOM     29  C   UNL     1      -6.446 -12.716  18.187  0.00  0.00    +0.051 A 
ATOM     30  C   UNL     1      -6.115 -10.501  19.091  0.00  0.00    +0.013 A 
ATOM     31  C   UNL     1      -7.726 -12.752  18.741  0.00  0.00    +0.124 A 
ATOM     32  C   UNL     1      -7.395 -10.537  19.646  0.00  0.00    +0.004 A 
ATOM     33  C   UNL     1      -8.200 -11.662  19.470  0.00  0.00    +0.038 A 
ENDBRANCH  24  28
BRANCH  15  11
ATOM      8  N   UNL     1      -4.364 -10.201   8.720  0.00  0.00    -0.316 NA
ATOM     11  C   UNL     1      -4.929 -10.014  11.592  0.00  0.00    +0.078 C 
ATOM     16  C   UNL     1      -4.665  -8.782  10.723  0.00  0.00    +0.028 C 
ATOM     17  C   UNL     1      -5.391 -11.196  10.739  0.00  0.00    +0.028 C 
ATOM     19  C   UNL     1      -3.798  -9.105   9.507  0.00  0.00    +0.081 C 
ATOM     20  C   UNL     1      -4.493 -11.419   9.521  0.00  0.00    +0.081 C 
ATOM     34  H   UNL     1      -3.762 -10.387   7.918  0.00  0.00    +0.122 HD
ENDBRANCH  15  11
BRANCH  12  21
ATOM      3  O   UNL     1      -3.612 -13.398  15.134  0.00  0.00    -0.274 OA
ATOM      9  N   UNL     1      -2.026 -13.241  13.438  0.00  0.00    -0.302 N 
ATOM     21  C   UNL     1      -2.875 -12.737  14.408  0.00  0.00    +0.236 C 
ATOM     35  H   UNL     1      -1.515 -12.596  12.841  0.00  0.00    +0.150 HD
BRANCH   9  22
ATOM      5  O   UNL     1       0.444 -14.389  13.655  0.00  0.00    -0.274 OA
ATOM     10  N   UNL     1      -0.112 -16.012  12.147  0.00  0.00    -0.314 N 
ATOM     22  C   UNL     1      -1.902 -14.647  13.152  0.00  0.00    +0.159 C 
ATOM     23  C   UNL     1      -2.762 -15.035  11.957  0.00  0.00    +0.033 C 
ATOM     25  C   UNL     1      -2.477 -16.478  11.572  0.00  0.00    +0.021 C 
ATOM     26  C   UNL     1      -0.420 -14.964  12.990  0.00  0.00    +0.233 C 
ATOM     27  C   UNL     1      -1.017 -16.608  11.182  0.00  0.00    +0.104 C 
ATOM     36  H   UNL     1       0.868 -16.270  12.076  0.00  0.00    +0.149 HD
ENDBRANCH   9  22
ENDBRANCH  12  21
TORSDOF 4
ENDMDL
MODEL 4
REMARK VINA RESULT:      -6.9     15.280     19.654
REMARK  Name = 9423851
REMARK  4 active torsions:
REMARK  status: ('A' for Active; 'I' for Inactive)
REMARK    1  A    between atoms: N_9  and  C_22
REMARK    2  A    between atoms: C_11  and  C_15
REMARK    3  A    between atoms: C_12  and  C_21
REMARK    4  A    between atoms: C_24  and  C_28
REMARK                            x       y       z     vdW  Elec       q    Type
REMARK                         _______ _______ _______ _____ _____    ______ ____
ROOT
ATOM      2  O   UNL     1      11.600   6.973   6.068  0.00  0.00    -0.275 OA
ATOM      4  O   UNL     1      13.761   6.192  -0.379  0.00  0.00    -0.270 OA
ATOM      6  N   UNL     1      11.482   5.985   3.964  0.00  0.00    -0.287 N 
ATOM      7  N   UNL     1      12.757   5.278   1.523  0.00  0.00    -0.294 N 
ATOM     12  C   UNL     1      12.527   6.858   3.410  0.00  0.00    +0.179 C 
ATOM     13  C   UNL     1      13.481   6.132   2.461  0.00  0.00    +0.140 C 
ATOM     14  C   UNL     1      10.832   5.054   3.023  0.00  0.00    +0.127 C 
ATOM     15  C   UNL     1      11.055   6.196   5.281  0.00  0.00    +0.219 C 
ATOM     18  C   UNL     1      11.852   4.320   2.162  0.00  0.00    +0.127 C 
ATOM     24  C   UNL     1      13.000   5.385   0.153  0.00  0.00    +0.247 C 
ENDROOT
BRANCH  24  28
ATOM      1  F   UNL     1       9.267   4.416  -2.785  0.00  0.00    -0.205 F 
ATOM     28  C   UNL     1      12.282   4.476  -0.751  0.00  0.00    +0.040 A 
ATOM     29  C   UNL     1      11.091   4.886  -1.350  0.00  0.00    +0.051 A 
ATOM     30  C   UNL     1      12.792   3.205  -1.009  0.00  0.00    +0.013 A 
ATOM     31  C   UNL     1      10.410   4.023  -2.209  0.00  0.00    +0.124 A 
ATOM     32  C   UNL     1      12.110   2.341  -1.868  0.00  0.00    +0.004 A 
ATOM     33  C   UNL     1      10.919   2.751  -2.467  0.00  0.00    +0.038 A 
ENDBRANCH  24  28
BRANCH  15  11
ATOM      8  N   UNL     1       8.315   6.937   7.706  0.00  0.00    -0.316 NA
ATOM     11  C   UNL     1       9.859   5.408   5.736  0.00  0.00    +0.078 C 
ATOM     16  C   UNL     1       9.933   5.126   7.239  0.00  0.00    +0.028 C 
ATOM     17  C   UNL     1       8.561   6.134   5.379  0.00  0.00    +0.028 C 
ATOM     19  C   UNL     1       9.607   6.361   8.078  0.00  0.00    +0.081 C 
ATOM     20  C   UNL     1       8.293   7.328   6.297  0.00  0.00    +0.081 C 
ATOM     34  H   UNL     1       8.130   7.756   8.286  0.00  0.00    +0.122 HD
ENDBRANCH  15  11
BRANCH  12  21
ATOM      3  O   UNL     1      12.322   8.595   1.782  0.00  0.00    -0.274 OA
ATOM      9  N   UNL     1      10.579   8.248   3.285  0.00  0.00    -0.302 N 
ATOM     21  C   UNL     1      11.816   7.987   2.722  0.00  0.00    +0.236 C 
ATOM     35  H   UNL     1      10.224   7.633   4.012  0.00  0.00    +0.150 HD
BRANCH   9  22
ATOM      5  O   UNL     1      10.131  10.377   4.939  0.00  0.00    -0.274 OA
ATOM     10  N   UNL     1       8.106  10.785   3.964  0.00  0.00    -0.314 N 
ATOM     22  C   UNL     1       9.708   9.297   2.823  0.00  0.00    +0.159 C 
ATOM     23  C   UNL     1       8.516   8.720   2.072  0.00  0.00    +0.033 C 
ATOM     25  C   UNL     1       7.529   9.832   1.751  0.00  0.00    +0.021 C 
ATOM     26  C   UNL     1       9.336  10.162   4.022  0.00  0.00    +0.233 C 
ATOM     27  C   UNL     1       7.035  10.445   3.047  0.00  0.00    +0.104 C 
ATOM     36  H   UNL     1       7.873  11.410   4.731  0.00  0.00    +0.149 HD
ENDBRANCH   9  22
ENDBRANCH  12  21
TORSDOF 4
ENDMDL
MODEL 5
REMARK VINA RESULT:      -6.6     15.618     18.666
REMARK  Name = 9423851
REMARK  4 active torsions:
REMARK  status: ('A' for Active; 'I' for Inactive)
REMARK    1  A    between atoms: N_9  and  C_22
REMARK    2  A    between atoms: C_11  and  C_15
REMARK    3  A    between atoms: C_12  and  C_21
REMARK    4  A    between atoms: C_24  and  C_28
REMARK                            x       y       z     vdW  Elec       q    Type
REMARK                         _______ _______ _______ _____ _____    ______ ____
ROOT
ATOM      2  O   UNL     1      16.518 -10.309  27.588  0.00  0.00    -0.275 OA
ATOM      4  O   UNL     1      17.695  -3.573  27.298  0.00  0.00    -0.270 OA
ATOM      6  N   UNL     1      16.733  -8.307  26.421  0.00  0.00    -0.287 N 
ATOM      7  N   UNL     1      17.786  -5.669  26.270  0.00  0.00    -0.294 N 
ATOM     12  C   UNL     1      16.901  -7.518  27.651  0.00  0.00    +0.179 C 
ATOM     13  C   UNL     1      17.943  -6.408  27.521  0.00  0.00    +0.140 C 
ATOM     14  C   UNL     1      16.680  -7.552  25.156  0.00  0.00    +0.127 C 
ATOM     15  C   UNL     1      16.472  -9.678  26.529  0.00  0.00    +0.219 C 
ATOM     18  C   UNL     1      17.791  -6.513  25.073  0.00  0.00    +0.127 C 
ATOM     24  C   UNL     1      17.699  -4.277  26.289  0.00  0.00    +0.247 C 
ENDROOT
BRANCH  24  28
ATOM      1  F   UNL     1      15.031  -2.589  22.610  0.00  0.00    -0.205 F 
ATOM     28  C   UNL     1      17.586  -3.572  25.006  0.00  0.00    +0.040 A 
ATOM     29  C   UNL     1      16.338  -3.413  24.405  0.00  0.00    +0.051 A 
ATOM     30  C   UNL     1      18.728  -3.063  24.388  0.00  0.00    +0.013 A 
ATOM     31  C   UNL     1      16.229  -2.743  23.186  0.00  0.00    +0.124 A 
ATOM     32  C   UNL     1      18.620  -2.393  23.168  0.00  0.00    +0.004 A 
ATOM     33  C   UNL     1      17.371  -2.234  22.567  0.00  0.00    +0.038 A 
ENDBRANCH  24  28
BRANCH  15  11
ATOM      8  N   UNL     1      14.462 -12.748  25.839  0.00  0.00    -0.316 NA
ATOM     11  C   UNL     1      16.121 -10.399  25.259  0.00  0.00    +0.078 C 
ATOM     16  C   UNL     1      16.683 -11.822  25.267  0.00  0.00    +0.028 C 
ATOM     17  C   UNL     1      14.607 -10.411  25.040  0.00  0.00    +0.028 C 
ATOM     19  C   UNL     1      15.886 -12.757  26.176  0.00  0.00    +0.081 C 
ATOM     20  C   UNL     1      13.895 -11.405  25.960  0.00  0.00    +0.081 C 
ATOM     34  H   UNL     1      13.963 -13.382  26.463  0.00  0.00    +0.122 HD
ENDBRANCH  15  11
BRANCH  12  21
ATOM      3  O   UNL     1      14.687  -6.786  27.131  0.00  0.00    -0.274 OA
ATOM      9  N   UNL     1      15.417  -6.684  29.338  0.00  0.00    -0.302 N 
ATOM     21  C   UNL     1      15.546  -6.968  27.990  0.00  0.00    +0.236 C 
ATOM     35  H   UNL     1      16.166  -6.944  29.975  0.00  0.00    +0.150 HD
BRANCH   9  22
ATOM      5  O   UNL     1      15.636  -4.360  30.761  0.00  0.00    -0.274 OA
ATOM     10  N   UNL     1      13.781  -4.870  31.992  0.00  0.00    -0.314 N 
ATOM     22  C   UNL     1      14.223  -6.125  29.916  0.00  0.00    +0.159 C 
ATOM     23  C   UNL     1      13.331  -7.221  30.482  0.00  0.00    +0.033 C 
ATOM     25  C   UNL     1      12.169  -6.594  31.237  0.00  0.00    +0.021 C 
ATOM     26  C   UNL     1      14.642  -5.069  30.932  0.00  0.00    +0.233 C 
ATOM     27  C   UNL     1      12.714  -5.770  32.388  0.00  0.00    +0.104 C 
ATOM     36  H   UNL     1      14.021  -4.129  32.644  0.00  0.00    +0.149 HD
ENDBRANCH   9  22
ENDBRANCH  12  21
TORSDOF 4
ENDMDL
MODEL 6
REMARK VINA RESULT:      -6.6     26.592     29.623
REMARK  Name = 9423851
REMARK  4 active torsions:
REMARK  status: ('A' for Active; 'I' for Inactive)
REMARK    1  A    between atoms: N_9  and  C_22
REMARK    2  A    between atoms: C_11  and  C_15
REMARK    3  A    between atoms: C_12  and  C_21
REMARK    4  A    between atoms: C_24  and  C_28
REMARK                            x       y       z     vdW  Elec       q    Type
REMARK                         _______ _______ _______ _____ _____    ______ ____
ROOT
ATOM      2  O   UNL     1     -13.178   9.328  18.527  0.00  0.00    -0.275 OA
ATOM      4  O   UNL     1     -18.311   6.662  22.186  0.00  0.00    -0.270 OA
ATOM      6  N   UNL     1     -14.040   7.785  20.042  0.00  0.00    -0.287 N 
ATOM      7  N   UNL     1     -16.277   6.365  21.076  0.00  0.00    -0.294 N 
ATOM     12  C   UNL     1     -15.364   8.425  20.059  0.00  0.00    +0.179 C 
ATOM     13  C   UNL     1     -16.519   7.425  20.100  0.00  0.00    +0.140 C 
ATOM     14  C   UNL     1     -13.845   6.649  20.961  0.00  0.00    +0.127 C 
ATOM     15  C   UNL     1     -13.014   8.378  19.297  0.00  0.00    +0.219 C 
ATOM     18  C   UNL     1     -15.004   5.664  20.893  0.00  0.00    +0.127 C 
ATOM     24  C   UNL     1     -17.244   6.068  22.037  0.00  0.00    +0.247 C 
ENDROOT
BRANCH  24  28
ATOM      1  F   UNL     1     -17.577   1.391  23.266  0.00  0.00    -0.205 F 
ATOM     28  C   UNL     1     -16.978   4.967  22.970  0.00  0.00    +0.040 A 
ATOM     29  C   UNL     1     -17.413   3.677  22.669  0.00  0.00    +0.051 A 
ATOM     30  C   UNL     1     -16.289   5.211  24.158  0.00  0.00    +0.013 A 
ATOM     31  C   UNL     1     -17.160   2.629  23.555  0.00  0.00    +0.124 A 
ATOM     32  C   UNL     1     -16.036   4.164  25.045  0.00  0.00    +0.004 A 
ATOM     33  C   UNL     1     -16.472   2.874  24.744  0.00  0.00    +0.038 A 
ENDBRANCH  24  28
BRANCH  15  11
ATOM      8  N   UNL     1      -9.716   9.210  17.755  0.00  0.00    -0.316 NA
ATOM     11  C   UNL     1     -11.638   7.797  19.463  0.00  0.00    +0.078 C 
ATOM     16  C   UNL     1     -11.129   7.216  18.142  0.00  0.00    +0.028 C 
ATOM     17  C   UNL     1     -10.667   8.845  20.010  0.00  0.00    +0.028 C 
ATOM     19  C   UNL     1     -10.697   8.304  17.158  0.00  0.00    +0.081 C 
ATOM     20  C   UNL     1     -10.255   9.865  18.947  0.00  0.00    +0.081 C 
ATOM     34  H   UNL     1      -9.451   9.919  17.072  0.00  0.00    +0.122 HD
ENDBRANCH  15  11
BRANCH  12  21
ATOM      3  O   UNL     1     -16.427   9.681  21.791  0.00  0.00    -0.274 OA
ATOM      9  N   UNL     1     -14.106   9.732  21.626  0.00  0.00    -0.302 N 
ATOM     21  C   UNL     1     -15.379   9.336  21.253  0.00  0.00    +0.236 C 
ATOM     35  H   UNL     1     -13.302   9.325  21.157  0.00  0.00    +0.150 HD
BRANCH   9  22
ATOM      5  O   UNL     1     -12.277  11.730  21.268  0.00  0.00    -0.274 OA
ATOM     10  N   UNL     1     -11.828  11.801  23.507  0.00  0.00    -0.314 N 
ATOM     22  C   UNL     1     -13.849  10.623  22.727  0.00  0.00    +0.159 C 
ATOM     23  C   UNL     1     -13.819   9.863  24.045  0.00  0.00    +0.033 C 
ATOM     25  C   UNL     1     -13.374  10.794  25.161  0.00  0.00    +0.021 C 
ATOM     26  C   UNL     1     -12.572  11.396  22.418  0.00  0.00    +0.233 C 
ATOM     27  C   UNL     1     -11.975  11.296  24.859  0.00  0.00    +0.104 C 
ATOM     36  H   UNL     1     -11.005  12.366  23.316  0.00  0.00    +0.149 HD
ENDBRANCH   9  22
ENDBRANCH  12  21
TORSDOF 4
ENDMDL
MODEL 7
REMARK VINA RESULT:      -6.5     15.433     19.579
REMARK  Name = 9423851
REMARK  4 active torsions:
REMARK  status: ('A' for Active; 'I' for Inactive)
REMARK    1  A    between atoms: N_9  and  C_22
REMARK    2  A    between atoms: C_11  and  C_15
REMARK    3  A    between atoms: C_12  and  C_21
REMARK    4  A    between atoms: C_24  and  C_28
REMARK                            x       y       z     vdW  Elec       q    Type
REMARK                         _______ _______ _______ _____ _____    ______ ____
ROOT
ATOM      2  O   UNL     1       9.092   7.320   4.198  0.00  0.00    -0.275 OA
ATOM      4  O   UNL     1      13.264   2.753   1.267  0.00  0.00    -0.270 OA
ATOM      6  N   UNL     1      10.136   6.382   2.341  0.00  0.00    -0.287 N 
ATOM      7  N   UNL     1      11.392   4.144   1.116  0.00  0.00    -0.294 N 
ATOM     12  C   UNL     1      10.933   5.456   3.160  0.00  0.00    +0.179 C 
ATOM     13  C   UNL     1      11.072   4.066   2.540  0.00  0.00    +0.140 C 
ATOM     14  C   UNL     1      10.400   6.373   0.891  0.00  0.00    +0.127 C 
ATOM     15  C   UNL     1       9.313   7.314   2.984  0.00  0.00    +0.219 C 
ATOM     18  C   UNL     1      10.455   4.956   0.337  0.00  0.00    +0.127 C 
ATOM     24  C   UNL     1      12.480   3.434   0.607  0.00  0.00    +0.247 C 
ENDROOT
BRANCH  24  28
ATOM      1  F   UNL     1      14.671   5.481  -3.203  0.00  0.00    -0.205 F 
ATOM     28  C   UNL     1      12.739   3.505  -0.837  0.00  0.00    +0.040 A 
ATOM     29  C   UNL     1      13.599   4.479  -1.344  0.00  0.00    +0.051 A 
ATOM     30  C   UNL     1      12.124   2.599  -1.700  0.00  0.00    +0.013 A 
ATOM     31  C   UNL     1      13.845   4.547  -2.715  0.00  0.00    +0.124 A 
ATOM     32  C   UNL     1      12.371   2.667  -3.072  0.00  0.00    +0.004 A 
ATOM     33  C   UNL     1      13.230   3.641  -3.579  0.00  0.00    +0.038 A 
ENDBRANCH  24  28
BRANCH  15  11
ATOM      8  N   UNL     1       8.601  10.943   3.499  0.00  0.00    -0.316 NA
ATOM     11  C   UNL     1       8.669   8.357   2.116  0.00  0.00    +0.078 C 
ATOM     16  C   UNL     1       7.401   8.906   2.772  0.00  0.00    +0.028 C 
ATOM     17  C   UNL     1       9.653   9.485   1.800  0.00  0.00    +0.028 C 
ATOM     19  C   UNL     1       7.710   9.863   3.924  0.00  0.00    +0.081 C 
ATOM     20  C   UNL     1       9.869  10.418   2.992  0.00  0.00    +0.081 C 
ATOM     34  H   UNL     1       8.784  11.561   4.290  0.00  0.00    +0.122 HD
ENDBRANCH  15  11
BRANCH  12  21
ATOM      3  O   UNL     1      13.172   6.005   2.530  0.00  0.00    -0.274 OA
ATOM      9  N   UNL     1      12.348   6.792   4.560  0.00  0.00    -0.302 N 
ATOM     21  C   UNL     1      12.271   6.110   3.358  0.00  0.00    +0.236 C 
ATOM     35  H   UNL     1      11.515   6.878   5.137  0.00  0.00    +0.150 HD
BRANCH   9  22
ATOM      5  O   UNL     1      13.120   6.507   7.166  0.00  0.00    -0.274 OA
ATOM     10  N   UNL     1      14.180   8.531   7.135  0.00  0.00    -0.314 N 
ATOM     22  C   UNL     1      13.531   7.485   4.998  0.00  0.00    +0.159 C 
ATOM     23  C   UNL     1      13.601   8.878   4.386  0.00  0.00    +0.033 C 
ATOM     25  C   UNL     1      14.761   9.646   5.000  0.00  0.00    +0.021 C 
ATOM     26  C   UNL     1      13.549   7.467   6.522  0.00  0.00    +0.233 C 
ATOM     27  C   UNL     1      14.529   9.784   6.493  0.00  0.00    +0.104 C 
ATOM     36  H   UNL     1      14.248   8.501   8.148  0.00  0.00    +0.149 HD
ENDBRANCH   9  22
ENDBRANCH  12  21
TORSDOF 4
ENDMDL
MODEL 8
REMARK VINA RESULT:      -6.3     16.458     20.246
REMARK  Name = 9423851
REMARK  4 active torsions:
REMARK  status: ('A' for Active; 'I' for Inactive)
REMARK    1  A    between atoms: N_9  and  C_22
REMARK    2  A    between atoms: C_11  and  C_15
REMARK    3  A    between atoms: C_12  and  C_21
REMARK    4  A    between atoms: C_24  and  C_28
REMARK                            x       y       z     vdW  Elec       q    Type
REMARK                         _______ _______ _______ _____ _____    ______ ____
ROOT
ATOM      2  O   UNL     1      11.717   6.432   4.921  0.00  0.00    -0.275 OA
ATOM      4  O   UNL     1      13.277   3.320  -0.972  0.00  0.00    -0.270 OA
ATOM      6  N   UNL     1      11.191   5.720   2.769  0.00  0.00    -0.287 N 
ATOM      7  N   UNL     1      11.664   3.942   0.600  0.00  0.00    -0.294 N 
ATOM     12  C   UNL     1      12.553   5.228   2.515  0.00  0.00    +0.179 C 
ATOM     13  C   UNL     1      12.586   3.915   1.734  0.00  0.00    +0.140 C 
ATOM     14  C   UNL     1      10.242   5.644   1.643  0.00  0.00    +0.127 C 
ATOM     15  C   UNL     1      10.923   6.370   3.979  0.00  0.00    +0.219 C 
ATOM     18  C   UNL     1      10.286   4.283   0.960  0.00  0.00    +0.127 C 
ATOM     24  C   UNL     1      12.117   3.606  -0.676  0.00  0.00    +0.247 C 
ENDROOT
BRANCH  24  28
ATOM      1  F   UNL     1       8.891   5.897  -3.477  0.00  0.00    -0.205 F 
ATOM     28  C   UNL     1      11.147   3.603  -1.777  0.00  0.00    +0.040 A 
ATOM     29  C   UNL     1      10.467   4.774  -2.110  0.00  0.00    +0.051 A 
ATOM     30  C   UNL     1      10.905   2.430  -2.490  0.00  0.00    +0.013 A 
ATOM     31  C   UNL     1       9.544   4.773  -3.157  0.00  0.00    +0.124 A 
ATOM     32  C   UNL     1       9.982   2.428  -3.537  0.00  0.00    +0.004 A 
ATOM     33  C   UNL     1       9.302   3.599  -3.870  0.00  0.00    +0.038 A 
ENDBRANCH  24  28
BRANCH  15  11
ATOM      8  N   UNL     1       9.065   7.764   6.902  0.00  0.00    -0.316 NA
ATOM     11  C   UNL     1       9.575   7.020   4.111  0.00  0.00    +0.078 C 
ATOM     16  C   UNL     1       8.662   6.201   5.028  0.00  0.00    +0.028 C 
ATOM     17  C   UNL     1       9.710   8.457   4.617  0.00  0.00    +0.028 C 
ATOM     19  C   UNL     1       9.032   6.357   6.503  0.00  0.00    +0.081 C 
ATOM     20  C   UNL     1      10.036   8.519   6.110  0.00  0.00    +0.081 C 
ATOM     34  H   UNL     1       9.312   7.830   7.890  0.00  0.00    +0.122 HD
ENDBRANCH  15  11
BRANCH  12  21
ATOM      3  O   UNL     1      12.667   7.163   1.119  0.00  0.00    -0.274 OA
ATOM      9  N   UNL     1      14.644   6.246   1.937  0.00  0.00    -0.302 N 
ATOM     21  C   UNL     1      13.271   6.325   1.783  0.00  0.00    +0.236 C 
ATOM     35  H   UNL     1      15.035   5.555   2.572  0.00  0.00    +0.150 HD
BRANCH   9  22
ATOM      5  O   UNL     1      16.079   5.383  -0.223  0.00  0.00    -0.274 OA
ATOM     10  N   UNL     1      17.745   6.885   0.209  0.00  0.00    -0.314 N 
ATOM     22  C   UNL     1      15.561   7.168   1.317  0.00  0.00    +0.159 C 
ATOM     23  C   UNL     1      16.289   7.996   2.366  0.00  0.00    +0.033 C 
ATOM     25  C   UNL     1      17.370   8.830   1.697  0.00  0.00    +0.021 C 
ATOM     26  C   UNL     1      16.479   6.370   0.398  0.00  0.00    +0.233 C 
ATOM     27  C   UNL     1      18.369   7.904   1.032  0.00  0.00    +0.104 C 
ATOM     36  H   UNL     1      18.346   6.394  -0.447  0.00  0.00    +0.149 HD
ENDBRANCH   9  22
ENDBRANCH  12  21
TORSDOF 4
ENDMDL
MODEL 9
REMARK VINA RESULT:      -6.3     16.378     20.511
REMARK  Name = 9423851
REMARK  4 active torsions:
REMARK  status: ('A' for Active; 'I' for Inactive)
REMARK    1  A    between atoms: N_9  and  C_22
REMARK    2  A    between atoms: C_11  and  C_15
REMARK    3  A    between atoms: C_12  and  C_21
REMARK    4  A    between atoms: C_24  and  C_28
REMARK                            x       y       z     vdW  Elec       q    Type
REMARK                         _______ _______ _______ _____ _____    ______ ____
ROOT
ATOM      2  O   UNL     1      11.766   6.585   5.538  0.00  0.00    -0.275 OA
ATOM      4  O   UNL     1      13.825   5.547  -0.907  0.00  0.00    -0.270 OA
ATOM      6  N   UNL     1      11.498   5.669   3.415  0.00  0.00    -0.287 N 
ATOM      7  N   UNL     1      12.655   4.791   0.970  0.00  0.00    -0.294 N 
ATOM     12  C   UNL     1      12.686   6.354   2.885  0.00  0.00    +0.179 C 
ATOM     13  C   UNL     1      13.508   5.489   1.930  0.00  0.00    +0.140 C 
ATOM     14  C   UNL     1      10.705   4.885   2.451  0.00  0.00    +0.127 C 
ATOM     15  C   UNL     1      11.101   5.929   4.732  0.00  0.00    +0.219 C 
ATOM     18  C   UNL     1      11.588   3.998   1.584  0.00  0.00    +0.127 C 
ATOM     24  C   UNL     1      12.927   4.878  -0.396  0.00  0.00    +0.247 C 
ENDROOT
BRANCH  24  28
ATOM      1  F   UNL     1       8.987   4.559  -3.203  0.00  0.00    -0.205 F 
ATOM     28  C   UNL     1      12.071   4.126  -1.322  0.00  0.00    +0.040 A 
ATOM     29  C   UNL     1      10.913   4.711  -1.832  0.00  0.00    +0.051 A 
ATOM     30  C   UNL     1      12.416   2.826  -1.690  0.00  0.00    +0.013 A 
ATOM     31  C   UNL     1      10.099   3.998  -2.712  0.00  0.00    +0.124 A 
ATOM     32  C   UNL     1      11.602   2.112  -2.570  0.00  0.00    +0.004 A 
ATOM     33  C   UNL     1      10.444   2.697  -3.081  0.00  0.00    +0.038 A 
ENDBRANCH  24  28
BRANCH  15  11
ATOM      8  N   UNL     1       8.811   6.720   7.573  0.00  0.00    -0.316 NA
ATOM     11  C   UNL     1       9.780   5.357   5.163  0.00  0.00    +0.078 C 
ATOM     16  C   UNL     1       9.885   4.736   6.558  0.00  0.00    +0.028 C 
ATOM     17  C   UNL     1       8.685   6.424   5.120  0.00  0.00    +0.028 C 
ATOM     19  C   UNL     1       9.940   5.793   7.661  0.00  0.00    +0.081 C 
ATOM     20  C   UNL     1       8.790   7.411   6.284  0.00  0.00    +0.081 C 
ATOM     34  H   UNL     1       8.879   7.407   8.323  0.00  0.00    +0.122 HD
ENDBRANCH  15  11
BRANCH  12  21
ATOM      3  O   UNL     1      11.156   8.161   2.564  0.00  0.00    -0.274 OA
ATOM      9  N   UNL     1      13.017   8.002   1.175  0.00  0.00    -0.302 N 
ATOM     21  C   UNL     1      12.192   7.603   2.213  0.00  0.00    +0.236 C 
ATOM     35  H   UNL     1      13.892   7.508   1.019  0.00  0.00    +0.150 HD
BRANCH   9  22
ATOM      5  O   UNL     1      11.119   7.792  -0.779  0.00  0.00    -0.274 OA
ATOM     10  N   UNL     1      12.117   9.438  -2.009  0.00  0.00    -0.314 N 
ATOM     22  C   UNL     1      12.753   9.157   0.357  0.00  0.00    +0.159 C 
ATOM     23  C   UNL     1      14.045   9.886   0.015  0.00  0.00    +0.033 C 
ATOM     25  C   UNL     1      13.756  10.991  -0.987  0.00  0.00    +0.021 C 
ATOM     26  C   UNL     1      11.949   8.700  -0.855  0.00  0.00    +0.233 C 
ATOM     27  C   UNL     1      13.196  10.376  -2.256  0.00  0.00    +0.104 C 
ATOM     36  H   UNL     1      11.544   9.178  -2.806  0.00  0.00    +0.149 HD
ENDBRANCH   9  22
ENDBRANCH  12  21
TORSDOF 4
ENDMDL
MODEL 10
REMARK VINA RESULT:      -6.2     16.962     19.362
REMARK  Name = 9423851
REMARK  4 active torsions:
REMARK  status: ('A' for Active; 'I' for Inactive)
REMARK    1  A    between atoms: N_9  and  C_22
REMARK    2  A    between atoms: C_11  and  C_15
REMARK    3  A    between atoms: C_12  and  C_21
REMARK    4  A    between atoms: C_24  and  C_28
REMARK                            x       y       z     vdW  Elec       q    Type
REMARK                         _______ _______ _______ _____ _____    ______ ____
ROOT
ATOM      2  O   UNL     1      14.749   6.762   3.959  0.00  0.00    -0.275 OA
ATOM      4  O   UNL     1       8.020   6.933   5.198  0.00  0.00    -0.270 OA
ATOM      6  N   UNL     1      12.624   7.663   3.658  0.00  0.00    -0.287 N 
ATOM      7  N   UNL     1       9.982   8.067   4.630  0.00  0.00    -0.294 N 
ATOM     12  C   UNL     1      11.983   6.623   4.477  0.00  0.00    +0.179 C 
ATOM     13  C   UNL     1      10.861   7.160   5.365  0.00  0.00    +0.140 C 
ATOM     14  C   UNL     1      11.727   8.634   3.006  0.00  0.00    +0.127 C 
ATOM     15  C   UNL     1      13.999   7.575   3.412  0.00  0.00    +0.219 C 
ATOM     18  C   UNL     1      10.681   9.173   3.973  0.00  0.00    +0.127 C 
ATOM     24  C   UNL     1       8.602   7.865   4.645  0.00  0.00    +0.247 C 
ENDROOT
BRANCH  24  28
ATOM      1  F   UNL     1       5.540  11.625   4.643  0.00  0.00    -0.205 F 
ATOM     28  C   UNL     1       7.753   8.827   3.929  0.00  0.00    +0.040 A 
ATOM     29  C   UNL     1       7.035   9.788   4.641  0.00  0.00    +0.051 A 
ATOM     30  C   UNL     1       7.666   8.778   2.538  0.00  0.00    +0.013 A 
ATOM     31  C   UNL     1       6.230  10.701   3.962  0.00  0.00    +0.124 A 
ATOM     32  C   UNL     1       6.859   9.692   1.859  0.00  0.00    +0.004 A 
ATOM     33  C   UNL     1       6.141  10.653   2.570  0.00  0.00    +0.038 A 
ENDBRANCH  24  28
BRANCH  15  11
ATOM      8  N   UNL     1      17.187   7.625   1.469  0.00  0.00    -0.316 NA
ATOM     11  C   UNL     1      14.570   8.547   2.418  0.00  0.00    +0.078 C 
ATOM     16  C   UNL     1      15.886   9.139   2.929  0.00  0.00    +0.028 C 
ATOM     17  C   UNL     1      14.762   7.882   1.054  0.00  0.00    +0.028 C 
ATOM     19  C   UNL     1      17.045   8.147   2.827  0.00  0.00    +0.081 C 
ATOM     20  C   UNL     1      15.969   6.943   1.031  0.00  0.00    +0.081 C 
ATOM     34  H   UNL     1      17.968   6.970   1.438  0.00  0.00    +0.122 HD
ENDBRANCH  15  11
BRANCH  12  21
ATOM      3  O   UNL     1      10.372   5.066   3.647  0.00  0.00    -0.274 OA
ATOM      9  N   UNL     1      12.409   5.276   2.540  0.00  0.00    -0.302 N 
ATOM     21  C   UNL     1      11.480   5.580   3.521  0.00  0.00    +0.236 C 
ATOM     35  H   UNL     1      13.268   5.818   2.485  0.00  0.00    +0.150 HD
BRANCH   9  22
ATOM      5  O   UNL     1      14.474   3.623   1.856  0.00  0.00    -0.274 OA
ATOM     10  N   UNL     1      13.614   3.318  -0.239  0.00  0.00    -0.314 N 
ATOM     22  C   UNL     1      12.180   4.292   1.515  0.00  0.00    +0.159 C 
ATOM     23  C   UNL     1      11.330   4.866   0.391  0.00  0.00    +0.033 C 
ATOM     25  C   UNL     1      11.253   3.867  -0.752  0.00  0.00    +0.021 C 
ATOM     26  C   UNL     1      13.536   3.756   1.068  0.00  0.00    +0.233 C 
ATOM     27  C   UNL     1      12.651   3.612  -1.283  0.00  0.00    +0.104 C 
ATOM     36  H   UNL     1      14.496   2.906  -0.531  0.00  0.00    +0.149 HD
ENDBRANCH   9  22
ENDBRANCH  12  21
TORSDOF 4
ENDMDL
