MODEL 1
REMARK VINA RESULT:      -7.0      0.000      0.000
REMARK  Name = 28960141
REMARK  9 active torsions:
REMARK  status: ('A' for Active; 'I' for Inactive)
REMARK    1  A    between atoms: O_3  and  C_17
REMARK    2  A    between atoms: N_6  and  C_15
REMARK    3  A    between atoms: N_6  and  C_19
REMARK    4  A    between atoms: N_6  and  C_20
REMARK    5  A    between atoms: C_8  and  C_12
REMARK    6  A    between atoms: C_9  and  C_14
REMARK    7  A    between atoms: C_12  and  C_15
REMARK    8  A    between atoms: C_14  and  C_17
REMARK    9  A    between atoms: C_16  and  C_18
REMARK                            x       y       z     vdW  Elec       q    Type
REMARK                         _______ _______ _______ _____ _____    ______ ____
ROOT
ATOM      2  O   UNL     1      10.145   8.081  22.257  0.00  0.00    -0.270 OA
ATOM      5  N   UNL     1      11.288  10.104  21.989  0.00  0.00    -0.297 N 
ATOM      8  C   UNL     1      13.407  11.399  22.052  0.00  0.00    +0.012 C 
ATOM      9  C   UNL     1      12.945  12.015  23.398  0.00  0.00    +0.006 C 
ATOM     10  C   UNL     1      11.975  11.082  24.143  0.00  0.00    +0.023 C 
ATOM     11  C   UNL     1      12.183  10.980  21.218  0.00  0.00    +0.112 C 
ATOM     13  C   UNL     1      10.810  10.669  23.248  0.00  0.00    +0.108 C 
ATOM     16  C   UNL     1      10.888   8.819  21.613  0.00  0.00    +0.247 C 
ENDROOT
BRANCH  16  18
ATOM      1 CL   UNL     1      10.850   8.769  16.430  0.00  0.00    -0.062 Cl
ATOM      7  N   UNL     1      12.345   7.265  17.921  0.00  0.00    -0.244 NA
ATOM     18  C   UNL     1      11.389   8.284  20.342  0.00  0.00    +0.041 A 
ATOM     21  C   UNL     1      10.895   8.770  19.136  0.00  0.00    +0.053 A 
ATOM     22  C   UNL     1      12.361   7.290  20.339  0.00  0.00    +0.033 A 
ATOM     25  C   UNL     1      11.401   8.232  17.964  0.00  0.00    +0.130 A 
ATOM     26  C   UNL     1      12.802   6.818  19.113  0.00  0.00    +0.113 A 
ENDBRANCH  16  18
BRANCH   8  12
ATOM     12  C   UNL     1      14.376  10.220  22.207  0.00  0.00    +0.024 C 
BRANCH  12  15
ATOM     15  C   UNL     1      15.677  10.434  21.449  0.00  0.00    +0.105 C 
BRANCH  15   6
ATOM      6  N   UNL     1      15.790   9.507  20.349  0.00  0.00    -0.333 N 
ATOM     20  C   UNL     1      14.978   9.736  19.153  0.00  0.00    +0.129 C 
BRANCH   6  19
ATOM     19  C   UNL     1      16.650   8.401  20.410  0.00  0.00    +0.029 A 
ATOM     23  C   UNL     1      17.795   8.452  21.206  0.00  0.00    +0.023 A 
ATOM     24  C   UNL     1      16.362   7.251  19.676  0.00  0.00    +0.023 A 
ATOM     27  C   UNL     1      18.651   7.352  21.267  0.00  0.00    +0.002 A 
ATOM     28  C   UNL     1      17.218   6.152  19.736  0.00  0.00    +0.002 A 
ATOM     29  C   UNL     1      18.362   6.202  20.533  0.00  0.00    +0.000 A 
ENDBRANCH   6  19
ENDBRANCH  15   6
ENDBRANCH  12  15
ENDBRANCH   8  12
BRANCH   9  14
ATOM     14  C   UNL     1      14.107  12.419  24.305  0.00  0.00    +0.124 C 
BRANCH  14  17
ATOM      4  O   UNL     1      13.143  12.848  26.502  0.00  0.00    -0.251 OA
ATOM     17  C   UNL     1      13.803  12.145  25.751  0.00  0.00    +0.305 C 
BRANCH  17   3
ATOM      3  O   UNL     1      14.380  10.974  26.127  0.00  0.00    -0.481 OA
ATOM     30  H   UNL     1      14.813  10.521  25.372  0.00  0.00    +0.295 HD
ENDBRANCH  17   3
ENDBRANCH  14  17
ENDBRANCH   9  14
TORSDOF 8
ENDMDL
MODEL 2
REMARK VINA RESULT:      -6.8     26.709     28.978
REMARK  Name = 28960141
REMARK  9 active torsions:
REMARK  status: ('A' for Active; 'I' for Inactive)
REMARK    1  A    between atoms: O_3  and  C_17
REMARK    2  A    between atoms: N_6  and  C_15
REMARK    3  A    between atoms: N_6  and  C_19
REMARK    4  A    between atoms: N_6  and  C_20
REMARK    5  A    between atoms: C_8  and  C_12
REMARK    6  A    between atoms: C_9  and  C_14
REMARK    7  A    between atoms: C_12  and  C_15
REMARK    8  A    between atoms: C_14  and  C_17
REMARK    9  A    between atoms: C_16  and  C_18
REMARK                            x       y       z     vdW  Elec       q    Type
REMARK                         _______ _______ _______ _____ _____    ______ ____
ROOT
ATOM      2  O   UNL     1      -1.506  -9.786  12.380  0.00  0.00    -0.270 OA
ATOM      5  N   UNL     1      -2.630 -11.291  13.776  0.00  0.00    -0.297 N 
ATOM      8  C   UNL     1      -4.484 -11.782  15.355  0.00  0.00    +0.012 C 
ATOM      9  C   UNL     1      -3.461 -11.703  16.519  0.00  0.00    +0.006 C 
ATOM     10  C   UNL     1      -2.269 -10.800  16.163  0.00  0.00    +0.023 C 
ATOM     11  C   UNL     1      -3.767 -12.180  14.052  0.00  0.00    +0.112 C 
ATOM     13  C   UNL     1      -1.632 -11.219  14.841  0.00  0.00    +0.108 C 
ATOM     16  C   UNL     1      -2.452 -10.536  12.613  0.00  0.00    +0.247 C 
ENDROOT
BRANCH  16  18
ATOM      1 CL   UNL     1      -6.794  -8.777  10.396  0.00  0.00    -0.062 Cl
ATOM      7  N   UNL     1      -5.423 -10.815   9.569  0.00  0.00    -0.244 NA
ATOM     18  C   UNL     1      -3.475 -10.632  11.565  0.00  0.00    +0.041 A 
ATOM     21  C   UNL     1      -4.525  -9.721  11.528  0.00  0.00    +0.053 A 
ATOM     22  C   UNL     1      -3.398 -11.634  10.606  0.00  0.00    +0.033 A 
ATOM     25  C   UNL     1      -5.465  -9.854  10.519  0.00  0.00    +0.130 A 
ATOM     26  C   UNL     1      -4.388 -11.683   9.638  0.00  0.00    +0.113 A 
ENDBRANCH  16  18
BRANCH   8  12
ATOM     12  C   UNL     1      -5.290 -10.494  15.147  0.00  0.00    +0.024 C 
BRANCH  12  15
ATOM     15  C   UNL     1      -6.691 -10.765  14.621  0.00  0.00    +0.105 C 
BRANCH  15   6
ATOM      6  N   UNL     1      -7.686 -10.448  15.617  0.00  0.00    -0.333 N 
ATOM     20  C   UNL     1      -8.736  -9.487  15.278  0.00  0.00    +0.129 C 
BRANCH   6  19
ATOM     19  C   UNL     1      -7.657 -11.033  16.891  0.00  0.00    +0.029 A 
ATOM     23  C   UNL     1      -7.758 -12.419  17.024  0.00  0.00    +0.023 A 
ATOM     24  C   UNL     1      -7.527 -10.232  18.025  0.00  0.00    +0.023 A 
ATOM     27  C   UNL     1      -7.730 -13.002  18.291  0.00  0.00    +0.002 A 
ATOM     28  C   UNL     1      -7.500 -10.814  19.292  0.00  0.00    +0.002 A 
ATOM     29  C   UNL     1      -7.600 -12.199  19.425  0.00  0.00    +0.000 A 
ENDBRANCH   6  19
ENDBRANCH  15   6
ENDBRANCH  12  15
ENDBRANCH   8  12
BRANCH   9  14
ATOM     14  C   UNL     1      -4.090 -11.271  17.842  0.00  0.00    +0.124 C 
BRANCH  14  17
ATOM      4  O   UNL     1      -3.378 -12.121  20.013  0.00  0.00    -0.251 OA
ATOM     17  C   UNL     1      -3.886 -12.302  18.917  0.00  0.00    +0.305 C 
BRANCH  17   3
ATOM      3  O   UNL     1      -4.357 -13.504  18.493  0.00  0.00    -0.481 OA
ATOM     30  H   UNL     1      -5.015 -13.405  17.773  0.00  0.00    +0.295 HD
ENDBRANCH  17   3
ENDBRANCH  14  17
ENDBRANCH   9  14
TORSDOF 8
ENDMDL
MODEL 3
REMARK VINA RESULT:      -6.7     26.798     28.801
REMARK  Name = 28960141
REMARK  9 active torsions:
REMARK  status: ('A' for Active; 'I' for Inactive)
REMARK    1  A    between atoms: O_3  and  C_17
REMARK    2  A    between atoms: N_6  and  C_15
REMARK    3  A    between atoms: N_6  and  C_19
REMARK    4  A    between atoms: N_6  and  C_20
REMARK    5  A    between atoms: C_8  and  C_12
REMARK    6  A    between atoms: C_9  and  C_14
REMARK    7  A    between atoms: C_12  and  C_15
REMARK    8  A    between atoms: C_14  and  C_17
REMARK    9  A    between atoms: C_16  and  C_18
REMARK                            x       y       z     vdW  Elec       q    Type
REMARK                         _______ _______ _______ _____ _____    ______ ____
ROOT
ATOM      2  O   UNL     1      -8.943 -10.788  18.809  0.00  0.00    -0.270 OA
ATOM      5  N   UNL     1      -6.992  -9.957  17.821  0.00  0.00    -0.297 N 
ATOM      8  C   UNL     1      -5.291 -10.052  16.012  0.00  0.00    +0.012 C 
ATOM      9  C   UNL     1      -4.315 -10.717  17.018  0.00  0.00    +0.006 C 
ATOM     10  C   UNL     1      -5.072 -11.471  18.125  0.00  0.00    +0.023 C 
ATOM     11  C   UNL     1      -6.315  -9.186  16.768  0.00  0.00    +0.112 C 
ATOM     13  C   UNL     1      -6.101 -10.571  18.803  0.00  0.00    +0.108 C 
ATOM     16  C   UNL     1      -8.372 -10.139  17.934  0.00  0.00    +0.247 C 
ENDROOT
BRANCH  16  18
ATOM      1 CL   UNL     1     -11.201  -6.102  16.333  0.00  0.00    -0.062 Cl
ATOM      7  N   UNL     1     -10.881  -8.310  15.013  0.00  0.00    -0.244 NA
ATOM     18  C   UNL     1      -9.236  -9.509  16.929  0.00  0.00    +0.041 A 
ATOM     21  C   UNL     1      -9.732  -8.227  17.139  0.00  0.00    +0.053 A 
ATOM     22  C   UNL     1      -9.562 -10.192  15.763  0.00  0.00    +0.033 A 
ATOM     25  C   UNL     1     -10.543  -7.677  16.160  0.00  0.00    +0.130 A 
ATOM     26  C   UNL     1     -10.380  -9.554  14.845  0.00  0.00    +0.113 A 
ENDBRANCH  16  18
BRANCH   8  12
ATOM     12  C   UNL     1      -6.011 -11.047  15.092  0.00  0.00    +0.024 C 
BRANCH  12  15
ATOM     15  C   UNL     1      -6.214 -10.496  13.689  0.00  0.00    +0.105 C 
BRANCH  15   6
ATOM      6  N   UNL     1      -5.236 -11.038  12.777  0.00  0.00    -0.333 N 
ATOM     20  C   UNL     1      -4.745 -12.398  13.003  0.00  0.00    +0.129 C 
BRANCH   6  19
ATOM     19  C   UNL     1      -4.750 -10.289  11.696  0.00  0.00    +0.029 A 
ATOM     23  C   UNL     1      -3.383 -10.275  11.415  0.00  0.00    +0.023 A 
ATOM     24  C   UNL     1      -5.631  -9.556  10.902  0.00  0.00    +0.023 A 
ATOM     27  C   UNL     1      -2.899  -9.530  10.340  0.00  0.00    +0.002 A 
ATOM     28  C   UNL     1      -5.148  -8.809   9.828  0.00  0.00    +0.002 A 
ATOM     29  C   UNL     1      -3.782  -8.797   9.547  0.00  0.00    +0.000 A 
ENDBRANCH   6  19
ENDBRANCH  15   6
ENDBRANCH  12  15
ENDBRANCH   8  12
BRANCH   9  14
ATOM     14  C   UNL     1      -3.291 -11.631  16.346  0.00  0.00    +0.124 C 
BRANCH  14  17
ATOM      4  O   UNL     1      -2.113 -10.298  14.680  0.00  0.00    -0.251 OA
ATOM     17  C   UNL     1      -2.143 -10.849  15.770  0.00  0.00    +0.305 C 
BRANCH  17   3
ATOM      3  O   UNL     1      -1.111 -10.835  16.652  0.00  0.00    -0.481 OA
ATOM     30  H   UNL     1      -1.113 -11.627  17.231  0.00  0.00    +0.295 HD
ENDBRANCH  17   3
ENDBRANCH  14  17
ENDBRANCH   9  14
TORSDOF 8
ENDMDL
MODEL 4
REMARK VINA RESULT:      -6.5     26.829     28.958
REMARK  Name = 28960141
REMARK  9 active torsions:
REMARK  status: ('A' for Active; 'I' for Inactive)
REMARK    1  A    between atoms: O_3  and  C_17
REMARK    2  A    between atoms: N_6  and  C_15
REMARK    3  A    between atoms: N_6  and  C_19
REMARK    4  A    between atoms: N_6  and  C_20
REMARK    5  A    between atoms: C_8  and  C_12
REMARK    6  A    between atoms: C_9  and  C_14
REMARK    7  A    between atoms: C_12  and  C_15
REMARK    8  A    between atoms: C_14  and  C_17
REMARK    9  A    between atoms: C_16  and  C_18
REMARK                            x       y       z     vdW  Elec       q    Type
REMARK                         _______ _______ _______ _____ _____    ______ ____
ROOT
ATOM      2  O   UNL     1      -8.686 -11.100  18.815  0.00  0.00    -0.270 OA
ATOM      5  N   UNL     1      -6.867 -10.114  17.722  0.00  0.00    -0.297 N 
ATOM      8  C   UNL     1      -5.350  -9.991  15.758  0.00  0.00    +0.012 C 
ATOM      9  C   UNL     1      -4.261 -10.699  16.604  0.00  0.00    +0.006 C 
ATOM     10  C   UNL     1      -4.882 -11.573  17.708  0.00  0.00    +0.023 C 
ATOM     11  C   UNL     1      -6.321  -9.231  16.681  0.00  0.00    +0.112 C 
ATOM     13  C   UNL     1      -5.866 -10.773  18.557  0.00  0.00    +0.108 C 
ATOM     16  C   UNL     1      -8.224 -10.358  17.950  0.00  0.00    +0.247 C 
ENDROOT
BRANCH  16  18
ATOM      1 CL   UNL     1     -11.249 -10.321  13.741  0.00  0.00    -0.062 Cl
ATOM      7  N   UNL     1     -11.062  -8.385  15.455  0.00  0.00    -0.244 NA
ATOM     18  C   UNL     1      -9.201  -9.679  17.091  0.00  0.00    +0.041 A 
ATOM     21  C   UNL     1      -9.681 -10.308  15.947  0.00  0.00    +0.053 A 
ATOM     22  C   UNL     1      -9.650  -8.405  17.418  0.00  0.00    +0.033 A 
ATOM     25  C   UNL     1     -10.602  -9.624  15.170  0.00  0.00    +0.130 A 
ATOM     26  C   UNL     1     -10.573  -7.807  16.575  0.00  0.00    +0.113 A 
ENDBRANCH  16  18
BRANCH   8  12
ATOM     12  C   UNL     1      -6.127 -10.931  14.827  0.00  0.00    +0.024 C 
BRANCH  12  15
ATOM     15  C   UNL     1      -6.653 -10.219  13.591  0.00  0.00    +0.105 C 
BRANCH  15   6
ATOM      6  N   UNL     1      -6.155 -10.840  12.388  0.00  0.00    -0.333 N 
ATOM     20  C   UNL     1      -6.831 -12.036  11.885  0.00  0.00    +0.129 C 
BRANCH   6  19
ATOM     19  C   UNL     1      -5.042 -10.325  11.707  0.00  0.00    +0.029 A 
ATOM     23  C   UNL     1      -5.218  -9.364  10.710  0.00  0.00    +0.023 A 
ATOM     24  C   UNL     1      -3.760 -10.774  12.024  0.00  0.00    +0.023 A 
ATOM     27  C   UNL     1      -4.112  -8.852  10.032  0.00  0.00    +0.002 A 
ATOM     28  C   UNL     1      -2.654 -10.263  11.345  0.00  0.00    +0.002 A 
ATOM     29  C   UNL     1      -2.830  -9.302  10.350  0.00  0.00    +0.000 A 
ENDBRANCH   6  19
ENDBRANCH  15   6
ENDBRANCH  12  15
ENDBRANCH   8  12
BRANCH   9  14
ATOM     14  C   UNL     1      -3.281 -11.513  15.760  0.00  0.00    +0.124 C 
BRANCH  14  17
ATOM      4  O   UNL     1      -1.460 -10.298  14.688  0.00  0.00    -0.251 OA
ATOM     17  C   UNL     1      -1.937 -10.843  15.671  0.00  0.00    +0.305 C 
BRANCH  17   3
ATOM      3  O   UNL     1      -1.303 -10.929  16.869  0.00  0.00    -0.481 OA
ATOM     30  H   UNL     1      -0.450 -10.445  16.866  0.00  0.00    +0.295 HD
ENDBRANCH  17   3
ENDBRANCH  14  17
ENDBRANCH   9  14
TORSDOF 8
ENDMDL
MODEL 5
REMARK VINA RESULT:      -6.5      3.079      6.110
REMARK  Name = 28960141
REMARK  9 active torsions:
REMARK  status: ('A' for Active; 'I' for Inactive)
REMARK    1  A    between atoms: O_3  and  C_17
REMARK    2  A    between atoms: N_6  and  C_15
REMARK    3  A    between atoms: N_6  and  C_19
REMARK    4  A    between atoms: N_6  and  C_20
REMARK    5  A    between atoms: C_8  and  C_12
REMARK    6  A    between atoms: C_9  and  C_14
REMARK    7  A    between atoms: C_12  and  C_15
REMARK    8  A    between atoms: C_14  and  C_17
REMARK    9  A    between atoms: C_16  and  C_18
REMARK                            x       y       z     vdW  Elec       q    Type
REMARK                         _______ _______ _______ _____ _____    ______ ____
ROOT
ATOM      2  O   UNL     1      11.356   8.176  19.593  0.00  0.00    -0.270 OA
ATOM      5  N   UNL     1      13.290   7.763  20.844  0.00  0.00    -0.297 N 
ATOM      8  C   UNL     1      15.633   8.343  21.431  0.00  0.00    +0.012 C 
ATOM      9  C   UNL     1      16.104   7.129  20.588  0.00  0.00    +0.006 C 
ATOM     10  C   UNL     1      15.093   6.784  19.481  0.00  0.00    +0.023 C 
ATOM     11  C   UNL     1      14.202   8.103  21.945  0.00  0.00    +0.112 C 
ATOM     13  C   UNL     1      13.689   6.603  20.049  0.00  0.00    +0.108 C 
ATOM     16  C   UNL     1      12.119   8.452  20.517  0.00  0.00    +0.247 C 
ENDROOT
BRANCH  16  18
ATOM      1 CL   UNL     1      11.733  13.585  21.125  0.00  0.00    -0.062 Cl
ATOM      7  N   UNL     1      11.046  11.822  22.897  0.00  0.00    -0.244 NA
ATOM     18  C   UNL     1      11.750   9.612  21.336  0.00  0.00    +0.041 A 
ATOM     21  C   UNL     1      11.921  10.900  20.840  0.00  0.00    +0.053 A 
ATOM     22  C   UNL     1      11.228   9.428  22.611  0.00  0.00    +0.033 A 
ATOM     25  C   UNL     1      11.557  11.962  21.652  0.00  0.00    +0.130 A 
ATOM     26  C   UNL     1      10.895  10.555  23.345  0.00  0.00    +0.113 A 
ENDBRANCH  16  18
BRANCH   8  12
ATOM     12  C   UNL     1      15.715   9.684  20.691  0.00  0.00    +0.024 C 
BRANCH  12  15
ATOM     15  C   UNL     1      16.357  10.774  21.534  0.00  0.00    +0.105 C 
BRANCH  15   6
ATOM      6  N   UNL     1      15.489  11.921  21.640  0.00  0.00    -0.333 N 
ATOM     20  C   UNL     1      15.233  12.720  20.441  0.00  0.00    +0.129 C 
BRANCH   6  19
ATOM     19  C   UNL     1      14.900  12.282  22.861  0.00  0.00    +0.029 A 
ATOM     23  C   UNL     1      14.614  13.621  23.128  0.00  0.00    +0.023 A 
ATOM     24  C   UNL     1      14.601  11.303  23.808  0.00  0.00    +0.023 A 
ATOM     27  C   UNL     1      14.028  13.980  24.342  0.00  0.00    +0.002 A 
ATOM     28  C   UNL     1      14.016  11.661  25.022  0.00  0.00    +0.002 A 
ATOM     29  C   UNL     1      13.729  13.000  25.289  0.00  0.00    +0.000 A 
ENDBRANCH   6  19
ENDBRANCH  15   6
ENDBRANCH  12  15
ENDBRANCH   8  12
BRANCH   9  14
ATOM     14  C   UNL     1      17.504   7.309  20.004  0.00  0.00    +0.124 C 
BRANCH  14  17
ATOM      4  O   UNL     1      18.982   5.482  20.652  0.00  0.00    -0.251 OA
ATOM     17  C   UNL     1      18.215   5.993  19.850  0.00  0.00    +0.305 C 
BRANCH  17   3
ATOM      3  O   UNL     1      17.881   5.429  18.661  0.00  0.00    -0.481 OA
ATOM     30  H   UNL     1      18.516   5.667  17.952  0.00  0.00    +0.295 HD
ENDBRANCH  17   3
ENDBRANCH  14  17
ENDBRANCH   9  14
TORSDOF 8
ENDMDL
MODEL 6
REMARK VINA RESULT:      -6.3     14.901     18.448
REMARK  Name = 28960141
REMARK  9 active torsions:
REMARK  status: ('A' for Active; 'I' for Inactive)
REMARK    1  A    between atoms: O_3  and  C_17
REMARK    2  A    between atoms: N_6  and  C_15
REMARK    3  A    between atoms: N_6  and  C_19
REMARK    4  A    between atoms: N_6  and  C_20
REMARK    5  A    between atoms: C_8  and  C_12
REMARK    6  A    between atoms: C_9  and  C_14
REMARK    7  A    between atoms: C_12  and  C_15
REMARK    8  A    between atoms: C_14  and  C_17
REMARK    9  A    between atoms: C_16  and  C_18
REMARK                            x       y       z     vdW  Elec       q    Type
REMARK                         _______ _______ _______ _____ _____    ______ ____
ROOT
ATOM      2  O   UNL     1       9.536  10.003   7.468  0.00  0.00    -0.270 OA
ATOM      5  N   UNL     1       8.365   8.891   5.774  0.00  0.00    -0.297 N 
ATOM      8  C   UNL     1       8.351   7.737   3.574  0.00  0.00    +0.012 C 
ATOM      9  C   UNL     1       7.731   9.015   2.952  0.00  0.00    +0.006 C 
ATOM     10  C   UNL     1       8.110  10.273   3.751  0.00  0.00    +0.023 C 
ATOM     11  C   UNL     1       7.994   7.655   5.070  0.00  0.00    +0.112 C 
ATOM     13  C   UNL     1       7.773  10.111   5.230  0.00  0.00    +0.108 C 
ATOM     16  C   UNL     1       9.217   8.972   6.879  0.00  0.00    +0.247 C 
ENDROOT
BRANCH  16  18
ATOM      1 CL   UNL     1       8.851   4.743   9.854  0.00  0.00    -0.062 Cl
ATOM      7  N   UNL     1      10.897   5.354   8.383  0.00  0.00    -0.244 NA
ATOM     18  C   UNL     1       9.795   7.726   7.397  0.00  0.00    +0.041 A 
ATOM     21  C   UNL     1       9.075   6.940   8.290  0.00  0.00    +0.053 A 
ATOM     22  C   UNL     1      11.065   7.328   6.997  0.00  0.00    +0.033 A 
ATOM     25  C   UNL     1       9.665   5.774   8.750  0.00  0.00    +0.130 A 
ATOM     26  C   UNL     1      11.566   6.144   7.514  0.00  0.00    +0.113 A 
ENDBRANCH  16  18
BRANCH   8  12
ATOM     12  C   UNL     1       9.868   7.622   3.381  0.00  0.00    +0.024 C 
BRANCH  12  15
ATOM     15  C   UNL     1      10.244   6.573   2.346  0.00  0.00    +0.105 C 
BRANCH  15   6
ATOM      6  N   UNL     1      10.950   5.474   2.960  0.00  0.00    -0.333 N 
ATOM     20  C   UNL     1      10.424   4.911   4.204  0.00  0.00    +0.129 C 
BRANCH   6  19
ATOM     19  C   UNL     1      12.120   4.949   2.393  0.00  0.00    +0.029 A 
ATOM     23  C   UNL     1      12.159   3.616   1.982  0.00  0.00    +0.023 A 
ATOM     24  C   UNL     1      13.245   5.759   2.239  0.00  0.00    +0.023 A 
ATOM     27  C   UNL     1      13.323   3.094   1.418  0.00  0.00    +0.002 A 
ATOM     28  C   UNL     1      14.410   5.236   1.677  0.00  0.00    +0.002 A 
ATOM     29  C   UNL     1      14.448   3.904   1.265  0.00  0.00    +0.000 A 
ENDBRANCH   6  19
ENDBRANCH  15   6
ENDBRANCH  12  15
ENDBRANCH   8  12
BRANCH   9  14
ATOM     14  C   UNL     1       8.077   9.191   1.473  0.00  0.00    +0.124 C 
BRANCH  14  17
ATOM      4  O   UNL     1       5.793   9.951   1.088  0.00  0.00    -0.251 OA
ATOM     17  C   UNL     1       6.865   9.549   0.659  0.00  0.00    +0.305 C 
BRANCH  17   3
ATOM      3  O   UNL     1       7.127   9.360  -0.660  0.00  0.00    -0.481 OA
ATOM     30  H   UNL     1       6.467   9.807  -1.231  0.00  0.00    +0.295 HD
ENDBRANCH  17   3
ENDBRANCH  14  17
ENDBRANCH   9  14
TORSDOF 8
ENDMDL
MODEL 7
REMARK VINA RESULT:      -6.3      3.502      5.990
REMARK  Name = 28960141
REMARK  9 active torsions:
REMARK  status: ('A' for Active; 'I' for Inactive)
REMARK    1  A    between atoms: O_3  and  C_17
REMARK    2  A    between atoms: N_6  and  C_15
REMARK    3  A    between atoms: N_6  and  C_19
REMARK    4  A    between atoms: N_6  and  C_20
REMARK    5  A    between atoms: C_8  and  C_12
REMARK    6  A    between atoms: C_9  and  C_14
REMARK    7  A    between atoms: C_12  and  C_15
REMARK    8  A    between atoms: C_14  and  C_17
REMARK    9  A    between atoms: C_16  and  C_18
REMARK                            x       y       z     vdW  Elec       q    Type
REMARK                         _______ _______ _______ _____ _____    ______ ____
ROOT
ATOM      2  O   UNL     1      10.182   8.272  22.258  0.00  0.00    -0.270 OA
ATOM      5  N   UNL     1      12.509   8.283  22.012  0.00  0.00    -0.297 N 
ATOM      8  C   UNL     1      14.524   8.806  20.655  0.00  0.00    +0.012 C 
ATOM      9  C   UNL     1      14.649   7.296  20.330  0.00  0.00    +0.006 C 
ATOM     10  C   UNL     1      13.286   6.586  20.404  0.00  0.00    +0.023 C 
ATOM     11  C   UNL     1      13.794   8.996  21.998  0.00  0.00    +0.112 C 
ATOM     13  C   UNL     1      12.597   6.850  21.739  0.00  0.00    +0.108 C 
ATOM     16  C   UNL     1      11.260   8.863  22.251  0.00  0.00    +0.247 C 
ENDROOT
BRANCH  16  18
ATOM      1 CL   UNL     1      11.508  13.760  20.572  0.00  0.00    -0.062 Cl
ATOM      7  N   UNL     1      11.113  13.051  23.034  0.00  0.00    -0.244 NA
ATOM     18  C   UNL     1      11.210  10.305  22.520  0.00  0.00    +0.041 A 
ATOM     21  C   UNL     1      11.373  11.215  21.482  0.00  0.00    +0.053 A 
ATOM     22  C   UNL     1      10.999  10.765  23.815  0.00  0.00    +0.033 A 
ATOM     25  C   UNL     1      11.317  12.565  21.788  0.00  0.00    +0.130 A 
ATOM     26  C   UNL     1      10.959  12.135  24.017  0.00  0.00    +0.113 A 
ENDBRANCH  16  18
BRANCH   8  12
ATOM     12  C   UNL     1      13.836   9.626  19.556  0.00  0.00    +0.024 C 
BRANCH  12  15
ATOM     15  C   UNL     1      14.821  10.457  18.749  0.00  0.00    +0.105 C 
BRANCH  15   6
ATOM      6  N   UNL     1      14.458  10.474  17.353  0.00  0.00    -0.333 N 
ATOM     20  C   UNL     1      13.278   9.721  16.927  0.00  0.00    +0.129 C 
BRANCH   6  19
ATOM     19  C   UNL     1      15.213  11.186  16.410  0.00  0.00    +0.029 A 
ATOM     23  C   UNL     1      15.963  12.293  16.810  0.00  0.00    +0.023 A 
ATOM     24  C   UNL     1      15.215  10.789  15.074  0.00  0.00    +0.023 A 
ATOM     27  C   UNL     1      16.714  13.002  15.872  0.00  0.00    +0.002 A 
ATOM     28  C   UNL     1      15.965  11.498  14.135  0.00  0.00    +0.002 A 
ATOM     29  C   UNL     1      16.715  12.604  14.535  0.00  0.00    +0.000 A 
ENDBRANCH   6  19
ENDBRANCH  15   6
ENDBRANCH  12  15
ENDBRANCH   8  12
BRANCH   9  14
ATOM     14  C   UNL     1      15.327   7.025  18.987  0.00  0.00    +0.124 C 
BRANCH  14  17
ATOM      4  O   UNL     1      17.364   6.275  20.095  0.00  0.00    -0.251 OA
ATOM     17  C   UNL     1      16.587   6.222  19.154  0.00  0.00    +0.305 C 
BRANCH  17   3
ATOM      3  O   UNL     1      16.754   5.405  18.082  0.00  0.00    -0.481 OA
ATOM     30  H   UNL     1      16.259   4.564  18.183  0.00  0.00    +0.295 HD
ENDBRANCH  17   3
ENDBRANCH  14  17
ENDBRANCH   9  14
TORSDOF 8
ENDMDL
MODEL 8
REMARK VINA RESULT:      -6.2     27.381     29.424
REMARK  Name = 28960141
REMARK  9 active torsions:
REMARK  status: ('A' for Active; 'I' for Inactive)
REMARK    1  A    between atoms: O_3  and  C_17
REMARK    2  A    between atoms: N_6  and  C_15
REMARK    3  A    between atoms: N_6  and  C_19
REMARK    4  A    between atoms: N_6  and  C_20
REMARK    5  A    between atoms: C_8  and  C_12
REMARK    6  A    between atoms: C_9  and  C_14
REMARK    7  A    between atoms: C_12  and  C_15
REMARK    8  A    between atoms: C_14  and  C_17
REMARK    9  A    between atoms: C_16  and  C_18
REMARK                            x       y       z     vdW  Elec       q    Type
REMARK                         _______ _______ _______ _____ _____    ______ ____
ROOT
ATOM      2  O   UNL     1      -2.662 -10.009  12.082  0.00  0.00    -0.270 OA
ATOM      5  N   UNL     1      -3.769 -11.332  13.663  0.00  0.00    -0.297 N 
ATOM      8  C   UNL     1      -5.310 -11.525  15.603  0.00  0.00    +0.012 C 
ATOM      9  C   UNL     1      -4.074 -11.740  16.514  0.00  0.00    +0.006 C 
ATOM     10  C   UNL     1      -2.815 -11.086  15.921  0.00  0.00    +0.023 C 
ATOM     11  C   UNL     1      -4.989 -11.979  14.167  0.00  0.00    +0.112 C 
ATOM     13  C   UNL     1      -2.579 -11.542  14.484  0.00  0.00    +0.108 C 
ATOM     16  C   UNL     1      -3.679 -10.557  12.504  0.00  0.00    +0.247 C 
ENDROOT
BRANCH  16  18
ATOM      1 CL   UNL     1      -6.864 -12.116   8.723  0.00  0.00    -0.062 Cl
ATOM      7  N   UNL     1      -7.213 -10.003  10.185  0.00  0.00    -0.244 NA
ATOM     18  C   UNL     1      -4.895 -10.367  11.705  0.00  0.00    +0.041 A 
ATOM     21  C   UNL     1      -5.223 -11.274  10.704  0.00  0.00    +0.053 A 
ATOM     22  C   UNL     1      -5.725  -9.278  11.948  0.00  0.00    +0.033 A 
ATOM     25  C   UNL     1      -6.381 -11.050   9.979  0.00  0.00    +0.130 A 
ATOM     26  C   UNL     1      -6.862  -9.143  11.167  0.00  0.00    +0.113 A 
ENDBRANCH  16  18
BRANCH   8  12
ATOM     12  C   UNL     1      -5.840 -10.086  15.600  0.00  0.00    +0.024 C 
BRANCH  12  15
ATOM     15  C   UNL     1      -7.319 -10.012  15.255  0.00  0.00    +0.105 C 
BRANCH  15   6
ATOM      6  N   UNL     1      -8.072  -9.428  16.338  0.00  0.00    -0.333 N 
ATOM     20  C   UNL     1      -7.581  -9.600  17.706  0.00  0.00    +0.129 C 
BRANCH   6  19
ATOM     19  C   UNL     1      -9.256  -8.714  16.104  0.00  0.00    +0.029 A 
ATOM     23  C   UNL     1      -9.767  -7.868  17.090  0.00  0.00    +0.023 A 
ATOM     24  C   UNL     1      -9.922  -8.847  14.887  0.00  0.00    +0.023 A 
ATOM     27  C   UNL     1     -10.944  -7.158  16.857  0.00  0.00    +0.002 A 
ATOM     28  C   UNL     1     -11.101  -8.137  14.654  0.00  0.00    +0.002 A 
ATOM     29  C   UNL     1     -11.611  -7.292  15.639  0.00  0.00    +0.000 A 
ENDBRANCH   6  19
ENDBRANCH  15   6
ENDBRANCH  12  15
ENDBRANCH   8  12
BRANCH   9  14
ATOM     14  C   UNL     1      -4.299 -11.273  17.951  0.00  0.00    +0.124 C 
BRANCH  14  17
ATOM      4  O   UNL     1      -3.323 -12.173  19.995  0.00  0.00    -0.251 OA
ATOM     17  C   UNL     1      -3.927 -12.337  18.946  0.00  0.00    +0.305 C 
BRANCH  17   3
ATOM      3  O   UNL     1      -4.364 -13.546  18.508  0.00  0.00    -0.481 OA
ATOM     30  H   UNL     1      -5.277 -13.497  18.151  0.00  0.00    +0.295 HD
ENDBRANCH  17   3
ENDBRANCH  14  17
ENDBRANCH   9  14
TORSDOF 8
ENDMDL
MODEL 9
REMARK VINA RESULT:      -6.1     11.984     15.786
REMARK  Name = 28960141
REMARK  9 active torsions:
REMARK  status: ('A' for Active; 'I' for Inactive)
REMARK    1  A    between atoms: O_3  and  C_17
REMARK    2  A    between atoms: N_6  and  C_15
REMARK    3  A    between atoms: N_6  and  C_19
REMARK    4  A    between atoms: N_6  and  C_20
REMARK    5  A    between atoms: C_8  and  C_12
REMARK    6  A    between atoms: C_9  and  C_14
REMARK    7  A    between atoms: C_12  and  C_15
REMARK    8  A    between atoms: C_14  and  C_17
REMARK    9  A    between atoms: C_16  and  C_18
REMARK                            x       y       z     vdW  Elec       q    Type
REMARK                         _______ _______ _______ _____ _____    ______ ____
ROOT
ATOM      2  O   UNL     1       9.630   8.280   3.147  0.00  0.00    -0.270 OA
ATOM      5  N   UNL     1       8.763   7.525   5.185  0.00  0.00    -0.297 N 
ATOM      8  C   UNL     1       8.872   7.438   7.666  0.00  0.00    +0.012 C 
ATOM      9  C   UNL     1       9.444   6.002   7.552  0.00  0.00    +0.006 C 
ATOM     10  C   UNL     1      10.176   5.790   6.216  0.00  0.00    +0.023 C 
ATOM     11  C   UNL     1       8.015   7.762   6.428  0.00  0.00    +0.112 C 
ATOM     13  C   UNL     1       9.290   6.170   5.033  0.00  0.00    +0.108 C 
ATOM     16  C   UNL     1       8.999   8.472   4.186  0.00  0.00    +0.247 C 
ENDROOT
BRANCH  16  18
ATOM      1 CL   UNL     1       5.035  11.800   3.915  0.00  0.00    -0.062 Cl
ATOM      7  N   UNL     1       7.423  12.395   4.730  0.00  0.00    -0.244 NA
ATOM     18  C   UNL     1       8.456   9.822   4.373  0.00  0.00    +0.041 A 
ATOM     21  C   UNL     1       7.126  10.089   4.069  0.00  0.00    +0.053 A 
ATOM     22  C   UNL     1       9.271  10.840   4.855  0.00  0.00    +0.033 A 
ATOM     25  C   UNL     1       6.662  11.380   4.263  0.00  0.00    +0.130 A 
ATOM     26  C   UNL     1       8.711  12.098   5.014  0.00  0.00    +0.113 A 
ENDBRANCH  16  18
BRANCH   8  12
ATOM     12  C   UNL     1       9.939   8.520   7.872  0.00  0.00    +0.024 C 
BRANCH  12  15
ATOM     15  C   UNL     1       9.347   9.834   8.360  0.00  0.00    +0.105 C 
BRANCH  15   6
ATOM      6  N   UNL     1      10.367  10.674   8.940  0.00  0.00    -0.333 N 
ATOM     20  C   UNL     1      11.664  10.766   8.269  0.00  0.00    +0.129 C 
BRANCH   6  19
ATOM     19  C   UNL     1      10.139  11.388  10.125  0.00  0.00    +0.029 A 
ATOM     23  C   UNL     1       8.833  11.614  10.562  0.00  0.00    +0.023 A 
ATOM     24  C   UNL     1      11.215  11.872  10.867  0.00  0.00    +0.023 A 
ATOM     27  C   UNL     1       8.605  12.324  11.741  0.00  0.00    +0.002 A 
ATOM     28  C   UNL     1      10.989  12.583  12.045  0.00  0.00    +0.002 A 
ATOM     29  C   UNL     1       9.684  12.808  12.482  0.00  0.00    +0.000 A 
ENDBRANCH   6  19
ENDBRANCH  15   6
ENDBRANCH  12  15
ENDBRANCH   8  12
BRANCH   9  14
ATOM     14  C   UNL     1      10.344   5.619   8.726  0.00  0.00    +0.124 C 
BRANCH  14  17
ATOM      4  O   UNL     1       9.186   3.493   9.009  0.00  0.00    -0.251 OA
ATOM     17  C   UNL     1       9.798   4.439   9.482  0.00  0.00    +0.305 C 
BRANCH  17   3
ATOM      3  O   UNL     1      10.086   4.568  10.803  0.00  0.00    -0.481 OA
ATOM     30  H   UNL     1      10.286   5.497  11.044  0.00  0.00    +0.295 HD
ENDBRANCH  17   3
ENDBRANCH  14  17
ENDBRANCH   9  14
TORSDOF 8
ENDMDL
MODEL 10
REMARK VINA RESULT:      -5.9     14.807     18.172
REMARK  Name = 28960141
REMARK  9 active torsions:
REMARK  status: ('A' for Active; 'I' for Inactive)
REMARK    1  A    between atoms: O_3  and  C_17
REMARK    2  A    between atoms: N_6  and  C_15
REMARK    3  A    between atoms: N_6  and  C_19
REMARK    4  A    between atoms: N_6  and  C_20
REMARK    5  A    between atoms: C_8  and  C_12
REMARK    6  A    between atoms: C_9  and  C_14
REMARK    7  A    between atoms: C_12  and  C_15
REMARK    8  A    between atoms: C_14  and  C_17
REMARK    9  A    between atoms: C_16  and  C_18
REMARK                            x       y       z     vdW  Elec       q    Type
REMARK                         _______ _______ _______ _____ _____    ______ ____
ROOT
ATOM      2  O   UNL     1      12.694  10.601   5.001  0.00  0.00    -0.270 OA
ATOM      5  N   UNL     1      12.569   8.479   5.977  0.00  0.00    -0.297 N 
ATOM      8  C   UNL     1      11.509   6.235   6.112  0.00  0.00    +0.012 C 
ATOM      9  C   UNL     1      10.778   6.701   7.398  0.00  0.00    +0.006 C 
ATOM     10  C   UNL     1      10.586   8.227   7.417  0.00  0.00    +0.023 C 
ATOM     11  C   UNL     1      12.815   7.030   5.933  0.00  0.00    +0.112 C 
ATOM     13  C   UNL     1      11.908   8.954   7.190  0.00  0.00    +0.108 C 
ATOM     16  C   UNL     1      12.903   9.390   4.972  0.00  0.00    +0.247 C 
ENDROOT
BRANCH  16  18
ATOM      1 CL   UNL     1      17.231   8.312   2.331  0.00  0.00    -0.062 Cl
ATOM      7  N   UNL     1      14.821   7.897   1.470  0.00  0.00    -0.244 NA
ATOM     18  C   UNL     1      13.564   8.876   3.767  0.00  0.00    +0.041 A 
ATOM     21  C   UNL     1      14.952   8.862   3.683  0.00  0.00    +0.053 A 
ATOM     22  C   UNL     1      12.804   8.401   2.704  0.00  0.00    +0.033 A 
ATOM     25  C   UNL     1      15.527   8.367   2.524  0.00  0.00    +0.130 A 
ATOM     26  C   UNL     1      13.475   7.926   1.588  0.00  0.00    +0.113 A 
ENDBRANCH  16  18
BRANCH   8  12
ATOM     12  C   UNL     1      10.653   6.324   4.842  0.00  0.00    +0.024 C 
BRANCH  12  15
ATOM     15  C   UNL     1      10.739   5.064   3.995  0.00  0.00    +0.105 C 
BRANCH  15   6
ATOM      6  N   UNL     1      10.643   5.381   2.591  0.00  0.00    -0.333 N 
ATOM     20  C   UNL     1       9.755   6.467   2.177  0.00  0.00    +0.129 C 
BRANCH   6  19
ATOM     19  C   UNL     1      11.374   4.668   1.629  0.00  0.00    +0.029 A 
ATOM     23  C   UNL     1      12.480   3.910   2.014  0.00  0.00    +0.023 A 
ATOM     24  C   UNL     1      10.995   4.716   0.288  0.00  0.00    +0.023 A 
ATOM     27  C   UNL     1      13.207   3.201   1.058  0.00  0.00    +0.002 A 
ATOM     28  C   UNL     1      11.723   4.008  -0.669  0.00  0.00    +0.002 A 
ATOM     29  C   UNL     1      12.828   3.250  -0.283  0.00  0.00    +0.000 A 
ENDBRANCH   6  19
ENDBRANCH  15   6
ENDBRANCH  12  15
ENDBRANCH   8  12
BRANCH   9  14
ATOM     14  C   UNL     1       9.446   5.987   7.624  0.00  0.00    +0.124 C 
BRANCH  14  17
ATOM      4  O   UNL     1       8.979   4.937   9.773  0.00  0.00    -0.251 OA
ATOM     17  C   UNL     1       9.554   4.938   8.695  0.00  0.00    +0.305 C 
BRANCH  17   3
ATOM      3  O   UNL     1      10.403   3.958   8.292  0.00  0.00    -0.481 OA
ATOM     30  H   UNL     1       9.971   3.077   8.290  0.00  0.00    +0.295 HD
ENDBRANCH  17   3
ENDBRANCH  14  17
ENDBRANCH   9  14
TORSDOF 8
ENDMDL
