MODEL 1
REMARK VINA RESULT:      -7.1      0.000      0.000
REMARK  Name = 51138087
REMARK  10 active torsions:
REMARK  status: ('A' for Active; 'I' for Inactive)
REMARK    1  A    between atoms: N_3  and  C_10
REMARK    2  A    between atoms: N_4  and  C_24
REMARK    3  A    between atoms: N_5  and  C_30
REMARK    4  A    between atoms: C_7  and  C_10
REMARK    5  A    between atoms: C_11  and  C_17
REMARK    6  A    between atoms: C_12  and  C_18
REMARK    7  A    between atoms: C_17  and  C_20
REMARK    8  A    between atoms: C_20  and  C_26
REMARK    9  A    between atoms: C_20  and  C_27
REMARK   10  A    between atoms: C_24  and  C_28
REMARK                            x       y       z     vdW  Elec       q    Type
REMARK                         _______ _______ _______ _____ _____    ______ ____
ROOT
ATOM      2  N   UNL     1      -6.634 -10.898  16.159  0.00  0.00    -0.299 NA
ATOM      4  N   UNL     1      -3.913 -10.222  11.959  0.00  0.00    -0.339 N 
ATOM     11  C   UNL     1      -5.242 -10.755  16.605  0.00  0.00    +0.085 C 
ATOM     12  C   UNL     1      -7.135  -9.788  15.362  0.00  0.00    +0.145 C 
ATOM     13  C   UNL     1      -7.038 -10.082  13.866  0.00  0.00    +0.065 C 
ATOM     14  C   UNL     1      -4.185 -10.720  15.498  0.00  0.00    -0.021 A 
ATOM     15  C   UNL     1      -4.448 -10.477  14.119  0.00  0.00    +0.008 A 
ATOM     16  C   UNL     1      -5.639 -10.199  13.363  0.00  0.00    -0.020 A 
ATOM     19  C   UNL     1      -3.386 -10.458  13.207  0.00  0.00    +0.050 A 
ATOM     21  C   UNL     1      -5.264 -10.060  12.042  0.00  0.00    +0.091 A 
ATOM     22  C   UNL     1      -2.820 -10.861  15.858  0.00  0.00    +0.006 A 
ATOM     23  C   UNL     1      -2.053 -10.646  13.575  0.00  0.00    +0.026 A 
ATOM     25  C   UNL     1      -1.785 -10.836  14.924  0.00  0.00    +0.002 A 
ATOM     32  H   UNL     1      -6.772 -11.788  15.681  0.00  0.00    +0.123 HD
ENDROOT
BRANCH  12  18
ATOM      1  O   UNL     1      -9.406 -10.512  15.464  0.00  0.00    -0.274 OA
ATOM      3  N   UNL     1      -8.834  -8.459  16.401  0.00  0.00    -0.314 N 
ATOM     18  C   UNL     1      -8.577  -9.650  15.742  0.00  0.00    +0.230 C 
ATOM     33  H   UNL     1      -8.066  -7.825  16.605  0.00  0.00    +0.149 HD
BRANCH   3  10
ATOM     10  C   UNL     1     -10.151  -8.074  16.854  0.00  0.00    +0.107 C 
BRANCH  10   7
ATOM      7  C   UNL     1     -10.913  -7.388  15.772  0.00  0.00    +0.006 C 
ATOM      8  C   UNL     1     -12.315  -6.926  16.042  0.00  0.00    +0.005 C 
ATOM      9  C   UNL     1     -11.210  -5.923  15.899  0.00  0.00    +0.005 C 
ENDBRANCH  10   7
ENDBRANCH   3  10
ENDBRANCH  12  18
BRANCH  11  17
ATOM     17  C   UNL     1      -5.027 -11.917  17.591  0.00  0.00    +0.026 C 
BRANCH  17  20
ATOM     20  C   UNL     1      -4.674 -11.446  19.006  0.00  0.00    -0.015 C 
ATOM     26  C   UNL     1      -3.581 -12.349  19.580  0.00  0.00    +0.007 C 
ATOM     27  C   UNL     1      -5.883 -11.438  19.942  0.00  0.00    +0.007 C 
ENDBRANCH  17  20
ENDBRANCH  11  17
BRANCH   4  24
ATOM     24  C   UNL     1      -3.157 -10.136  10.728  0.00  0.00    +0.196 C 
BRANCH  24  28
ATOM      5  N   UNL     1      -4.397 -11.421   8.952  0.00  0.00    -0.336 N 
ATOM      6  N   UNL     1      -4.486  -9.207   8.804  0.00  0.00    -0.239 NA
ATOM     28  C   UNL     1      -4.016 -10.224   9.490  0.00  0.00    +0.129 A 
ATOM     29  C   UNL     1      -5.159 -11.150   7.850  0.00  0.00    +0.106 A 
ATOM     30  C   UNL     1      -4.064 -12.738   9.443  0.00  0.00    +0.150 C 
ATOM     31  C   UNL     1      -5.200  -9.778   7.780  0.00  0.00    +0.130 A 
ENDBRANCH  24  28
ENDBRANCH   4  24
TORSDOF 7
ENDMDL
MODEL 2
REMARK VINA RESULT:      -6.9      1.586      1.948
REMARK  Name = 51138087
REMARK  10 active torsions:
REMARK  status: ('A' for Active; 'I' for Inactive)
REMARK    1  A    between atoms: N_3  and  C_10
REMARK    2  A    between atoms: N_4  and  C_24
REMARK    3  A    between atoms: N_5  and  C_30
REMARK    4  A    between atoms: C_7  and  C_10
REMARK    5  A    between atoms: C_11  and  C_17
REMARK    6  A    between atoms: C_12  and  C_18
REMARK    7  A    between atoms: C_17  and  C_20
REMARK    8  A    between atoms: C_20  and  C_26
REMARK    9  A    between atoms: C_20  and  C_27
REMARK   10  A    between atoms: C_24  and  C_28
REMARK                            x       y       z     vdW  Elec       q    Type
REMARK                         _______ _______ _______ _____ _____    ______ ____
ROOT
ATOM      2  N   UNL     1      -6.968 -11.054  16.489  0.00  0.00    -0.299 NA
ATOM      4  N   UNL     1      -3.834 -10.302  12.601  0.00  0.00    -0.339 N 
ATOM     11  C   UNL     1      -5.632 -10.899  17.079  0.00  0.00    +0.085 C 
ATOM     12  C   UNL     1      -7.398  -9.942  15.655  0.00  0.00    +0.145 C 
ATOM     13  C   UNL     1      -7.142 -10.219  14.174  0.00  0.00    +0.065 C 
ATOM     14  C   UNL     1      -4.466 -10.840  16.087  0.00  0.00    -0.021 A 
ATOM     15  C   UNL     1      -4.587 -10.586  14.691  0.00  0.00    +0.008 A 
ATOM     16  C   UNL     1      -5.697 -10.314  13.818  0.00  0.00    -0.020 A 
ATOM     19  C   UNL     1      -3.437 -10.544  13.895  0.00  0.00    +0.050 A 
ATOM     21  C   UNL     1      -5.189 -10.156  12.544  0.00  0.00    +0.091 A 
ATOM     22  C   UNL     1      -3.144 -10.969  16.586  0.00  0.00    +0.006 A 
ATOM     23  C   UNL     1      -2.147 -10.721  14.397  0.00  0.00    +0.026 A 
ATOM     25  C   UNL     1      -2.018 -10.922  15.765  0.00  0.00    +0.002 A 
ATOM     32  H   UNL     1      -7.045 -11.940  15.990  0.00  0.00    +0.123 HD
ENDROOT
BRANCH  12  18
ATOM      1  O   UNL     1      -9.603  -9.212  15.109  0.00  0.00    -0.274 OA
ATOM      3  N   UNL     1      -9.274 -10.455  17.050  0.00  0.00    -0.314 N 
ATOM     18  C   UNL     1      -8.873  -9.824  15.884  0.00  0.00    +0.230 C 
ATOM     33  H   UNL     1      -8.588 -10.958  17.607  0.00  0.00    +0.149 HD
BRANCH   3  10
ATOM     10  C   UNL     1     -10.643 -10.468  17.511  0.00  0.00    +0.107 C 
BRANCH  10   7
ATOM      7  C   UNL     1     -10.787  -9.726  18.796  0.00  0.00    +0.006 C 
ATOM      8  C   UNL     1     -11.911 -10.078  19.725  0.00  0.00    +0.005 C 
ATOM      9  C   UNL     1     -10.499 -10.431  20.088  0.00  0.00    +0.005 C 
ENDBRANCH  10   7
ENDBRANCH   3  10
ENDBRANCH  12  18
BRANCH  11  17
ATOM     17  C   UNL     1      -5.505 -12.070  18.070  0.00  0.00    +0.026 C 
BRANCH  17  20
ATOM     20  C   UNL     1      -6.060 -11.741  19.460  0.00  0.00    -0.015 C 
ATOM     26  C   UNL     1      -7.413 -12.433  19.640  0.00  0.00    +0.007 C 
ATOM     27  C   UNL     1      -6.214 -10.237  19.692  0.00  0.00    +0.007 C 
ENDBRANCH  17  20
ENDBRANCH  11  17
BRANCH   4  24
ATOM     24  C   UNL     1      -2.956 -10.193  11.456  0.00  0.00    +0.196 C 
BRANCH  24  28
ATOM      5  N   UNL     1      -4.082 -11.244   9.463  0.00  0.00    -0.336 N 
ATOM      6  N   UNL     1      -4.037  -9.024   9.508  0.00  0.00    -0.239 NA
ATOM     28  C   UNL     1      -3.692 -10.123  10.141  0.00  0.00    +0.129 A 
ATOM     29  C   UNL     1      -4.716 -10.834   8.324  0.00  0.00    +0.106 A 
ATOM     30  C   UNL     1      -3.870 -12.615   9.862  0.00  0.00    +0.150 C 
ATOM     31  C   UNL     1      -4.677  -9.460   8.374  0.00  0.00    +0.130 A 
ENDBRANCH  24  28
ENDBRANCH   4  24
TORSDOF 7
ENDMDL
MODEL 3
REMARK VINA RESULT:      -6.8     23.705     26.514
REMARK  Name = 51138087
REMARK  10 active torsions:
REMARK  status: ('A' for Active; 'I' for Inactive)
REMARK    1  A    between atoms: N_3  and  C_10
REMARK    2  A    between atoms: N_4  and  C_24
REMARK    3  A    between atoms: N_5  and  C_30
REMARK    4  A    between atoms: C_7  and  C_10
REMARK    5  A    between atoms: C_11  and  C_17
REMARK    6  A    between atoms: C_12  and  C_18
REMARK    7  A    between atoms: C_17  and  C_20
REMARK    8  A    between atoms: C_20  and  C_26
REMARK    9  A    between atoms: C_20  and  C_27
REMARK   10  A    between atoms: C_24  and  C_28
REMARK                            x       y       z     vdW  Elec       q    Type
REMARK                         _______ _______ _______ _____ _____    ______ ____
ROOT
ATOM      2  N   UNL     1      11.997   6.298   5.258  0.00  0.00    -0.299 NA
ATOM      4  N   UNL     1      12.514   4.048   0.767  0.00  0.00    -0.339 N 
ATOM     11  C   UNL     1      12.921   7.145   4.493  0.00  0.00    +0.085 C 
ATOM     12  C   UNL     1      10.711   6.067   4.617  0.00  0.00    +0.145 C 
ATOM     13  C   UNL     1      10.688   4.736   3.868  0.00  0.00    +0.065 C 
ATOM     14  C   UNL     1      13.388   6.579   3.148  0.00  0.00    -0.021 A 
ATOM     15  C   UNL     1      12.764   5.509   2.446  0.00  0.00    +0.008 A 
ATOM     16  C   UNL     1      11.614   4.684   2.699  0.00  0.00    -0.020 A 
ATOM     19  C   UNL     1      13.284   5.095   1.215  0.00  0.00    +0.050 A 
ATOM     21  C   UNL     1      11.505   3.796   1.648  0.00  0.00    +0.091 A 
ATOM     22  C   UNL     1      14.480   7.204   2.492  0.00  0.00    +0.006 A 
ATOM     23  C   UNL     1      14.390   5.693   0.607  0.00  0.00    +0.026 A 
ATOM     25  C   UNL     1      14.974   6.768   1.264  0.00  0.00    +0.002 A 
ATOM     32  H   UNL     1      12.441   5.418   5.520  0.00  0.00    +0.123 HD
ENDROOT
BRANCH  12  18
ATOM      1  O   UNL     1       8.545   5.700   5.548  0.00  0.00    -0.274 OA
ATOM      3  N   UNL     1      10.273   6.383   6.950  0.00  0.00    -0.314 N 
ATOM     18  C   UNL     1       9.716   6.017   5.736  0.00  0.00    +0.230 C 
ATOM     33  H   UNL     1      11.265   6.602   6.998  0.00  0.00    +0.149 HD
BRANCH   3  10
ATOM     10  C   UNL     1       9.520   6.438   8.181  0.00  0.00    +0.107 C 
BRANCH  10   7
ATOM      7  C   UNL     1       9.961   5.377   9.131  0.00  0.00    +0.006 C 
ATOM      8  C   UNL     1       8.956   4.758  10.057  0.00  0.00    +0.005 C 
ATOM      9  C   UNL     1       9.512   3.963   8.913  0.00  0.00    +0.005 C 
ENDBRANCH  10   7
ENDBRANCH   3  10
ENDBRANCH  12  18
BRANCH  11  17
ATOM     17  C   UNL     1      14.089   7.417   5.457  0.00  0.00    +0.026 C 
BRANCH  17  20
ATOM     20  C   UNL     1      14.064   8.831   6.046  0.00  0.00    -0.015 C 
ATOM     26  C   UNL     1      13.207   9.733   5.156  0.00  0.00    +0.007 C 
ATOM     27  C   UNL     1      15.462   9.431   6.197  0.00  0.00    +0.007 C 
ENDBRANCH  17  20
ENDBRANCH  11  17
BRANCH   4  24
ATOM     24  C   UNL     1      12.717   3.320  -0.468  0.00  0.00    +0.196 C 
BRANCH  24  28
ATOM      5  N   UNL     1      12.348   4.443  -2.691  0.00  0.00    -0.336 N 
ATOM      6  N   UNL     1      10.535   3.666  -1.671  0.00  0.00    -0.239 NA
ATOM     28  C   UNL     1      11.840   3.800  -1.597  0.00  0.00    +0.129 A 
ATOM     29  C   UNL     1      11.299   4.740  -3.515  0.00  0.00    +0.106 A 
ATOM     30  C   UNL     1      13.734   4.760  -2.945  0.00  0.00    +0.150 C 
ATOM     31  C   UNL     1      10.191   4.251  -2.864  0.00  0.00    +0.130 A 
ENDBRANCH  24  28
ENDBRANCH   4  24
TORSDOF 7
ENDMDL
MODEL 4
REMARK VINA RESULT:      -6.7     27.426     29.809
REMARK  Name = 51138087
REMARK  10 active torsions:
REMARK  status: ('A' for Active; 'I' for Inactive)
REMARK    1  A    between atoms: N_3  and  C_10
REMARK    2  A    between atoms: N_4  and  C_24
REMARK    3  A    between atoms: N_5  and  C_30
REMARK    4  A    between atoms: C_7  and  C_10
REMARK    5  A    between atoms: C_11  and  C_17
REMARK    6  A    between atoms: C_12  and  C_18
REMARK    7  A    between atoms: C_17  and  C_20
REMARK    8  A    between atoms: C_20  and  C_26
REMARK    9  A    between atoms: C_20  and  C_27
REMARK   10  A    between atoms: C_24  and  C_28
REMARK                            x       y       z     vdW  Elec       q    Type
REMARK                         _______ _______ _______ _____ _____    ______ ____
ROOT
ATOM      2  N   UNL     1      13.829   8.951  18.406  0.00  0.00    -0.299 NA
ATOM      4  N   UNL     1      11.470  11.426  22.123  0.00  0.00    -0.339 N 
ATOM     11  C   UNL     1      12.945   7.966  19.042  0.00  0.00    +0.085 C 
ATOM     12  C   UNL     1      13.157  10.147  17.919  0.00  0.00    +0.145 C 
ATOM     13  C   UNL     1      13.252  11.293  18.924  0.00  0.00    +0.065 C 
ATOM     14  C   UNL     1      12.246   8.424  20.325  0.00  0.00    -0.021 A 
ATOM     15  C   UNL     1      12.114   9.777  20.750  0.00  0.00    +0.008 A 
ATOM     16  C   UNL     1      12.520  11.042  20.199  0.00  0.00    -0.020 A 
ATOM     19  C   UNL     1      11.438  10.063  21.942  0.00  0.00    +0.050 A 
ATOM     21  C   UNL     1      12.113  12.024  21.079  0.00  0.00    +0.091 A 
ATOM     22  C   UNL     1      11.606   7.450  21.134  0.00  0.00    +0.006 A 
ATOM     23  C   UNL     1      10.854   9.085  22.749  0.00  0.00    +0.026 A 
ATOM     25  C   UNL     1      10.939   7.768  22.316  0.00  0.00    +0.002 A 
ATOM     32  H   UNL     1      14.608   9.190  19.019  0.00  0.00    +0.123 HD
ENDROOT
BRANCH  12  18
ATOM      1  O   UNL     1      14.404   9.687  15.937  0.00  0.00    -0.274 OA
ATOM      3  N   UNL     1      13.918  11.899  16.476  0.00  0.00    -0.314 N 
ATOM     18  C   UNL     1      13.889  10.528  16.669  0.00  0.00    +0.230 C 
ATOM     33  H   UNL     1      13.433  12.506  17.131  0.00  0.00    +0.149 HD
BRANCH   3  10
ATOM     10  C   UNL     1      14.581  12.526  15.356  0.00  0.00    +0.107 C 
BRANCH  10   7
ATOM      7  C   UNL     1      16.048  12.648  15.598  0.00  0.00    +0.006 C 
ATOM      8  C   UNL     1      17.002  11.903  14.710  0.00  0.00    +0.005 C 
ATOM      9  C   UNL     1      16.895  13.396  14.612  0.00  0.00    +0.005 C 
ENDBRANCH  10   7
ENDBRANCH   3  10
ENDBRANCH  12  18
BRANCH  11  17
ATOM     17  C   UNL     1      13.834   6.729  19.261  0.00  0.00    +0.026 C 
BRANCH  17  20
ATOM     20  C   UNL     1      15.253   7.085  19.716  0.00  0.00    -0.015 C 
ATOM     26  C   UNL     1      16.258   6.204  18.970  0.00  0.00    +0.007 C 
ATOM     27  C   UNL     1      15.446   6.925  21.225  0.00  0.00    +0.007 C 
ENDBRANCH  17  20
ENDBRANCH  11  17
BRANCH   4  24
ATOM     24  C   UNL     1      10.894  12.141  23.241  0.00  0.00    +0.196 C 
BRANCH  24  28
ATOM      5  N   UNL     1      11.683  13.439  25.250  0.00  0.00    -0.336 N 
ATOM      6  N   UNL     1      13.031  11.826  24.533  0.00  0.00    -0.239 NA
ATOM     28  C   UNL     1      11.890  12.447  24.333  0.00  0.00    +0.129 A 
ATOM     29  C   UNL     1      12.762  13.452  26.088  0.00  0.00    +0.106 A 
ATOM     30  C   UNL     1      10.542  14.320  25.332  0.00  0.00    +0.150 C 
ATOM     31  C   UNL     1      13.580  12.448  25.626  0.00  0.00    +0.130 A 
ENDBRANCH  24  28
ENDBRANCH   4  24
TORSDOF 7
ENDMDL
MODEL 5
REMARK VINA RESULT:      -6.7     28.141     30.426
REMARK  Name = 51138087
REMARK  10 active torsions:
REMARK  status: ('A' for Active; 'I' for Inactive)
REMARK    1  A    between atoms: N_3  and  C_10
REMARK    2  A    between atoms: N_4  and  C_24
REMARK    3  A    between atoms: N_5  and  C_30
REMARK    4  A    between atoms: C_7  and  C_10
REMARK    5  A    between atoms: C_11  and  C_17
REMARK    6  A    between atoms: C_12  and  C_18
REMARK    7  A    between atoms: C_17  and  C_20
REMARK    8  A    between atoms: C_20  and  C_26
REMARK    9  A    between atoms: C_20  and  C_27
REMARK   10  A    between atoms: C_24  and  C_28
REMARK                            x       y       z     vdW  Elec       q    Type
REMARK                         _______ _______ _______ _____ _____    ______ ____
ROOT
ATOM      2  N   UNL     1      13.841   9.061  19.995  0.00  0.00    -0.299 NA
ATOM      4  N   UNL     1      18.613   8.543  21.563  0.00  0.00    -0.339 N 
ATOM     11  C   UNL     1      14.249   7.709  19.589  0.00  0.00    +0.085 C 
ATOM     12  C   UNL     1      13.976   9.337  21.417  0.00  0.00    +0.145 C 
ATOM     13  C   UNL     1      15.284  10.064  21.726  0.00  0.00    +0.065 C 
ATOM     14  C   UNL     1      15.729   7.369  19.790  0.00  0.00    -0.021 A 
ATOM     15  C   UNL     1      16.633   8.094  20.618  0.00  0.00    +0.008 A 
ATOM     16  C   UNL     1      16.505   9.248  21.466  0.00  0.00    -0.020 A 
ATOM     19  C   UNL     1      17.962   7.668  20.726  0.00  0.00    +0.050 A 
ATOM     21  C   UNL     1      17.746   9.493  22.017  0.00  0.00    +0.091 A 
ATOM     22  C   UNL     1      16.245   6.199  19.175  0.00  0.00    +0.006 A 
ATOM     23  C   UNL     1      18.464   6.540  20.075  0.00  0.00    +0.026 A 
ATOM     25  C   UNL     1      17.575   5.802  19.304  0.00  0.00    +0.002 A 
ATOM     32  H   UNL     1      14.318   9.767  19.435  0.00  0.00    +0.123 HD
ENDROOT
BRANCH  12  18
ATOM      1  O   UNL     1      12.521  11.192  21.051  0.00  0.00    -0.274 OA
ATOM      3  N   UNL     1      12.195   9.857  22.930  0.00  0.00    -0.314 N 
ATOM     18  C   UNL     1      12.825  10.233  21.755  0.00  0.00    +0.230 C 
ATOM     33  H   UNL     1      12.512   9.026  23.423  0.00  0.00    +0.149 HD
BRANCH   3  10
ATOM     10  C   UNL     1      11.070  10.571  23.487  0.00  0.00    +0.107 C 
BRANCH  10   7
ATOM      7  C   UNL     1      11.485  11.902  24.016  0.00  0.00    +0.006 C 
ATOM      8  C   UNL     1      10.973  12.352  25.353  0.00  0.00    +0.005 C 
ATOM      9  C   UNL     1      12.414  11.968  25.191  0.00  0.00    +0.005 C 
ENDBRANCH  10   7
ENDBRANCH   3  10
ENDBRANCH  12  18
BRANCH  11  17
ATOM     17  C   UNL     1      13.811   7.594  18.119  0.00  0.00    +0.026 C 
BRANCH  17  20
ATOM     20  C   UNL     1      13.286   8.915  17.544  0.00  0.00    -0.015 C 
ATOM     26  C   UNL     1      11.843   8.723  17.074  0.00  0.00    +0.007 C 
ATOM     27  C   UNL     1      14.142   9.435  16.389  0.00  0.00    +0.007 C 
ENDBRANCH  17  20
ENDBRANCH  11  17
BRANCH   4  24
ATOM     24  C   UNL     1      20.011   8.472  21.935  0.00  0.00    +0.196 C 
BRANCH  24  28
ATOM      5  N   UNL     1      20.502   9.027  24.341  0.00  0.00    -0.336 N 
ATOM      6  N   UNL     1      20.181   6.879  23.875  0.00  0.00    -0.239 NA
ATOM     28  C   UNL     1      20.227   8.096  23.380  0.00  0.00    +0.129 A 
ATOM     29  C   UNL     1      20.640   8.361  25.527  0.00  0.00    +0.106 A 
ATOM     30  C   UNL     1      20.627  10.453  24.157  0.00  0.00    +0.150 C 
ATOM     31  C   UNL     1      20.437   7.038  25.214  0.00  0.00    +0.130 A 
ENDBRANCH  24  28
ENDBRANCH   4  24
TORSDOF 7
ENDMDL
MODEL 6
REMARK VINA RESULT:      -6.7     19.894     24.771
REMARK  Name = 51138087
REMARK  10 active torsions:
REMARK  status: ('A' for Active; 'I' for Inactive)
REMARK    1  A    between atoms: N_3  and  C_10
REMARK    2  A    between atoms: N_4  and  C_24
REMARK    3  A    between atoms: N_5  and  C_30
REMARK    4  A    between atoms: C_7  and  C_10
REMARK    5  A    between atoms: C_11  and  C_17
REMARK    6  A    between atoms: C_12  and  C_18
REMARK    7  A    between atoms: C_17  and  C_20
REMARK    8  A    between atoms: C_20  and  C_26
REMARK    9  A    between atoms: C_20  and  C_27
REMARK   10  A    between atoms: C_24  and  C_28
REMARK                            x       y       z     vdW  Elec       q    Type
REMARK                         _______ _______ _______ _____ _____    ______ ____
ROOT
ATOM      2  N   UNL     1     -15.144   2.782  28.915  0.00  0.00    -0.299 NA
ATOM      4  N   UNL     1     -15.994   6.496  32.229  0.00  0.00    -0.339 N 
ATOM     11  C   UNL     1     -14.979   2.176  30.243  0.00  0.00    +0.085 C 
ATOM     12  C   UNL     1     -16.433   3.421  28.693  0.00  0.00    +0.145 C 
ATOM     13  C   UNL     1     -16.362   4.927  28.939  0.00  0.00    +0.065 C 
ATOM     14  C   UNL     1     -15.007   3.145  31.428  0.00  0.00    -0.021 A 
ATOM     15  C   UNL     1     -15.501   4.480  31.386  0.00  0.00    +0.008 A 
ATOM     16  C   UNL     1     -16.090   5.296  30.359  0.00  0.00    -0.020 A 
ATOM     19  C   UNL     1     -15.482   5.260  32.548  0.00  0.00    +0.050 A 
ATOM     21  C   UNL     1     -16.367   6.527  30.918  0.00  0.00    +0.091 A 
ATOM     22  C   UNL     1     -14.582   2.676  32.698  0.00  0.00    +0.006 A 
ATOM     23  C   UNL     1     -15.016   4.794  33.779  0.00  0.00    +0.026 A 
ATOM     25  C   UNL     1     -14.577   3.478  33.838  0.00  0.00    +0.002 A 
ATOM     32  H   UNL     1     -14.376   3.420  28.708  0.00  0.00    +0.123 HD
ENDROOT
BRANCH  12  18
ATOM      1  O   UNL     1     -17.844   2.738  26.894  0.00  0.00    -0.274 OA
ATOM      3  N   UNL     1     -15.686   3.471  26.419  0.00  0.00    -0.314 N 
ATOM     18  C   UNL     1     -16.752   3.174  27.251  0.00  0.00    +0.230 C 
ATOM     33  H   UNL     1     -14.833   3.855  26.818  0.00  0.00    +0.149 HD
BRANCH   3  10
ATOM     10  C   UNL     1     -15.729   3.299  24.985  0.00  0.00    +0.107 C 
BRANCH  10   7
ATOM      7  C   UNL     1     -15.651   4.611  24.282  0.00  0.00    +0.006 C 
ATOM      8  C   UNL     1     -14.465   4.906  23.411  0.00  0.00    +0.005 C 
ATOM      9  C   UNL     1     -15.808   4.656  22.792  0.00  0.00    +0.005 C 
ENDBRANCH  10   7
ENDBRANCH   3  10
ENDBRANCH  12  18
BRANCH  11  17
ATOM     17  C   UNL     1     -13.659   1.391  30.151  0.00  0.00    +0.026 C 
BRANCH  17  20
ATOM     20  C   UNL     1     -13.823  -0.098  30.472  0.00  0.00    -0.015 C 
ATOM     26  C   UNL     1     -13.384  -0.926  29.262  0.00  0.00    +0.007 C 
ATOM     27  C   UNL     1     -15.258  -0.464  30.854  0.00  0.00    +0.007 C 
ENDBRANCH  17  20
ENDBRANCH  11  17
BRANCH   4  24
ATOM     24  C   UNL     1     -16.141   7.608  33.144  0.00  0.00    +0.196 C 
BRANCH  24  28
ATOM      5  N   UNL     1     -14.793   9.632  32.486  0.00  0.00    -0.336 N 
ATOM      6  N   UNL     1     -13.858   8.270  33.971  0.00  0.00    -0.239 NA
ATOM     28  C   UNL     1     -14.916   8.486  33.221  0.00  0.00    +0.129 A 
ATOM     29  C   UNL     1     -13.579  10.182  32.787  0.00  0.00    +0.106 A 
ATOM     30  C   UNL     1     -15.758  10.175  31.559  0.00  0.00    +0.150 C 
ATOM     31  C   UNL     1     -13.021   9.324  33.705  0.00  0.00    +0.130 A 
ENDBRANCH  24  28
ENDBRANCH   4  24
TORSDOF 7
ENDMDL
MODEL 7
REMARK VINA RESULT:      -6.6      2.921      8.103
REMARK  Name = 51138087
REMARK  10 active torsions:
REMARK  status: ('A' for Active; 'I' for Inactive)
REMARK    1  A    between atoms: N_3  and  C_10
REMARK    2  A    between atoms: N_4  and  C_24
REMARK    3  A    between atoms: N_5  and  C_30
REMARK    4  A    between atoms: C_7  and  C_10
REMARK    5  A    between atoms: C_11  and  C_17
REMARK    6  A    between atoms: C_12  and  C_18
REMARK    7  A    between atoms: C_17  and  C_20
REMARK    8  A    between atoms: C_20  and  C_26
REMARK    9  A    between atoms: C_20  and  C_27
REMARK   10  A    between atoms: C_24  and  C_28
REMARK                            x       y       z     vdW  Elec       q    Type
REMARK                         _______ _______ _______ _____ _____    ______ ____
ROOT
ATOM      2  N   UNL     1      -5.625  -9.715  15.018  0.00  0.00    -0.299 NA
ATOM      4  N   UNL     1      -8.777 -10.623  18.857  0.00  0.00    -0.339 N 
ATOM     11  C   UNL     1      -4.912 -10.640  15.908  0.00  0.00    +0.085 C 
ATOM     12  C   UNL     1      -6.920 -10.193  14.554  0.00  0.00    +0.145 C 
ATOM     13  C   UNL     1      -8.061  -9.635  15.403  0.00  0.00    +0.065 C 
ATOM     14  C   UNL     1      -5.588 -10.931  17.251  0.00  0.00    -0.021 A 
ATOM     15  C   UNL     1      -6.954 -10.667  17.557  0.00  0.00    +0.008 A 
ATOM     16  C   UNL     1      -8.056 -10.117  16.814  0.00  0.00    -0.020 A 
ATOM     19  C   UNL     1      -7.453 -10.994  18.822  0.00  0.00    +0.050 A 
ATOM     21  C   UNL     1      -9.151 -10.100  17.654  0.00  0.00    +0.091 A 
ATOM     22  C   UNL     1      -4.837 -11.585  18.261  0.00  0.00    +0.006 A 
ATOM     23  C   UNL     1      -6.685 -11.596  19.821  0.00  0.00    +0.026 A 
ATOM     25  C   UNL     1      -5.365 -11.899  19.512  0.00  0.00    +0.002 A 
ATOM     32  H   UNL     1      -5.703  -8.791  15.441  0.00  0.00    +0.123 HD
ENDROOT
BRANCH  12  18
ATOM      1  O   UNL     1      -8.123  -9.698  12.554  0.00  0.00    -0.274 OA
ATOM      3  N   UNL     1      -5.847  -9.216  12.650  0.00  0.00    -0.314 N 
ATOM     18  C   UNL     1      -7.051  -9.677  13.154  0.00  0.00    +0.230 C 
ATOM     33  H   UNL     1      -5.023  -9.219  13.244  0.00  0.00    +0.149 HD
BRANCH   3  10
ATOM     10  C   UNL     1      -5.701  -8.687  11.313  0.00  0.00    +0.107 C 
BRANCH  10   7
ATOM      7  C   UNL     1      -4.809  -9.551  10.487  0.00  0.00    +0.006 C 
ATOM      8  C   UNL     1      -4.340  -9.055   9.151  0.00  0.00    +0.005 C 
ATOM      9  C   UNL     1      -3.376  -9.155  10.295  0.00  0.00    +0.005 C 
ENDBRANCH  10   7
ENDBRANCH   3  10
ENDBRANCH  12  18
BRANCH  11  17
ATOM     17  C   UNL     1      -3.513 -10.021  16.073  0.00  0.00    +0.026 C 
BRANCH  17  20
ATOM     20  C   UNL     1      -2.428 -10.775  15.296  0.00  0.00    -0.015 C 
ATOM     26  C   UNL     1      -1.051 -10.329  15.790  0.00  0.00    +0.007 C 
ATOM     27  C   UNL     1      -2.530 -10.562  13.785  0.00  0.00    +0.007 C 
ENDBRANCH  17  20
ENDBRANCH  11  17
BRANCH   4  24
ATOM     24  C   UNL     1      -9.666 -10.776  19.990  0.00  0.00    +0.196 C 
BRANCH  24  28
ATOM      5  N   UNL     1     -11.843 -12.035  20.110  0.00  0.00    -0.336 N 
ATOM      6  N   UNL     1     -10.024 -13.254  19.736  0.00  0.00    -0.239 NA
ATOM     28  C   UNL     1     -10.487 -12.041  19.940  0.00  0.00    +0.129 A 
ATOM     29  C   UNL     1     -12.273 -13.329  20.009  0.00  0.00    +0.106 A 
ATOM     30  C   UNL     1     -12.682 -10.886  20.354  0.00  0.00    +0.150 C 
ATOM     31  C   UNL     1     -11.133 -14.062  19.778  0.00  0.00    +0.130 A 
ENDBRANCH  24  28
ENDBRANCH   4  24
TORSDOF 7
ENDMDL
MODEL 8
REMARK VINA RESULT:      -6.6     28.132     30.920
REMARK  Name = 51138087
REMARK  10 active torsions:
REMARK  status: ('A' for Active; 'I' for Inactive)
REMARK    1  A    between atoms: N_3  and  C_10
REMARK    2  A    between atoms: N_4  and  C_24
REMARK    3  A    between atoms: N_5  and  C_30
REMARK    4  A    between atoms: C_7  and  C_10
REMARK    5  A    between atoms: C_11  and  C_17
REMARK    6  A    between atoms: C_12  and  C_18
REMARK    7  A    between atoms: C_17  and  C_20
REMARK    8  A    between atoms: C_20  and  C_26
REMARK    9  A    between atoms: C_20  and  C_27
REMARK   10  A    between atoms: C_24  and  C_28
REMARK                            x       y       z     vdW  Elec       q    Type
REMARK                         _______ _______ _______ _____ _____    ______ ____
ROOT
ATOM      2  N   UNL     1      19.308   8.553  21.165  0.00  0.00    -0.299 NA
ATOM      4  N   UNL     1      14.551   7.719  19.693  0.00  0.00    -0.339 N 
ATOM     11  C   UNL     1      18.595   9.817  21.391  0.00  0.00    +0.085 C 
ATOM     12  C   UNL     1      18.729   7.398  21.835  0.00  0.00    +0.145 C 
ATOM     13  C   UNL     1      17.825   6.600  20.897  0.00  0.00    +0.065 C 
ATOM     14  C   UNL     1      17.163   9.882  20.850  0.00  0.00    -0.021 A 
ATOM     15  C   UNL     1      16.377   8.757  20.470  0.00  0.00    +0.008 A 
ATOM     16  C   UNL     1      16.601   7.336  20.466  0.00  0.00    -0.020 A 
ATOM     19  C   UNL     1      15.073   8.953  20.002  0.00  0.00    +0.050 A 
ATOM     21  C   UNL     1      15.458   6.741  19.972  0.00  0.00    +0.091 A 
ATOM     22  C   UNL     1      16.519  11.145  20.786  0.00  0.00    +0.006 A 
ATOM     23  C   UNL     1      14.472  10.209  19.902  0.00  0.00    +0.026 A 
ATOM     25  C   UNL     1      15.217  11.306  20.316  0.00  0.00    +0.002 A 
ATOM     32  H   UNL     1      19.431   8.378  20.168  0.00  0.00    +0.123 HD
ENDROOT
BRANCH  12  18
ATOM      1  O   UNL     1      20.080   6.204  23.398  0.00  0.00    -0.274 OA
ATOM      3  N   UNL     1      20.710   6.237  21.157  0.00  0.00    -0.314 N 
ATOM     18  C   UNL     1      19.896   6.548  22.233  0.00  0.00    +0.230 C 
ATOM     33  H   UNL     1      20.449   6.552  20.226  0.00  0.00    +0.149 HD
BRANCH   3  10
ATOM     10  C   UNL     1      21.914   5.447  21.279  0.00  0.00    +0.107 C 
BRANCH  10   7
ATOM      7  C   UNL     1      21.598   3.991  21.341  0.00  0.00    +0.006 C 
ATOM      8  C   UNL     1      22.700   2.993  21.142  0.00  0.00    +0.005 C 
ATOM      9  C   UNL     1      22.095   3.182  22.502  0.00  0.00    +0.005 C 
ENDBRANCH  10   7
ENDBRANCH   3  10
ENDBRANCH  12  18
BRANCH  11  17
ATOM     17  C   UNL     1      19.507  10.895  20.779  0.00  0.00    +0.026 C 
BRANCH  17  20
ATOM     20  C   UNL     1      20.998  10.569  20.920  0.00  0.00    -0.015 C 
ATOM     26  C   UNL     1      21.534  11.202  22.205  0.00  0.00    +0.007 C 
ATOM     27  C   UNL     1      21.821  11.049  19.724  0.00  0.00    +0.007 C 
ENDBRANCH  17  20
ENDBRANCH  11  17
BRANCH   4  24
ATOM     24  C   UNL     1      13.225   7.473  19.164  0.00  0.00    +0.196 C 
BRANCH  24  28
ATOM      5  N   UNL     1      11.425   7.962  20.855  0.00  0.00    -0.336 N 
ATOM      6  N   UNL     1      12.015   5.832  20.639  0.00  0.00    -0.239 NA
ATOM     28  C   UNL     1      12.228   7.058  20.218  0.00  0.00    +0.129 A 
ATOM     29  C   UNL     1      10.649   7.267  21.740  0.00  0.00    +0.106 A 
ATOM     30  C   UNL     1      11.390   9.390  20.646  0.00  0.00    +0.150 C 
ATOM     31  C   UNL     1      11.031   5.955  21.588  0.00  0.00    +0.130 A 
ENDBRANCH  24  28
ENDBRANCH   4  24
TORSDOF 7
ENDMDL
MODEL 9
REMARK VINA RESULT:      -6.4      5.186      8.541
REMARK  Name = 51138087
REMARK  10 active torsions:
REMARK  status: ('A' for Active; 'I' for Inactive)
REMARK    1  A    between atoms: N_3  and  C_10
REMARK    2  A    between atoms: N_4  and  C_24
REMARK    3  A    between atoms: N_5  and  C_30
REMARK    4  A    between atoms: C_7  and  C_10
REMARK    5  A    between atoms: C_11  and  C_17
REMARK    6  A    between atoms: C_12  and  C_18
REMARK    7  A    between atoms: C_17  and  C_20
REMARK    8  A    between atoms: C_20  and  C_26
REMARK    9  A    between atoms: C_20  and  C_27
REMARK   10  A    between atoms: C_24  and  C_28
REMARK                            x       y       z     vdW  Elec       q    Type
REMARK                         _______ _______ _______ _____ _____    ______ ____
ROOT
ATOM      2  N   UNL     1      -9.955  -9.374  18.455  0.00  0.00    -0.299 NA
ATOM      4  N   UNL     1     -12.611  -6.501  15.263  0.00  0.00    -0.339 N 
ATOM     11  C   UNL     1     -11.277 -10.006  18.357  0.00  0.00    +0.085 C 
ATOM     12  C   UNL     1      -9.268  -9.200  17.184  0.00  0.00    +0.145 C 
ATOM     13  C   UNL     1      -9.465  -7.791  16.628  0.00  0.00    +0.065 C 
ATOM     14  C   UNL     1     -12.339  -9.219  17.584  0.00  0.00    -0.021 A 
ATOM     15  C   UNL     1     -12.074  -8.138  16.695  0.00  0.00    +0.008 A 
ATOM     16  C   UNL     1     -10.874  -7.484  16.247  0.00  0.00    -0.020 A 
ATOM     19  C   UNL     1     -13.137  -7.509  16.037  0.00  0.00    +0.050 A 
ATOM     21  C   UNL     1     -11.253  -6.480  15.378  0.00  0.00    +0.091 A 
ATOM     22  C   UNL     1     -13.694  -9.628  17.683  0.00  0.00    +0.006 A 
ATOM     23  C   UNL     1     -14.470  -7.897  16.184  0.00  0.00    +0.026 A 
ATOM     25  C   UNL     1     -14.730  -8.981  17.012  0.00  0.00    +0.002 A 
ATOM     32  H   UNL     1     -10.009  -8.495  18.969  0.00  0.00    +0.123 HD
ENDROOT
BRANCH  12  18
ATOM      1  O   UNL     1      -6.939  -9.163  16.665  0.00  0.00    -0.274 OA
ATOM      3  N   UNL     1      -7.615  -9.914  18.762  0.00  0.00    -0.314 N 
ATOM     18  C   UNL     1      -7.816  -9.409  17.489  0.00  0.00    +0.230 C 
ATOM     33  H   UNL     1      -8.414 -10.055  19.375  0.00  0.00    +0.149 HD
BRANCH   3  10
ATOM     10  C   UNL     1      -6.307 -10.224  19.292  0.00  0.00    +0.107 C 
BRANCH  10   7
ATOM      7  C   UNL     1      -5.728 -11.426  18.627  0.00  0.00    +0.006 C 
ATOM      8  C   UNL     1      -4.413 -11.306  17.913  0.00  0.00    +0.005 C 
ATOM      9  C   UNL     1      -4.500 -12.065  19.205  0.00  0.00    +0.005 C 
ENDBRANCH  10   7
ENDBRANCH   3  10
ENDBRANCH  12  18
BRANCH  11  17
ATOM     17  C   UNL     1     -11.688 -10.277  19.816  0.00  0.00    +0.026 C 
BRANCH  17  20
ATOM     20  C   UNL     1     -11.919 -11.763  20.107  0.00  0.00    -0.015 C 
ATOM     26  C   UNL     1     -12.980 -11.904  21.201  0.00  0.00    +0.007 C 
ATOM     27  C   UNL     1     -10.640 -12.486  20.532  0.00  0.00    +0.007 C 
ENDBRANCH  17  20
ENDBRANCH  11  17
BRANCH   4  24
ATOM     24  C   UNL     1     -13.371  -5.596  14.427  0.00  0.00    +0.196 C 
BRANCH  24  28
ATOM      5  N   UNL     1     -13.087  -6.583  12.128  0.00  0.00    -0.336 N 
ATOM      6  N   UNL     1     -12.236  -4.554  12.438  0.00  0.00    -0.239 NA
ATOM     28  C   UNL     1     -12.885  -5.549  13.000  0.00  0.00    +0.129 A 
ATOM     29  C   UNL     1     -12.529  -6.223  10.933  0.00  0.00    +0.106 A 
ATOM     30  C   UNL     1     -13.761  -7.830  12.402  0.00  0.00    +0.150 C 
ATOM     31  C   UNL     1     -12.011  -4.968  11.149  0.00  0.00    +0.130 A 
ENDBRANCH  24  28
ENDBRANCH   4  24
TORSDOF 7
ENDMDL
MODEL 10
REMARK VINA RESULT:      -6.3     28.252     30.563
REMARK  Name = 51138087
REMARK  10 active torsions:
REMARK  status: ('A' for Active; 'I' for Inactive)
REMARK    1  A    between atoms: N_3  and  C_10
REMARK    2  A    between atoms: N_4  and  C_24
REMARK    3  A    between atoms: N_5  and  C_30
REMARK    4  A    between atoms: C_7  and  C_10
REMARK    5  A    between atoms: C_11  and  C_17
REMARK    6  A    between atoms: C_12  and  C_18
REMARK    7  A    between atoms: C_17  and  C_20
REMARK    8  A    between atoms: C_20  and  C_26
REMARK    9  A    between atoms: C_20  and  C_27
REMARK   10  A    between atoms: C_24  and  C_28
REMARK                            x       y       z     vdW  Elec       q    Type
REMARK                         _______ _______ _______ _____ _____    ______ ____
ROOT
ATOM      2  N   UNL     1      14.665   8.821  20.981  0.00  0.00    -0.299 NA
ATOM      4  N   UNL     1      19.382   7.120  21.572  0.00  0.00    -0.339 N 
ATOM     11  C   UNL     1      15.541   9.926  20.570  0.00  0.00    +0.085 C 
ATOM     12  C   UNL     1      14.884   7.572  20.266  0.00  0.00    +0.145 C 
ATOM     13  C   UNL     1      15.790   6.626  21.052  0.00  0.00    +0.065 C 
ATOM     14  C   UNL     1      17.037   9.725  20.830  0.00  0.00    -0.021 A 
ATOM     15  C   UNL     1      17.662   8.476  21.106  0.00  0.00    +0.008 A 
ATOM     16  C   UNL     1      17.187   7.123  21.214  0.00  0.00    -0.020 A 
ATOM     19  C   UNL     1      19.045   8.427  21.311  0.00  0.00    +0.050 A 
ATOM     21  C   UNL     1      18.274   6.327  21.511  0.00  0.00    +0.091 A 
ATOM     22  C   UNL     1      17.901  10.845  20.717  0.00  0.00    +0.006 A 
ATOM     23  C   UNL     1      19.873   9.549  21.242  0.00  0.00    +0.026 A 
ATOM     25  C   UNL     1      19.276  10.763  20.927  0.00  0.00    +0.002 A 
ATOM     32  H   UNL     1      14.706   8.680  21.990  0.00  0.00    +0.123 HD
ENDROOT
BRANCH  12  18
ATOM      1  O   UNL     1      13.060   6.647  19.037  0.00  0.00    -0.274 OA
ATOM      3  N   UNL     1      12.895   6.802  21.354  0.00  0.00    -0.314 N 
ATOM     18  C   UNL     1      13.526   6.953  20.131  0.00  0.00    +0.230 C 
ATOM     33  H   UNL     1      13.385   7.065  22.205  0.00  0.00    +0.149 HD
BRANCH   3  10
ATOM     10  C   UNL     1      11.567   6.249  21.495  0.00  0.00    +0.107 C 
BRANCH  10   7
ATOM      7  C   UNL     1      10.542   7.328  21.589  0.00  0.00    +0.006 C 
ATOM      8  C   UNL     1      10.622   8.320  22.712  0.00  0.00    +0.005 C 
ATOM      9  C   UNL     1      10.942   8.747  21.310  0.00  0.00    +0.005 C 
ENDBRANCH  10   7
ENDBRANCH   3  10
ENDBRANCH  12  18
BRANCH  11  17
ATOM     17  C   UNL     1      14.976  11.161  21.293  0.00  0.00    +0.026 C 
BRANCH  17  20
ATOM     20  C   UNL     1      14.732  10.922  22.787  0.00  0.00    -0.015 C 
ATOM     26  C   UNL     1      13.258  11.178  23.106  0.00  0.00    +0.007 C 
ATOM     27  C   UNL     1      15.614  11.800  23.676  0.00  0.00    +0.007 C 
ENDBRANCH  17  20
ENDBRANCH  11  17
BRANCH   4  24
ATOM     24  C   UNL     1      20.716   6.633  21.853  0.00  0.00    +0.196 C 
BRANCH  24  28
ATOM      5  N   UNL     1      22.151   5.981  23.818  0.00  0.00    -0.336 N 
ATOM      6  N   UNL     1      20.374   7.234  24.273  0.00  0.00    -0.239 NA
ATOM     28  C   UNL     1      21.056   6.634  23.324  0.00  0.00    +0.129 A 
ATOM     29  C   UNL     1      22.167   6.178  25.170  0.00  0.00    +0.106 A 
ATOM     30  C   UNL     1      23.120   5.221  23.066  0.00  0.00    +0.150 C 
ATOM     31  C   UNL     1      21.062   6.954  25.427  0.00  0.00    +0.130 A 
ENDBRANCH  24  28
ENDBRANCH   4  24
TORSDOF 7
ENDMDL
