MODEL 1
REMARK VINA RESULT:      -6.2      0.000      0.000
REMARK  Name = 28962402
REMARK  8 active torsions:
REMARK  status: ('A' for Active; 'I' for Inactive)
REMARK    1  A    between atoms: O_2  and  C_8
REMARK    2  A    between atoms: O_3  and  C_17
REMARK    3  A    between atoms: N_4  and  C_6
REMARK    4  A    between atoms: N_5  and  C_12
REMARK    5  A    between atoms: N_5  and  C_16
REMARK    6  A    between atoms: C_7  and  C_12
REMARK    7  A    between atoms: C_9  and  C_17
REMARK    8  A    between atoms: C_13  and  C_22
REMARK                            x       y       z     vdW  Elec       q    Type
REMARK                         _______ _______ _______ _____ _____    ______ ____
ROOT
ATOM      1  O   UNL     1      11.213   7.868  19.937  0.00  0.00    -0.366 OA
ATOM      6  C   UNL     1      11.408   9.804  21.310  0.00  0.00    +0.118 C 
ATOM      7  C   UNL     1      11.642   9.247  19.899  0.00  0.00    +0.152 C 
ATOM      8  C   UNL     1      11.483   8.561  22.184  0.00  0.00    +0.165 C 
ATOM      9  C   UNL     1      10.806   7.539  21.279  0.00  0.00    +0.174 C 
ENDROOT
BRANCH   6   4
ATOM      4  N   UNL     1      12.267  10.902  21.718  0.00  0.00    -0.295 NA
ATOM     10  C   UNL     1      12.188  11.103  23.170  0.00  0.00    +0.085 C 
ATOM     11  C   UNL     1      11.911  12.129  20.992  0.00  0.00    +0.085 C 
ATOM     13  C   UNL     1      12.834  13.530  22.884  0.00  0.00    -0.012 C 
ATOM     14  C   UNL     1      13.128  12.222  23.624  0.00  0.00    +0.018 C 
ATOM     15  C   UNL     1      12.841  13.283  21.371  0.00  0.00    +0.018 C 
ATOM     22  C   UNL     1      13.837  14.614  23.267  0.00  0.00    +0.007 C 
ENDBRANCH   6   4
BRANCH   8   2
ATOM      2  O   UNL     1      12.830   8.184  22.437  0.00  0.00    -0.388 OA
ATOM     25  H   UNL     1      12.946   8.136  23.401  0.00  0.00    +0.210 HD
ENDBRANCH   8   2
BRANCH   7  12
ATOM     12  C   UNL     1      13.079   9.261  19.389  0.00  0.00    +0.114 C 
BRANCH  12   5
ATOM      5  N   UNL     1      13.611   7.910  19.297  0.00  0.00    -0.311 NA
ATOM     24  H   UNL     1      13.325   7.504  18.405  0.00  0.00    +0.122 HD
BRANCH   5  16
ATOM     16  C   UNL     1      15.070   7.914  19.390  0.00  0.00    +0.054 C 
ATOM     18  C   UNL     1      15.518   8.854  20.514  0.00  0.00    +0.019 C 
ATOM     19  C   UNL     1      15.581   6.489  19.625  0.00  0.00    +0.019 C 
ATOM     20  C   UNL     1      17.034   8.827  20.691  0.00  0.00    +0.002 C 
ATOM     21  C   UNL     1      17.098   6.464  19.803  0.00  0.00    +0.002 C 
ATOM     23  C   UNL     1      17.550   7.407  20.914  0.00  0.00    +0.000 C 
ENDBRANCH   5  16
ENDBRANCH  12   5
ENDBRANCH   7  12
BRANCH   9  17
ATOM     17  C   UNL     1      11.148   6.087  21.563  0.00  0.00    +0.190 C 
BRANCH  17   3
ATOM      3  O   UNL     1      12.473   5.834  21.126  0.00  0.00    -0.392 OA
ATOM     26  H   UNL     1      12.451   5.788  20.155  0.00  0.00    +0.210 HD
ENDBRANCH  17   3
ENDBRANCH   9  17
TORSDOF 7
ENDMDL
MODEL 2
REMARK VINA RESULT:      -6.1      2.869      4.016
REMARK  Name = 28962402
REMARK  8 active torsions:
REMARK  status: ('A' for Active; 'I' for Inactive)
REMARK    1  A    between atoms: O_2  and  C_8
REMARK    2  A    between atoms: O_3  and  C_17
REMARK    3  A    between atoms: N_4  and  C_6
REMARK    4  A    between atoms: N_5  and  C_12
REMARK    5  A    between atoms: N_5  and  C_16
REMARK    6  A    between atoms: C_7  and  C_12
REMARK    7  A    between atoms: C_9  and  C_17
REMARK    8  A    between atoms: C_13  and  C_22
REMARK                            x       y       z     vdW  Elec       q    Type
REMARK                         _______ _______ _______ _____ _____    ______ ____
ROOT
ATOM      1  O   UNL     1      11.903   6.655  20.921  0.00  0.00    -0.366 OA
ATOM      6  C   UNL     1      12.227   8.083  19.044  0.00  0.00    +0.118 C 
ATOM      7  C   UNL     1      12.774   6.857  19.786  0.00  0.00    +0.152 C 
ATOM      8  C   UNL     1      11.508   8.854  20.141  0.00  0.00    +0.165 C 
ATOM      9  C   UNL     1      10.919   7.706  20.951  0.00  0.00    +0.174 C 
ENDROOT
BRANCH   6   4
ATOM      4  N   UNL     1      13.190   8.851  18.275  0.00  0.00    -0.295 NA
ATOM     10  C   UNL     1      12.868  10.283  18.332  0.00  0.00    +0.085 C 
ATOM     11  C   UNL     1      13.238   8.373  16.886  0.00  0.00    +0.085 C 
ATOM     13  C   UNL     1      14.031  10.647  16.116  0.00  0.00    -0.012 C 
ATOM     14  C   UNL     1      13.905  11.112  17.571  0.00  0.00    +0.018 C 
ATOM     15  C   UNL     1      14.287   9.137  16.076  0.00  0.00    +0.018 C 
ATOM     22  C   UNL     1      15.136  11.410  15.391  0.00  0.00    +0.007 C 
ENDBRANCH   6   4
BRANCH   8   2
ATOM      2  O   UNL     1      12.420   9.604  20.933  0.00  0.00    -0.388 OA
ATOM     25  H   UNL     1      13.038  10.048  20.329  0.00  0.00    +0.210 HD
ENDBRANCH   8   2
BRANCH   7  12
ATOM     12  C   UNL     1      14.198   6.962  20.322  0.00  0.00    +0.114 C 
BRANCH  12   5
ATOM      5  N   UNL     1      15.168   6.634  19.288  0.00  0.00    -0.311 NA
ATOM     24  H   UNL     1      14.904   7.113  18.426  0.00  0.00    +0.122 HD
BRANCH   5  16
ATOM     16  C   UNL     1      16.515   7.044  19.684  0.00  0.00    +0.054 C 
ATOM     18  C   UNL     1      16.484   7.637  21.097  0.00  0.00    +0.019 C 
ATOM     19  C   UNL     1      17.467   5.846  19.608  0.00  0.00    +0.019 C 
ATOM     20  C   UNL     1      17.885   8.007  21.576  0.00  0.00    +0.002 C 
ATOM     21  C   UNL     1      18.869   6.219  20.089  0.00  0.00    +0.002 C 
ATOM     23  C   UNL     1      18.842   6.820  21.491  0.00  0.00    +0.000 C 
ENDBRANCH   5  16
ENDBRANCH  12   5
ENDBRANCH   7  12
BRANCH   9  17
ATOM     17  C   UNL     1      10.581   8.032  22.396  0.00  0.00    +0.190 C 
BRANCH  17   3
ATOM      3  O   UNL     1       9.852   9.248  22.433  0.00  0.00    -0.392 OA
ATOM     26  H   UNL     1       8.941   9.044  22.159  0.00  0.00    +0.210 HD
ENDBRANCH  17   3
ENDBRANCH   9  17
TORSDOF 7
ENDMDL
MODEL 3
REMARK VINA RESULT:      -6.0      2.173      5.638
REMARK  Name = 28962402
REMARK  8 active torsions:
REMARK  status: ('A' for Active; 'I' for Inactive)
REMARK    1  A    between atoms: O_2  and  C_8
REMARK    2  A    between atoms: O_3  and  C_17
REMARK    3  A    between atoms: N_4  and  C_6
REMARK    4  A    between atoms: N_5  and  C_12
REMARK    5  A    between atoms: N_5  and  C_16
REMARK    6  A    between atoms: C_7  and  C_12
REMARK    7  A    between atoms: C_9  and  C_17
REMARK    8  A    between atoms: C_13  and  C_22
REMARK                            x       y       z     vdW  Elec       q    Type
REMARK                         _______ _______ _______ _____ _____    ______ ____
ROOT
ATOM      1  O   UNL     1      12.757   7.564  22.006  0.00  0.00    -0.366 OA
ATOM      6  C   UNL     1      13.464   8.212  19.827  0.00  0.00    +0.118 C 
ATOM      7  C   UNL     1      13.462   8.614  21.308  0.00  0.00    +0.152 C 
ATOM      8  C   UNL     1      12.230   7.331  19.710  0.00  0.00    +0.165 C 
ATOM      9  C   UNL     1      12.278   6.602  21.047  0.00  0.00    +0.174 C 
ENDROOT
BRANCH   6   4
ATOM      4  N   UNL     1      13.543   9.299  18.867  0.00  0.00    -0.295 NA
ATOM     10  C   UNL     1      13.336   8.796  17.503  0.00  0.00    +0.085 C 
ATOM     11  C   UNL     1      14.831   9.997  18.985  0.00  0.00    +0.085 C 
ATOM     13  C   UNL     1      14.671  10.730  16.571  0.00  0.00    -0.012 C 
ATOM     14  C   UNL     1      13.363   9.936  16.484  0.00  0.00    +0.018 C 
ATOM     15  C   UNL     1      14.909  11.179  18.017  0.00  0.00    +0.018 C 
ATOM     22  C   UNL     1      14.650  11.926  15.623  0.00  0.00    +0.007 C 
ENDBRANCH   6   4
BRANCH   8   2
ATOM      2  O   UNL     1      11.044   8.108  19.611  0.00  0.00    -0.388 OA
ATOM     25  H   UNL     1      10.493   7.903  20.385  0.00  0.00    +0.210 HD
ENDBRANCH   8   2
BRANCH   7  12
ATOM     12  C   UNL     1      12.776   9.931  21.658  0.00  0.00    +0.114 C 
BRANCH  12   5
ATOM      5  N   UNL     1      11.813   9.746  22.733  0.00  0.00    -0.311 NA
ATOM     24  H   UNL     1      12.319   9.526  23.592  0.00  0.00    +0.122 HD
BRANCH   5  16
ATOM     16  C   UNL     1      11.011  10.952  22.931  0.00  0.00    +0.054 C 
ATOM     18  C   UNL     1      11.208  11.481  24.356  0.00  0.00    +0.019 C 
ATOM     19  C   UNL     1      11.396  12.010  21.891  0.00  0.00    +0.019 C 
ATOM     20  C   UNL     1      10.444  12.785  24.575  0.00  0.00    +0.002 C 
ATOM     21  C   UNL     1      10.631  13.313  22.113  0.00  0.00    +0.002 C 
ATOM     23  C   UNL     1      10.815  13.838  23.534  0.00  0.00    +0.000 C 
ENDBRANCH   5  16
ENDBRANCH  12   5
ENDBRANCH   7  12
BRANCH   9  17
ATOM     17  C   UNL     1      10.955   6.032  21.529  0.00  0.00    +0.190 C 
BRANCH  17   3
ATOM      3  O   UNL     1      10.119   7.101  21.941  0.00  0.00    -0.392 OA
ATOM     26  H   UNL     1      10.698   7.851  22.160  0.00  0.00    +0.210 HD
ENDBRANCH  17   3
ENDBRANCH   9  17
TORSDOF 7
ENDMDL
MODEL 4
REMARK VINA RESULT:      -6.0     29.702     30.837
REMARK  Name = 28962402
REMARK  8 active torsions:
REMARK  status: ('A' for Active; 'I' for Inactive)
REMARK    1  A    between atoms: O_2  and  C_8
REMARK    2  A    between atoms: O_3  and  C_17
REMARK    3  A    between atoms: N_4  and  C_6
REMARK    4  A    between atoms: N_5  and  C_12
REMARK    5  A    between atoms: N_5  and  C_16
REMARK    6  A    between atoms: C_7  and  C_12
REMARK    7  A    between atoms: C_9  and  C_17
REMARK    8  A    between atoms: C_13  and  C_22
REMARK                            x       y       z     vdW  Elec       q    Type
REMARK                         _______ _______ _______ _____ _____    ______ ____
ROOT
ATOM      1  O   UNL     1     -15.512   0.099  29.193  0.00  0.00    -0.366 OA
ATOM      6  C   UNL     1     -15.148   1.670  30.944  0.00  0.00    +0.118 C 
ATOM      7  C   UNL     1     -15.995   1.362  29.702  0.00  0.00    +0.152 C 
ATOM      8  C   UNL     1     -13.855   0.916  30.672  0.00  0.00    +0.165 C 
ATOM      9  C   UNL     1     -14.397  -0.336  29.994  0.00  0.00    +0.174 C 
ENDROOT
BRANCH   6   4
ATOM      4  N   UNL     1     -14.988   3.074  31.280  0.00  0.00    -0.295 NA
ATOM     10  C   UNL     1     -13.990   3.237  32.345  0.00  0.00    +0.085 C 
ATOM     11  C   UNL     1     -16.279   3.659  31.669  0.00  0.00    +0.085 C 
ATOM     13  C   UNL     1     -15.085   5.400  33.060  0.00  0.00    -0.012 C 
ATOM     14  C   UNL     1     -13.770   4.714  32.674  0.00  0.00    +0.018 C 
ATOM     15  C   UNL     1     -16.138   5.152  31.975  0.00  0.00    +0.018 C 
ATOM     22  C   UNL     1     -14.877   6.895  33.290  0.00  0.00    +0.007 C 
ENDBRANCH   6   4
BRANCH   8   2
ATOM      2  O   UNL     1     -13.011   1.635  29.783  0.00  0.00    -0.388 OA
ATOM     25  H   UNL     1     -12.262   1.977  30.300  0.00  0.00    +0.210 HD
ENDBRANCH   8   2
BRANCH   7  12
ATOM     12  C   UNL     1     -15.922   2.368  28.559  0.00  0.00    +0.114 C 
BRANCH  12   5
ATOM      5  N   UNL     1     -17.102   2.280  27.712  0.00  0.00    -0.311 NA
ATOM     24  H   UNL     1     -17.670   3.117  27.852  0.00  0.00    +0.122 HD
BRANCH   5  16
ATOM     16  C   UNL     1     -16.729   2.169  26.303  0.00  0.00    +0.054 C 
ATOM     18  C   UNL     1     -17.966   1.841  25.460  0.00  0.00    +0.019 C 
ATOM     19  C   UNL     1     -16.071   3.471  25.834  0.00  0.00    +0.019 C 
ATOM     20  C   UNL     1     -17.629   1.792  23.972  0.00  0.00    +0.002 C 
ATOM     21  C   UNL     1     -15.735   3.420  24.345  0.00  0.00    +0.002 C 
ATOM     23  C   UNL     1     -16.962   3.083  23.503  0.00  0.00    +0.000 C 
ENDBRANCH   5  16
ENDBRANCH  12   5
ENDBRANCH   7  12
BRANCH   9  17
ATOM     17  C   UNL     1     -13.410  -1.083  29.114  0.00  0.00    +0.190 C 
BRANCH  17   3
ATOM      3  O   UNL     1     -12.257  -1.393  29.879  0.00  0.00    -0.392 OA
ATOM     26  H   UNL     1     -12.060  -0.616  30.430  0.00  0.00    +0.210 HD
ENDBRANCH  17   3
ENDBRANCH   9  17
TORSDOF 7
ENDMDL
MODEL 5
REMARK VINA RESULT:      -5.9      1.449      2.148
REMARK  Name = 28962402
REMARK  8 active torsions:
REMARK  status: ('A' for Active; 'I' for Inactive)
REMARK    1  A    between atoms: O_2  and  C_8
REMARK    2  A    between atoms: O_3  and  C_17
REMARK    3  A    between atoms: N_4  and  C_6
REMARK    4  A    between atoms: N_5  and  C_12
REMARK    5  A    between atoms: N_5  and  C_16
REMARK    6  A    between atoms: C_7  and  C_12
REMARK    7  A    between atoms: C_9  and  C_17
REMARK    8  A    between atoms: C_13  and  C_22
REMARK                            x       y       z     vdW  Elec       q    Type
REMARK                         _______ _______ _______ _____ _____    ______ ____
ROOT
ATOM      1  O   UNL     1      12.078   6.712  19.636  0.00  0.00    -0.366 OA
ATOM      6  C   UNL     1      12.091   9.069  19.972  0.00  0.00    +0.118 C 
ATOM      7  C   UNL     1      12.701   7.923  19.154  0.00  0.00    +0.152 C 
ATOM      8  C   UNL     1      11.673   8.383  21.263  0.00  0.00    +0.165 C 
ATOM      9  C   UNL     1      11.194   7.040  20.726  0.00  0.00    +0.174 C 
ENDROOT
BRANCH   6   4
ATOM      4  N   UNL     1      12.918  10.251  20.137  0.00  0.00    -0.295 NA
ATOM     10  C   UNL     1      12.273  11.207  21.046  0.00  0.00    +0.085 C 
ATOM     11  C   UNL     1      13.202  10.867  18.833  0.00  0.00    +0.085 C 
ATOM     13  C   UNL     1      13.518  13.114  19.949  0.00  0.00    -0.012 C 
ATOM     14  C   UNL     1      13.156  12.436  21.274  0.00  0.00    +0.018 C 
ATOM     15  C   UNL     1      14.117  12.084  18.985  0.00  0.00    +0.018 C 
ATOM     22  C   UNL     1      14.480  14.278  20.173  0.00  0.00    +0.007 C 
ENDBRANCH   6   4
BRANCH   8   2
ATOM      2  O   UNL     1      12.779   8.201  22.137  0.00  0.00    -0.388 OA
ATOM     25  H   UNL     1      12.486   7.634  22.870  0.00  0.00    +0.210 HD
ENDBRANCH   8   2
BRANCH   7  12
ATOM     12  C   UNL     1      14.209   7.732  19.265  0.00  0.00    +0.114 C 
BRANCH  12   5
ATOM      5  N   UNL     1      14.527   6.491  19.957  0.00  0.00    -0.311 NA
ATOM     24  H   UNL     1      14.505   5.725  19.283  0.00  0.00    +0.122 HD
BRANCH   5  16
ATOM     16  C   UNL     1      15.848   6.562  20.579  0.00  0.00    +0.054 C 
ATOM     18  C   UNL     1      16.909   6.027  19.611  0.00  0.00    +0.019 C 
ATOM     19  C   UNL     1      16.153   8.006  20.991  0.00  0.00    +0.019 C 
ATOM     20  C   UNL     1      18.313   6.156  20.198  0.00  0.00    +0.002 C 
ATOM     21  C   UNL     1      17.558   8.132  21.577  0.00  0.00    +0.002 C 
ATOM     23  C   UNL     1      18.617   7.591  20.621  0.00  0.00    +0.000 C 
ENDBRANCH   5  16
ENDBRANCH  12   5
ENDBRANCH   7  12
BRANCH   9  17
ATOM     17  C   UNL     1      11.192   5.898  21.728  0.00  0.00    +0.190 C 
BRANCH  17   3
ATOM      3  O   UNL     1      10.818   4.704  21.061  0.00  0.00    -0.392 OA
ATOM     26  H   UNL     1      11.071   4.805  20.128  0.00  0.00    +0.210 HD
ENDBRANCH  17   3
ENDBRANCH   9  17
TORSDOF 7
ENDMDL
MODEL 6
REMARK VINA RESULT:      -5.7      2.432      5.077
REMARK  Name = 28962402
REMARK  8 active torsions:
REMARK  status: ('A' for Active; 'I' for Inactive)
REMARK    1  A    between atoms: O_2  and  C_8
REMARK    2  A    between atoms: O_3  and  C_17
REMARK    3  A    between atoms: N_4  and  C_6
REMARK    4  A    between atoms: N_5  and  C_12
REMARK    5  A    between atoms: N_5  and  C_16
REMARK    6  A    between atoms: C_7  and  C_12
REMARK    7  A    between atoms: C_9  and  C_17
REMARK    8  A    between atoms: C_13  and  C_22
REMARK                            x       y       z     vdW  Elec       q    Type
REMARK                         _______ _______ _______ _____ _____    ______ ____
ROOT
ATOM      1  O   UNL     1      12.263   9.507  21.526  0.00  0.00    -0.366 OA
ATOM      6  C   UNL     1      14.330   8.360  21.804  0.00  0.00    +0.118 C 
ATOM      7  C   UNL     1      13.689   9.688  21.380  0.00  0.00    +0.152 C 
ATOM      8  C   UNL     1      13.229   7.346  21.534  0.00  0.00    +0.165 C 
ATOM      9  C   UNL     1      12.000   8.152  21.938  0.00  0.00    +0.174 C 
ENDROOT
BRANCH   6   4
ATOM      4  N   UNL     1      15.618   8.049  21.208  0.00  0.00    -0.295 NA
ATOM     10  C   UNL     1      15.955   6.636  21.420  0.00  0.00    +0.085 C 
ATOM     11  C   UNL     1      16.661   8.931  21.751  0.00  0.00    +0.085 C 
ATOM     13  C   UNL     1      18.418   7.182  21.250  0.00  0.00    -0.012 C 
ATOM     14  C   UNL     1      17.284   6.279  20.753  0.00  0.00    +0.018 C 
ATOM     15  C   UNL     1      18.015   8.653  21.094  0.00  0.00    +0.018 C 
ATOM     22  C   UNL     1      19.719   6.889  20.508  0.00  0.00    +0.007 C 
ENDBRANCH   6   4
BRANCH   8   2
ATOM      2  O   UNL     1      13.165   7.002  20.156  0.00  0.00    -0.388 OA
ATOM     25  H   UNL     1      13.732   7.624  19.671  0.00  0.00    +0.210 HD
ENDBRANCH   8   2
BRANCH   7  12
ATOM     12  C   UNL     1      13.944  10.142  19.947  0.00  0.00    +0.114 C 
BRANCH  12   5
ATOM      5  N   UNL     1      12.788   9.878  19.104  0.00  0.00    -0.311 NA
ATOM     24  H   UNL     1      12.015  10.471  19.410  0.00  0.00    +0.122 HD
BRANCH   5  16
ATOM     16  C   UNL     1      13.090  10.150  17.699  0.00  0.00    +0.054 C 
ATOM     18  C   UNL     1      13.928  11.428  17.586  0.00  0.00    +0.019 C 
ATOM     19  C   UNL     1      13.821   8.953  17.082  0.00  0.00    +0.019 C 
ATOM     20  C   UNL     1      14.329  11.704  16.138  0.00  0.00    +0.002 C 
ATOM     21  C   UNL     1      14.221   9.232  15.634  0.00  0.00    +0.002 C 
ATOM     23  C   UNL     1      15.047  10.509  15.515  0.00  0.00    +0.000 C 
ENDBRANCH   5  16
ENDBRANCH  12   5
ENDBRANCH   7  12
BRANCH   9  17
ATOM     17  C   UNL     1      10.687   7.691  21.330  0.00  0.00    +0.190 C 
BRANCH  17   3
ATOM      3  O   UNL     1      10.558   8.255  20.036  0.00  0.00    -0.392 OA
ATOM     26  H   UNL     1      11.428   8.190  19.606  0.00  0.00    +0.210 HD
ENDBRANCH  17   3
ENDBRANCH   9  17
TORSDOF 7
ENDMDL
MODEL 7
REMARK VINA RESULT:      -5.5     27.894     30.483
REMARK  Name = 28962402
REMARK  8 active torsions:
REMARK  status: ('A' for Active; 'I' for Inactive)
REMARK    1  A    between atoms: O_2  and  C_8
REMARK    2  A    between atoms: O_3  and  C_17
REMARK    3  A    between atoms: N_4  and  C_6
REMARK    4  A    between atoms: N_5  and  C_12
REMARK    5  A    between atoms: N_5  and  C_16
REMARK    6  A    between atoms: C_7  and  C_12
REMARK    7  A    between atoms: C_9  and  C_17
REMARK    8  A    between atoms: C_13  and  C_22
REMARK                            x       y       z     vdW  Elec       q    Type
REMARK                         _______ _______ _______ _____ _____    ______ ____
ROOT
ATOM      1  O   UNL     1     -17.645   3.195  24.185  0.00  0.00    -0.366 OA
ATOM      6  C   UNL     1     -17.291   2.493  26.431  0.00  0.00    +0.118 C 
ATOM      7  C   UNL     1     -16.941   3.565  25.391  0.00  0.00    +0.152 C 
ATOM      8  C   UNL     1     -17.621   1.280  25.576  0.00  0.00    +0.165 C 
ATOM      9  C   UNL     1     -18.332   1.948  24.404  0.00  0.00    +0.174 C 
ENDROOT
BRANCH   6   4
ATOM      4  N   UNL     1     -16.306   2.266  27.475  0.00  0.00    -0.295 NA
ATOM     10  C   UNL     1     -16.692   1.117  28.304  0.00  0.00    +0.085 C 
ATOM     11  C   UNL     1     -16.133   3.476  28.291  0.00  0.00    +0.085 C 
ATOM     13  C   UNL     1     -15.382   2.063  30.249  0.00  0.00    -0.012 C 
ATOM     14  C   UNL     1     -15.638   0.831  29.375  0.00  0.00    +0.018 C 
ATOM     15  C   UNL     1     -15.059   3.270  29.362  0.00  0.00    +0.018 C 
ATOM     22  C   UNL     1     -14.260   1.803  31.250  0.00  0.00    +0.007 C 
ENDBRANCH   6   4
BRANCH   8   2
ATOM      2  O   UNL     1     -16.443   0.621  25.130  0.00  0.00    -0.388 OA
ATOM     25  H   UNL     1     -15.693   0.998  25.619  0.00  0.00    +0.210 HD
ENDBRANCH   8   2
BRANCH   7  12
ATOM     12  C   UNL     1     -15.467   3.711  25.029  0.00  0.00    +0.114 C 
BRANCH  12   5
ATOM      5  N   UNL     1     -15.298   3.873  23.592  0.00  0.00    -0.311 NA
ATOM     24  H   UNL     1     -16.219   3.887  23.153  0.00  0.00    +0.122 HD
BRANCH   5  16
ATOM     16  C   UNL     1     -14.588   5.114  23.286  0.00  0.00    +0.054 C 
ATOM     18  C   UNL     1     -13.810   4.958  21.974  0.00  0.00    +0.019 C 
ATOM     19  C   UNL     1     -15.583   6.277  23.204  0.00  0.00    +0.019 C 
ATOM     20  C   UNL     1     -13.117   6.261  21.581  0.00  0.00    +0.002 C 
ATOM     21  C   UNL     1     -14.886   7.578  22.809  0.00  0.00    +0.002 C 
ATOM     23  C   UNL     1     -14.102   7.425  21.510  0.00  0.00    +0.000 C 
ENDBRANCH   5  16
ENDBRANCH  12   5
ENDBRANCH   7  12
BRANCH   9  17
ATOM     17  C   UNL     1     -18.349   1.153  23.111  0.00  0.00    +0.190 C 
BRANCH  17   3
ATOM      3  O   UNL     1     -17.207   1.498  22.345  0.00  0.00    -0.392 OA
ATOM     26  H   UNL     1     -16.642   0.708  22.301  0.00  0.00    +0.210 HD
ENDBRANCH  17   3
ENDBRANCH   9  17
TORSDOF 7
ENDMDL
MODEL 8
REMARK VINA RESULT:      -5.4     15.189     16.903
REMARK  Name = 28962402
REMARK  8 active torsions:
REMARK  status: ('A' for Active; 'I' for Inactive)
REMARK    1  A    between atoms: O_2  and  C_8
REMARK    2  A    between atoms: O_3  and  C_17
REMARK    3  A    between atoms: N_4  and  C_6
REMARK    4  A    between atoms: N_5  and  C_12
REMARK    5  A    between atoms: N_5  and  C_16
REMARK    6  A    between atoms: C_7  and  C_12
REMARK    7  A    between atoms: C_9  and  C_17
REMARK    8  A    between atoms: C_13  and  C_22
REMARK                            x       y       z     vdW  Elec       q    Type
REMARK                         _______ _______ _______ _____ _____    ______ ____
ROOT
ATOM      1  O   UNL     1       9.153   5.508   6.751  0.00  0.00    -0.366 OA
ATOM      6  C   UNL     1      10.738   7.246   6.383  0.00  0.00    +0.118 C 
ATOM      7  C   UNL     1       9.844   6.208   5.692  0.00  0.00    +0.152 C 
ATOM      8  C   UNL     1      10.978   6.633   7.754  0.00  0.00    +0.165 C 
ATOM      9  C   UNL     1       9.616   6.002   8.021  0.00  0.00    +0.174 C 
ENDROOT
BRANCH   6   4
ATOM      4  N   UNL     1      11.935   7.643   5.663  0.00  0.00    -0.295 NA
ATOM     10  C   UNL     1      12.906   8.254   6.580  0.00  0.00    +0.085 C 
ATOM     11  C   UNL     1      11.595   8.557   4.564  0.00  0.00    +0.085 C 
ATOM     13  C   UNL     1      13.914   9.561   4.664  0.00  0.00    -0.012 C 
ATOM     14  C   UNL     1      14.196   8.629   5.847  0.00  0.00    +0.018 C 
ATOM     15  C   UNL     1      12.840   8.943   3.762  0.00  0.00    +0.018 C 
ATOM     22  C   UNL     1      15.189   9.852   3.878  0.00  0.00    +0.007 C 
ENDBRANCH   6   4
BRANCH   8   2
ATOM      2  O   UNL     1      11.987   5.633   7.707  0.00  0.00    -0.388 OA
ATOM     25  H   UNL     1      11.544   4.770   7.650  0.00  0.00    +0.210 HD
ENDBRANCH   8   2
BRANCH   7  12
ATOM     12  C   UNL     1      10.549   5.158   4.840  0.00  0.00    +0.114 C 
BRANCH  12   5
ATOM      5  N   UNL     1      10.520   5.524   3.432  0.00  0.00    -0.311 NA
ATOM     24  H   UNL     1      10.404   6.536   3.359  0.00  0.00    +0.122 HD
BRANCH   5  16
ATOM     16  C   UNL     1      11.753   5.120   2.760  0.00  0.00    +0.054 C 
ATOM     18  C   UNL     1      11.667   3.644   2.357  0.00  0.00    +0.019 C 
ATOM     19  C   UNL     1      11.998   6.013   1.539  0.00  0.00    +0.019 C 
ATOM     20  C   UNL     1      12.908   3.205   1.583  0.00  0.00    +0.002 C 
ATOM     21  C   UNL     1      13.240   5.572   0.767  0.00  0.00    +0.002 C 
ATOM     23  C   UNL     1      13.163   4.100   0.372  0.00  0.00    +0.000 C 
ENDBRANCH   5  16
ENDBRANCH  12   5
ENDBRANCH   7  12
BRANCH   9  17
ATOM     17  C   UNL     1       9.609   4.867   9.031  0.00  0.00    +0.190 C 
BRANCH  17   3
ATOM      3  O   UNL     1      10.213   3.727   8.444  0.00  0.00    -0.392 OA
ATOM     26  H   UNL     1      11.168   3.903   8.391  0.00  0.00    +0.210 HD
ENDBRANCH  17   3
ENDBRANCH   9  17
TORSDOF 7
ENDMDL
MODEL 9
REMARK VINA RESULT:      -5.4     27.035     28.555
REMARK  Name = 28962402
REMARK  8 active torsions:
REMARK  status: ('A' for Active; 'I' for Inactive)
REMARK    1  A    between atoms: O_2  and  C_8
REMARK    2  A    between atoms: O_3  and  C_17
REMARK    3  A    between atoms: N_4  and  C_6
REMARK    4  A    between atoms: N_5  and  C_12
REMARK    5  A    between atoms: N_5  and  C_16
REMARK    6  A    between atoms: C_7  and  C_12
REMARK    7  A    between atoms: C_9  and  C_17
REMARK    8  A    between atoms: C_13  and  C_22
REMARK                            x       y       z     vdW  Elec       q    Type
REMARK                         _______ _______ _______ _____ _____    ______ ____
ROOT
ATOM      1  O   UNL     1      -1.613 -13.333  14.105  0.00  0.00    -0.366 OA
ATOM      6  C   UNL     1      -2.706 -12.463  12.178  0.00  0.00    +0.118 C 
ATOM      7  C   UNL     1      -1.817 -12.103  13.375  0.00  0.00    +0.152 C 
ATOM      8  C   UNL     1      -3.458 -13.691  12.667  0.00  0.00    +0.165 C 
ATOM      9  C   UNL     1      -2.368 -14.385  13.474  0.00  0.00    +0.174 C 
ENDROOT
BRANCH   6   4
ATOM      4  N   UNL     1      -3.539 -11.395  11.652  0.00  0.00    -0.295 NA
ATOM     10  C   UNL     1      -4.505 -11.927  10.683  0.00  0.00    +0.085 C 
ATOM     11  C   UNL     1      -2.707 -10.344  11.049  0.00  0.00    +0.085 C 
ATOM     13  C   UNL     1      -4.623  -9.674   9.541  0.00  0.00    -0.012 C 
ATOM     14  C   UNL     1      -5.426 -10.823  10.159  0.00  0.00    +0.018 C 
ATOM     15  C   UNL     1      -3.566  -9.186  10.538  0.00  0.00    +0.018 C 
ATOM     22  C   UNL     1      -5.540  -8.533   9.112  0.00  0.00    +0.007 C 
ENDBRANCH   6   4
BRANCH   8   2
ATOM      2  O   UNL     1      -4.547 -13.334  13.508  0.00  0.00    -0.388 OA
ATOM     25  H   UNL     1      -4.211 -12.713  14.176  0.00  0.00    +0.210 HD
ENDBRANCH   8   2
BRANCH   7  12
ATOM     12  C   UNL     1      -2.376 -11.080  14.358  0.00  0.00    +0.114 C 
BRANCH  12   5
ATOM      5  N   UNL     1      -2.742 -11.714  15.616  0.00  0.00    -0.311 NA
ATOM     24  H   UNL     1      -1.893 -11.884  16.157  0.00  0.00    +0.122 HD
BRANCH   5  16
ATOM     16  C   UNL     1      -3.652 -10.867  16.384  0.00  0.00    +0.054 C 
ATOM     18  C   UNL     1      -4.831 -10.437  15.504  0.00  0.00    +0.019 C 
ATOM     19  C   UNL     1      -4.136 -11.617  17.630  0.00  0.00    +0.019 C 
ATOM     20  C   UNL     1      -5.844  -9.613  16.295  0.00  0.00    +0.002 C 
ATOM     21  C   UNL     1      -5.150 -10.790  18.419  0.00  0.00    +0.002 C 
ATOM     23  C   UNL     1      -6.321 -10.351  17.544  0.00  0.00    +0.000 C 
ENDBRANCH   5  16
ENDBRANCH  12   5
ENDBRANCH   7  12
BRANCH   9  17
ATOM     17  C   UNL     1      -2.857 -15.354  14.536  0.00  0.00    +0.190 C 
BRANCH  17   3
ATOM      3  O   UNL     1      -3.392 -14.614  15.621  0.00  0.00    -0.392 OA
ATOM     26  H   UNL     1      -3.783 -13.805  15.251  0.00  0.00    +0.210 HD
ENDBRANCH  17   3
ENDBRANCH   9  17
TORSDOF 7
ENDMDL
MODEL 10
REMARK VINA RESULT:      -5.4     14.516     16.630
REMARK  Name = 28962402
REMARK  8 active torsions:
REMARK  status: ('A' for Active; 'I' for Inactive)
REMARK    1  A    between atoms: O_2  and  C_8
REMARK    2  A    between atoms: O_3  and  C_17
REMARK    3  A    between atoms: N_4  and  C_6
REMARK    4  A    between atoms: N_5  and  C_12
REMARK    5  A    between atoms: N_5  and  C_16
REMARK    6  A    between atoms: C_7  and  C_12
REMARK    7  A    between atoms: C_9  and  C_17
REMARK    8  A    between atoms: C_13  and  C_22
REMARK                            x       y       z     vdW  Elec       q    Type
REMARK                         _______ _______ _______ _____ _____    ______ ____
ROOT
ATOM      1  O   UNL     1       8.774   6.626   8.550  0.00  0.00    -0.366 OA
ATOM      6  C   UNL     1      10.677   7.394   7.345  0.00  0.00    +0.118 C 
ATOM      7  C   UNL     1       9.156   7.531   7.490  0.00  0.00    +0.152 C 
ATOM      8  C   UNL     1      10.946   5.989   7.860  0.00  0.00    +0.165 C 
ATOM      9  C   UNL     1       9.939   5.911   9.002  0.00  0.00    +0.174 C 
ENDROOT
BRANCH   6   4
ATOM      4  N   UNL     1      11.226   7.689   6.033  0.00  0.00    -0.295 NA
ATOM     10  C   UNL     1      12.555   7.082   5.884  0.00  0.00    +0.085 C 
ATOM     11  C   UNL     1      11.278   9.141   5.812  0.00  0.00    +0.085 C 
ATOM     13  C   UNL     1      13.181   8.837   4.174  0.00  0.00    -0.012 C 
ATOM     14  C   UNL     1      13.125   7.338   4.487  0.00  0.00    +0.018 C 
ATOM     15  C   UNL     1      11.804   9.467   4.413  0.00  0.00    +0.018 C 
ATOM     22  C   UNL     1      13.655   9.082   2.745  0.00  0.00    +0.007 C 
ENDBRANCH   6   4
BRANCH   8   2
ATOM      2  O   UNL     1      10.654   5.008   6.874  0.00  0.00    -0.388 OA
ATOM     25  H   UNL     1      10.584   4.150   7.323  0.00  0.00    +0.210 HD
ENDBRANCH   8   2
BRANCH   7  12
ATOM     12  C   UNL     1       8.318   7.174   6.267  0.00  0.00    +0.114 C 
BRANCH  12   5
ATOM      5  N   UNL     1       7.535   8.317   5.822  0.00  0.00    -0.311 NA
ATOM     24  H   UNL     1       7.596   9.052   6.528  0.00  0.00    +0.122 HD
BRANCH   5  16
ATOM     16  C   UNL     1       8.029   8.824   4.542  0.00  0.00    +0.054 C 
ATOM     18  C   UNL     1       8.527   7.660   3.679  0.00  0.00    +0.019 C 
ATOM     19  C   UNL     1       6.921   9.607   3.830  0.00  0.00    +0.019 C 
ATOM     20  C   UNL     1       8.980   8.143   2.303  0.00  0.00    +0.002 C 
ATOM     21  C   UNL     1       7.377  10.088   2.453  0.00  0.00    +0.002 C 
ATOM     23  C   UNL     1       7.884   8.933   1.593  0.00  0.00    +0.000 C 
ENDBRANCH   5  16
ENDBRANCH  12   5
ENDBRANCH   7  12
BRANCH   9  17
ATOM     17  C   UNL     1       9.533   4.508   9.421  0.00  0.00    +0.190 C 
BRANCH  17   3
ATOM      3  O   UNL     1       9.916   4.304  10.770  0.00  0.00    -0.392 OA
ATOM     26  H   UNL     1      10.887   4.349  10.803  0.00  0.00    +0.210 HD
ENDBRANCH  17   3
ENDBRANCH   9  17
TORSDOF 7
ENDMDL
