MODEL 1
REMARK VINA RESULT:      -6.7      0.000      0.000
REMARK  Name = 45360396
REMARK  12 active torsions:
REMARK  status: ('A' for Active; 'I' for Inactive)
REMARK    1  A    between atoms: O_1  and  C_13
REMARK    2  A    between atoms: O_4  and  C_28
REMARK    3  A    between atoms: O_4  and  C_33
REMARK    4  A    between atoms: O_5  and  C_32
REMARK    5  A    between atoms: O_5  and  C_39
REMARK    6  A    between atoms: N_9  and  C_12
REMARK    7  A    between atoms: N_10  and  C_21
REMARK    8  A    between atoms: C_19  and  C_20
REMARK    9  A    between atoms: C_24  and  C_32
REMARK   10  A    between atoms: C_33  and  C_34
REMARK   11  A    between atoms: C_35  and  C_37
REMARK   12  A    between atoms: C_36  and  C_38
REMARK                            x       y       z     vdW  Elec       q    Type
REMARK                         _______ _______ _______ _____ _____    ______ ____
ROOT
ATOM      2  O   UNL     1       9.783   5.902   2.910  0.00  0.00    -0.252 OA
ATOM      8  N   UNL     1      10.128   5.748   5.191  0.00  0.00    -0.284 N 
ATOM     10  N   UNL     1      11.964   5.842   3.706  0.00  0.00    -0.269 N 
ATOM     12  C   UNL     1      11.338   7.151   6.897  0.00  0.00    +0.119 C 
ATOM     13  C   UNL     1      10.238   8.224   6.792  0.00  0.00    +0.136 C 
ATOM     14  C   UNL     1       8.809   7.741   7.055  0.00  0.00    +0.035 C 
ATOM     15  C   UNL     1      10.976   5.749   6.390  0.00  0.00    +0.134 C 
ATOM     16  C   UNL     1       8.147   7.112   5.826  0.00  0.00    +0.022 C 
ATOM     17  C   UNL     1       8.687   5.737   5.453  0.00  0.00    +0.109 C 
ATOM     18  C   UNL     1      10.577   5.835   3.851  0.00  0.00    +0.307 C 
ATOM     42  H   UNL     1      12.508   5.394   4.434  0.00  0.00    +0.156 HD
ENDROOT
BRANCH  10  21
ATOM     21  C   UNL     1      12.731   6.468   2.690  0.00  0.00    +0.049 A 
ATOM     24  C   UNL     1      13.391   5.713   1.720  0.00  0.00    +0.080 A 
ATOM     25  C   UNL     1      12.820   7.858   2.671  0.00  0.00    +0.024 A 
ATOM     29  C   UNL     1      14.140   6.350   0.731  0.00  0.00    +0.017 A 
ATOM     30  C   UNL     1      13.569   8.496   1.681  0.00  0.00    +0.002 A 
ATOM     31  C   UNL     1      14.228   7.742   0.711  0.00  0.00    +0.001 A 
BRANCH  24  32
ATOM      6  O   UNL     1      14.299   3.511   1.836  0.00  0.00    -0.245 OA
ATOM     32  C   UNL     1      13.321   4.257   1.714  0.00  0.00    +0.341 C 
BRANCH  32   5
ATOM      5  O   UNL     1      12.035   3.820   1.557  0.00  0.00    -0.464 OA
ATOM     39  C   UNL     1      11.465   3.952   0.250  0.00  0.00    +0.280 C 
ENDBRANCH  32   5
ENDBRANCH  24  32
ENDBRANCH  10  21
BRANCH  12   9
ATOM      3  O   UNL     1      14.033   6.302   7.400  0.00  0.00    -0.270 OA
ATOM      9  N   UNL     1      12.535   7.638   6.240  0.00  0.00    -0.305 N 
ATOM     19  C   UNL     1      13.794   7.163   6.555  0.00  0.00    +0.244 C 
ATOM     40  H   UNL     1      12.405   8.318   5.498  0.00  0.00    +0.149 HD
BRANCH  19  20
ATOM     20  C   UNL     1      14.920   7.782   5.810  0.00  0.00    +0.037 A 
ATOM     22  C   UNL     1      15.480   7.121   4.718  0.00  0.00    +0.016 A 
ATOM     23  C   UNL     1      15.418   9.023   6.205  0.00  0.00    +0.016 A 
ATOM     26  C   UNL     1      16.539   7.702   4.019  0.00  0.00    +0.046 A 
ATOM     27  C   UNL     1      16.477   9.604   5.507  0.00  0.00    +0.046 A 
ATOM     28  C   UNL     1      17.038   8.943   4.414  0.00  0.00    +0.121 A 
BRANCH  28   4
ATOM      4  O   UNL     1      18.070   9.511   3.732  0.00  0.00    -0.487 OA
BRANCH   4  33
ATOM     33  C   UNL     1      19.235   9.850   4.484  0.00  0.00    +0.269 C 
BRANCH  33  34
ATOM      7  O   UNL     1      21.142   6.953   5.748  0.00  0.00    -0.359 OA
ATOM     11  N   UNL     1      21.197   6.679   4.387  0.00  0.00    -0.083 NA
ATOM     34  C   UNL     1      20.032   8.603   4.740  0.00  0.00    +0.054 A 
ATOM     35  C   UNL     1      20.445   8.102   5.945  0.00  0.00    +0.141 A 
ATOM     36  C   UNL     1      20.527   7.678   3.805  0.00  0.00    +0.087 A 
ATOM     37  C   UNL     1      20.292   8.541   7.338  0.00  0.00    +0.089 C 
ATOM     38  C   UNL     1      20.387   7.704   2.340  0.00  0.00    +0.069 C 
ENDBRANCH  33  34
ENDBRANCH   4  33
ENDBRANCH  28   4
ENDBRANCH  19  20
ENDBRANCH  12   9
BRANCH  13   1
ATOM      1  O   UNL     1      10.523   9.239   7.766  0.00  0.00    -0.390 OA
ATOM     41  H   UNL     1       9.694   9.440   8.232  0.00  0.00    +0.210 HD
ENDBRANCH  13   1
TORSDOF 9
ENDMDL
MODEL 2
REMARK VINA RESULT:      -6.4      3.474      7.694
REMARK  Name = 45360396
REMARK  12 active torsions:
REMARK  status: ('A' for Active; 'I' for Inactive)
REMARK    1  A    between atoms: O_1  and  C_13
REMARK    2  A    between atoms: O_4  and  C_28
REMARK    3  A    between atoms: O_4  and  C_33
REMARK    4  A    between atoms: O_5  and  C_32
REMARK    5  A    between atoms: O_5  and  C_39
REMARK    6  A    between atoms: N_9  and  C_12
REMARK    7  A    between atoms: N_10  and  C_21
REMARK    8  A    between atoms: C_19  and  C_20
REMARK    9  A    between atoms: C_24  and  C_32
REMARK   10  A    between atoms: C_33  and  C_34
REMARK   11  A    between atoms: C_35  and  C_37
REMARK   12  A    between atoms: C_36  and  C_38
REMARK                            x       y       z     vdW  Elec       q    Type
REMARK                         _______ _______ _______ _____ _____    ______ ____
ROOT
ATOM      2  O   UNL     1       9.699   4.392   0.870  0.00  0.00    -0.252 OA
ATOM      8  N   UNL     1      11.752   5.244   0.232  0.00  0.00    -0.284 N 
ATOM     10  N   UNL     1      10.351   6.463   1.694  0.00  0.00    -0.269 N 
ATOM     12  C   UNL     1      13.817   5.993   1.462  0.00  0.00    +0.119 C 
ATOM     13  C   UNL     1      14.148   4.526   1.796  0.00  0.00    +0.136 C 
ATOM     14  C   UNL     1      14.257   3.578   0.598  0.00  0.00    +0.035 C 
ATOM     15  C   UNL     1      12.841   6.227   0.303  0.00  0.00    +0.134 C 
ATOM     16  C   UNL     1      12.903   3.042   0.125  0.00  0.00    +0.022 C 
ATOM     17  C   UNL     1      12.033   4.067  -0.592  0.00  0.00    +0.109 C 
ATOM     18  C   UNL     1      10.525   5.306   0.937  0.00  0.00    +0.307 C 
ATOM     42  H   UNL     1      10.847   7.293   1.391  0.00  0.00    +0.156 HD
ENDROOT
BRANCH  10  21
ATOM     21  C   UNL     1       9.616   6.615   2.897  0.00  0.00    +0.049 A 
ATOM     24  C   UNL     1       8.763   7.703   3.085  0.00  0.00    +0.080 A 
ATOM     25  C   UNL     1       9.754   5.658   3.900  0.00  0.00    +0.024 A 
ATOM     29  C   UNL     1       8.049   7.833   4.276  0.00  0.00    +0.017 A 
ATOM     30  C   UNL     1       9.040   5.787   5.092  0.00  0.00    +0.002 A 
ATOM     31  C   UNL     1       8.188   6.874   5.279  0.00  0.00    +0.001 A 
BRANCH  24  32
ATOM      6  O   UNL     1       9.499   9.109   1.305  0.00  0.00    -0.245 OA
ATOM     32  C   UNL     1       8.597   8.724   2.057  0.00  0.00    +0.341 C 
BRANCH  32   5
ATOM      5  O   UNL     1       7.316   9.202   2.030  0.00  0.00    -0.464 OA
ATOM     39  C   UNL     1       6.838   9.690   0.771  0.00  0.00    +0.280 C 
ENDBRANCH  32   5
ENDBRANCH  24  32
ENDBRANCH  10  21
BRANCH  12   9
ATOM      3  O   UNL     1      15.407   7.507   3.311  0.00  0.00    -0.270 OA
ATOM      9  N   UNL     1      13.350   6.656   2.664  0.00  0.00    -0.305 N 
ATOM     19  C   UNL     1      14.200   7.364   3.493  0.00  0.00    +0.244 C 
ATOM     40  H   UNL     1      12.354   6.615   2.850  0.00  0.00    +0.149 HD
BRANCH  19  20
ATOM     20  C   UNL     1      13.571   7.962   4.698  0.00  0.00    +0.037 A 
ATOM     22  C   UNL     1      14.138   9.088   5.293  0.00  0.00    +0.016 A 
ATOM     23  C   UNL     1      12.417   7.395   5.236  0.00  0.00    +0.016 A 
ATOM     26  C   UNL     1      13.549   9.649   6.427  0.00  0.00    +0.046 A 
ATOM     27  C   UNL     1      11.827   7.955   6.370  0.00  0.00    +0.046 A 
ATOM     28  C   UNL     1      12.394   9.082   6.966  0.00  0.00    +0.121 A 
BRANCH  28   4
ATOM      4  O   UNL     1      11.819   9.630   8.071  0.00  0.00    -0.487 OA
BRANCH   4  33
ATOM     33  C   UNL     1      10.415   9.431   8.237  0.00  0.00    +0.269 C 
BRANCH  33  34
ATOM      7  O   UNL     1       8.767  12.500   7.018  0.00  0.00    -0.359 OA
ATOM     11  N   UNL     1       8.609  12.691   8.385  0.00  0.00    -0.083 NA
ATOM     34  C   UNL     1       9.705  10.733   8.000  0.00  0.00    +0.054 A 
ATOM     35  C   UNL     1       9.421  11.330   6.801  0.00  0.00    +0.141 A 
ATOM     36  C   UNL     1       9.177  11.622   8.952  0.00  0.00    +0.087 A 
ATOM     37  C   UNL     1       9.673  10.973   5.399  0.00  0.00    +0.089 C 
ATOM     38  C   UNL     1       9.190  11.497  10.418  0.00  0.00    +0.069 C 
ENDBRANCH  33  34
ENDBRANCH   4  33
ENDBRANCH  28   4
ENDBRANCH  19  20
ENDBRANCH  12   9
BRANCH  13   1
ATOM      1  O   UNL     1      15.418   4.506   2.463  0.00  0.00    -0.390 OA
ATOM     41  H   UNL     1      15.286   4.863   3.358  0.00  0.00    +0.210 HD
ENDBRANCH  13   1
TORSDOF 9
ENDMDL
MODEL 3
REMARK VINA RESULT:      -6.3     14.448     18.730
REMARK  Name = 45360396
REMARK  12 active torsions:
REMARK  status: ('A' for Active; 'I' for Inactive)
REMARK    1  A    between atoms: O_1  and  C_13
REMARK    2  A    between atoms: O_4  and  C_28
REMARK    3  A    between atoms: O_4  and  C_33
REMARK    4  A    between atoms: O_5  and  C_32
REMARK    5  A    between atoms: O_5  and  C_39
REMARK    6  A    between atoms: N_9  and  C_12
REMARK    7  A    between atoms: N_10  and  C_21
REMARK    8  A    between atoms: C_19  and  C_20
REMARK    9  A    between atoms: C_24  and  C_32
REMARK   10  A    between atoms: C_33  and  C_34
REMARK   11  A    between atoms: C_35  and  C_37
REMARK   12  A    between atoms: C_36  and  C_38
REMARK                            x       y       z     vdW  Elec       q    Type
REMARK                         _______ _______ _______ _____ _____    ______ ____
ROOT
ATOM      2  O   UNL     1      20.826  11.659  22.379  0.00  0.00    -0.252 OA
ATOM      8  N   UNL     1      20.986   9.429  22.968  0.00  0.00    -0.284 N 
ATOM     10  N   UNL     1      18.875  10.482  22.827  0.00  0.00    -0.269 N 
ATOM     12  C   UNL     1      20.063   7.281  22.033  0.00  0.00    +0.119 C 
ATOM     13  C   UNL     1      21.030   7.387  20.839  0.00  0.00    +0.136 C 
ATOM     14  C   UNL     1      22.516   7.505  21.193  0.00  0.00    +0.035 C 
ATOM     15  C   UNL     1      20.415   8.111  23.273  0.00  0.00    +0.134 C 
ATOM     16  C   UNL     1      22.947   8.938  21.518  0.00  0.00    +0.022 C 
ATOM     17  C   UNL     1      22.446   9.460  22.860  0.00  0.00    +0.109 C 
ATOM     18  C   UNL     1      20.257  10.613  22.700  0.00  0.00    +0.307 C 
ATOM     42  H   UNL     1      18.534   9.763  23.455  0.00  0.00    +0.156 HD
ENDROOT
BRANCH  10  21
ATOM     21  C   UNL     1      17.865  11.187  22.125  0.00  0.00    +0.049 A 
ATOM     24  C   UNL     1      17.060  12.125  22.773  0.00  0.00    +0.080 A 
ATOM     25  C   UNL     1      17.680  10.932  20.767  0.00  0.00    +0.024 A 
ATOM     29  C   UNL     1      16.073  12.807  22.063  0.00  0.00    +0.017 A 
ATOM     30  C   UNL     1      16.693  11.614  20.057  0.00  0.00    +0.002 A 
ATOM     31  C   UNL     1      15.889  12.552  20.704  0.00  0.00    +0.001 A 
BRANCH  24  32
ATOM      6  O   UNL     1      16.356  12.219  25.050  0.00  0.00    -0.245 OA
ATOM     32  C   UNL     1      17.225  12.414  24.193  0.00  0.00    +0.341 C 
BRANCH  32   5
ATOM      5  O   UNL     1      18.465  12.927  24.458  0.00  0.00    -0.464 OA
ATOM     39  C   UNL     1      18.997  12.682  25.764  0.00  0.00    +0.280 C 
ENDBRANCH  32   5
ENDBRANCH  24  32
ENDBRANCH  10  21
BRANCH  12   9
ATOM      3  O   UNL     1      18.314   5.538  20.569  0.00  0.00    -0.270 OA
ATOM      9  N   UNL     1      18.720   7.585  21.578  0.00  0.00    -0.305 N 
ATOM     19  C   UNL     1      17.955   6.673  20.877  0.00  0.00    +0.244 C 
ATOM     40  H   UNL     1      18.344   8.490  21.839  0.00  0.00    +0.149 HD
BRANCH  19  20
ATOM     20  C   UNL     1      16.610   7.147  20.461  0.00  0.00    +0.037 A 
ATOM     22  C   UNL     1      16.054   6.701  19.262  0.00  0.00    +0.016 A 
ATOM     23  C   UNL     1      15.905   8.040  21.267  0.00  0.00    +0.016 A 
ATOM     26  C   UNL     1      14.792   7.148  18.869  0.00  0.00    +0.046 A 
ATOM     27  C   UNL     1      14.644   8.488  20.875  0.00  0.00    +0.046 A 
ATOM     28  C   UNL     1      14.087   8.042  19.676  0.00  0.00    +0.121 A 
BRANCH  28   4
ATOM      4  O   UNL     1      12.856   8.478  19.294  0.00  0.00    -0.487 OA
BRANCH   4  33
ATOM     33  C   UNL     1      12.772   9.799  18.761  0.00  0.00    +0.269 C 
BRANCH  33  34
ATOM      7  O   UNL     1      12.276   9.312  15.136  0.00  0.00    -0.359 OA
ATOM     11  N   UNL     1      13.503   9.962  15.107  0.00  0.00    -0.083 NA
ATOM     34  C   UNL     1      12.806   9.725  17.262  0.00  0.00    +0.054 A 
ATOM     35  C   UNL     1      11.871   9.177  16.425  0.00  0.00    +0.141 A 
ATOM     36  C   UNL     1      13.800  10.199  16.389  0.00  0.00    +0.087 A 
ATOM     37  C   UNL     1      10.582   8.505  16.637  0.00  0.00    +0.089 C 
ATOM     38  C   UNL     1      15.057  10.886  16.729  0.00  0.00    +0.069 C 
ENDBRANCH  33  34
ENDBRANCH   4  33
ENDBRANCH  28   4
ENDBRANCH  19  20
ENDBRANCH  12   9
BRANCH  13   1
ATOM      1  O   UNL     1      20.882   6.198  20.050  0.00  0.00    -0.390 OA
ATOM     41  H   UNL     1      21.315   6.356  19.194  0.00  0.00    +0.210 HD
ENDBRANCH  13   1
TORSDOF 9
ENDMDL
MODEL 4
REMARK VINA RESULT:      -6.2      3.632      7.638
REMARK  Name = 45360396
REMARK  12 active torsions:
REMARK  status: ('A' for Active; 'I' for Inactive)
REMARK    1  A    between atoms: O_1  and  C_13
REMARK    2  A    between atoms: O_4  and  C_28
REMARK    3  A    between atoms: O_4  and  C_33
REMARK    4  A    between atoms: O_5  and  C_32
REMARK    5  A    between atoms: O_5  and  C_39
REMARK    6  A    between atoms: N_9  and  C_12
REMARK    7  A    between atoms: N_10  and  C_21
REMARK    8  A    between atoms: C_19  and  C_20
REMARK    9  A    between atoms: C_24  and  C_32
REMARK   10  A    between atoms: C_33  and  C_34
REMARK   11  A    between atoms: C_35  and  C_37
REMARK   12  A    between atoms: C_36  and  C_38
REMARK                            x       y       z     vdW  Elec       q    Type
REMARK                         _______ _______ _______ _____ _____    ______ ____
ROOT
ATOM      2  O   UNL     1       9.127   9.842   8.283  0.00  0.00    -0.252 OA
ATOM      8  N   UNL     1      11.346  10.467   8.112  0.00  0.00    -0.284 N 
ATOM     10  N   UNL     1      10.657   8.305   7.453  0.00  0.00    -0.269 N 
ATOM     12  C   UNL     1      13.008  10.597   6.225  0.00  0.00    +0.119 C 
ATOM     13  C   UNL     1      12.266  11.822   5.658  0.00  0.00    +0.136 C 
ATOM     14  C   UNL     1      12.090  12.999   6.621  0.00  0.00    +0.035 C 
ATOM     15  C   UNL     1      12.738  10.255   7.695  0.00  0.00    +0.134 C 
ATOM     16  C   UNL     1      10.883  12.845   7.550  0.00  0.00    +0.022 C 
ATOM     17  C   UNL     1      11.057  11.800   8.645  0.00  0.00    +0.109 C 
ATOM     18  C   UNL     1      10.282   9.544   7.970  0.00  0.00    +0.307 C 
ATOM     42  H   UNL     1      11.616   8.012   7.603  0.00  0.00    +0.156 HD
ENDROOT
BRANCH  10  21
ATOM     21  C   UNL     1       9.880   7.417   6.667  0.00  0.00    +0.049 A 
ATOM     24  C   UNL     1       9.897   6.042   6.906  0.00  0.00    +0.080 A 
ATOM     25  C   UNL     1       9.089   7.935   5.643  0.00  0.00    +0.024 A 
ATOM     29  C   UNL     1       9.124   5.187   6.121  0.00  0.00    +0.017 A 
ATOM     30  C   UNL     1       8.316   7.080   4.857  0.00  0.00    +0.002 A 
ATOM     31  C   UNL     1       8.333   5.707   5.097  0.00  0.00    +0.001 A 
BRANCH  24  32
ATOM      6  O   UNL     1      11.838   5.876   8.282  0.00  0.00    -0.245 OA
ATOM     32  C   UNL     1      10.715   5.467   7.968  0.00  0.00    +0.341 C 
BRANCH  32   5
ATOM      5  O   UNL     1      10.081   4.417   8.573  0.00  0.00    -0.464 OA
ATOM     39  C   UNL     1       9.438   4.687   9.823  0.00  0.00    +0.280 C 
ENDBRANCH  32   5
ENDBRANCH  24  32
ENDBRANCH  10  21
BRANCH  12   9
ATOM      3  O   UNL     1      14.942   9.076   4.747  0.00  0.00    -0.270 OA
ATOM      9  N   UNL     1      12.743   9.451   5.377  0.00  0.00    -0.305 N 
ATOM     19  C   UNL     1      13.749   8.784   4.704  0.00  0.00    +0.244 C 
ATOM     40  H   UNL     1      11.783   9.129   5.333  0.00  0.00    +0.149 HD
BRANCH  19  20
ATOM     20  C   UNL     1      13.310   7.647   3.855  0.00  0.00    +0.037 A 
ATOM     22  C   UNL     1      14.098   7.233   2.782  0.00  0.00    +0.016 A 
ATOM     23  C   UNL     1      12.108   6.995   4.130  0.00  0.00    +0.016 A 
ATOM     26  C   UNL     1      13.684   6.167   1.983  0.00  0.00    +0.046 A 
ATOM     27  C   UNL     1      11.694   5.929   3.332  0.00  0.00    +0.046 A 
ATOM     28  C   UNL     1      12.482   5.515   2.258  0.00  0.00    +0.121 A 
BRANCH  28   4
ATOM      4  O   UNL     1      12.079   4.474   1.480  0.00  0.00    -0.487 OA
BRANCH   4  33
ATOM     33  C   UNL     1      12.554   4.448   0.134  0.00  0.00    +0.269 C 
BRANCH  33  34
ATOM      7  O   UNL     1       9.976   3.646  -2.383  0.00  0.00    -0.359 OA
ATOM     11  N   UNL     1       9.404   4.788  -1.835  0.00  0.00    -0.083 NA
ATOM     34  C   UNL     1      11.380   4.340  -0.797  0.00  0.00    +0.054 A 
ATOM     35  C   UNL     1      11.153   3.389  -1.755  0.00  0.00    +0.141 A 
ATOM     36  C   UNL     1      10.261   5.185  -0.889  0.00  0.00    +0.087 A 
ATOM     37  C   UNL     1      11.893   2.208  -2.216  0.00  0.00    +0.089 C 
ATOM     38  C   UNL     1       9.963   6.388  -0.096  0.00  0.00    +0.069 C 
ENDBRANCH  33  34
ENDBRANCH   4  33
ENDBRANCH  28   4
ENDBRANCH  19  20
ENDBRANCH  12   9
BRANCH  13   1
ATOM      1  O   UNL     1      13.018  12.307   4.536  0.00  0.00    -0.390 OA
ATOM     41  H   UNL     1      12.387  12.515   3.827  0.00  0.00    +0.210 HD
ENDBRANCH  13   1
TORSDOF 9
ENDMDL
MODEL 5
REMARK VINA RESULT:      -6.2      2.604      7.795
REMARK  Name = 45360396
REMARK  12 active torsions:
REMARK  status: ('A' for Active; 'I' for Inactive)
REMARK    1  A    between atoms: O_1  and  C_13
REMARK    2  A    between atoms: O_4  and  C_28
REMARK    3  A    between atoms: O_4  and  C_33
REMARK    4  A    between atoms: O_5  and  C_32
REMARK    5  A    between atoms: O_5  and  C_39
REMARK    6  A    between atoms: N_9  and  C_12
REMARK    7  A    between atoms: N_10  and  C_21
REMARK    8  A    between atoms: C_19  and  C_20
REMARK    9  A    between atoms: C_24  and  C_32
REMARK   10  A    between atoms: C_33  and  C_34
REMARK   11  A    between atoms: C_35  and  C_37
REMARK   12  A    between atoms: C_36  and  C_38
REMARK                            x       y       z     vdW  Elec       q    Type
REMARK                         _______ _______ _______ _____ _____    ______ ____
ROOT
ATOM      2  O   UNL     1      15.717   6.886   0.629  0.00  0.00    -0.252 OA
ATOM      8  N   UNL     1      14.922   4.718   0.725  0.00  0.00    -0.284 N 
ATOM     10  N   UNL     1      14.326   6.287   2.389  0.00  0.00    -0.269 N 
ATOM     12  C   UNL     1      12.632   3.673   0.781  0.00  0.00    +0.119 C 
ATOM     13  C   UNL     1      12.428   4.043  -0.700  0.00  0.00    +0.136 C 
ATOM     14  C   UNL     1      13.496   3.525  -1.669  0.00  0.00    +0.035 C 
ATOM     15  C   UNL     1      14.078   3.656   1.289  0.00  0.00    +0.134 C 
ATOM     16  C   UNL     1      14.736   4.420  -1.737  0.00  0.00    +0.022 C 
ATOM     17  C   UNL     1      15.630   4.356  -0.504  0.00  0.00    +0.109 C 
ATOM     18  C   UNL     1      15.038   6.041   1.216  0.00  0.00    +0.307 C 
ATOM     42  H   UNL     1      14.146   5.495   2.996  0.00  0.00    +0.156 HD
ENDROOT
BRANCH  10  21
ATOM     21  C   UNL     1      13.747   7.509   2.817  0.00  0.00    +0.049 A 
ATOM     24  C   UNL     1      14.044   8.044   4.071  0.00  0.00    +0.080 A 
ATOM     25  C   UNL     1      12.869   8.176   1.965  0.00  0.00    +0.024 A 
ATOM     29  C   UNL     1      13.463   9.247   4.471  0.00  0.00    +0.017 A 
ATOM     30  C   UNL     1      12.288   9.380   2.365  0.00  0.00    +0.002 A 
ATOM     31  C   UNL     1      12.585   9.915   3.617  0.00  0.00    +0.001 A 
BRANCH  24  32
ATOM      6  O   UNL     1      14.659   7.021   6.135  0.00  0.00    -0.245 OA
ATOM     32  C   UNL     1      14.955   7.370   4.987  0.00  0.00    +0.341 C 
BRANCH  32   5
ATOM      5  O   UNL     1      16.182   7.171   4.415  0.00  0.00    -0.464 OA
ATOM     39  C   UNL     1      17.079   8.287   4.412  0.00  0.00    +0.280 C 
ENDBRANCH  32   5
ENDBRANCH  24  32
ENDBRANCH  10  21
BRANCH  12   9
ATOM      3  O   UNL     1      11.145   2.927   3.121  0.00  0.00    -0.270 OA
ATOM      9  N   UNL     1      11.812   4.545   1.601  0.00  0.00    -0.305 N 
ATOM     19  C   UNL     1      11.133   4.087   2.713  0.00  0.00    +0.244 C 
ATOM     40  H   UNL     1      11.795   5.527   1.346  0.00  0.00    +0.149 HD
BRANCH  19  20
ATOM     20  C   UNL     1      10.317   5.100   3.430  0.00  0.00    +0.037 A 
ATOM     22  C   UNL     1       9.747   4.789   4.664  0.00  0.00    +0.016 A 
ATOM     23  C   UNL     1      10.119   6.361   2.869  0.00  0.00    +0.016 A 
ATOM     26  C   UNL     1       8.978   5.739   5.337  0.00  0.00    +0.046 A 
ATOM     27  C   UNL     1       9.351   7.312   3.540  0.00  0.00    +0.046 A 
ATOM     28  C   UNL     1       8.780   7.001   4.775  0.00  0.00    +0.121 A 
BRANCH  28   4
ATOM      4  O   UNL     1       8.032   7.929   5.431  0.00  0.00    -0.487 OA
BRANCH   4  33
ATOM     33  C   UNL     1       8.324   8.138   6.813  0.00  0.00    +0.269 C 
BRANCH  33  34
ATOM      7  O   UNL     1      11.783   9.349   7.244  0.00  0.00    -0.359 OA
ATOM     11  N   UNL     1      11.162  10.554   6.938  0.00  0.00    -0.083 NA
ATOM     34  C   UNL     1       9.628   8.871   6.931  0.00  0.00    +0.054 A 
ATOM     35  C   UNL     1      10.859   8.354   7.237  0.00  0.00    +0.141 A 
ATOM     36  C   UNL     1       9.875  10.243   6.755  0.00  0.00    +0.087 A 
ATOM     37  C   UNL     1      11.351   7.005   7.544  0.00  0.00    +0.089 C 
ATOM     38  C   UNL     1       8.913  11.303   6.411  0.00  0.00    +0.069 C 
ENDBRANCH  33  34
ENDBRANCH   4  33
ENDBRANCH  28   4
ENDBRANCH  19  20
ENDBRANCH  12   9
BRANCH  13   1
ATOM      1  O   UNL     1      11.175   3.486  -1.122  0.00  0.00    -0.390 OA
ATOM     41  H   UNL     1      10.659   4.200  -1.533  0.00  0.00    +0.210 HD
ENDBRANCH  13   1
TORSDOF 9
ENDMDL
MODEL 6
REMARK VINA RESULT:      -6.1     26.289     31.539
REMARK  Name = 45360396
REMARK  12 active torsions:
REMARK  status: ('A' for Active; 'I' for Inactive)
REMARK    1  A    between atoms: O_1  and  C_13
REMARK    2  A    between atoms: O_4  and  C_28
REMARK    3  A    between atoms: O_4  and  C_33
REMARK    4  A    between atoms: O_5  and  C_32
REMARK    5  A    between atoms: O_5  and  C_39
REMARK    6  A    between atoms: N_9  and  C_12
REMARK    7  A    between atoms: N_10  and  C_21
REMARK    8  A    between atoms: C_19  and  C_20
REMARK    9  A    between atoms: C_24  and  C_32
REMARK   10  A    between atoms: C_33  and  C_34
REMARK   11  A    between atoms: C_35  and  C_37
REMARK   12  A    between atoms: C_36  and  C_38
REMARK                            x       y       z     vdW  Elec       q    Type
REMARK                         _______ _______ _______ _____ _____    ______ ____
ROOT
ATOM      2  O   UNL     1      -2.128 -11.944  14.842  0.00  0.00    -0.252 OA
ATOM      8  N   UNL     1      -3.411 -12.086  12.923  0.00  0.00    -0.284 N 
ATOM     10  N   UNL     1      -4.384 -12.454  15.045  0.00  0.00    -0.269 N 
ATOM     12  C   UNL     1      -5.482 -10.923  12.088  0.00  0.00    +0.119 C 
ATOM     13  C   UNL     1      -4.665  -9.639  11.855  0.00  0.00    +0.136 C 
ATOM     14  C   UNL     1      -3.437  -9.785  10.951  0.00  0.00    +0.035 C 
ATOM     15  C   UNL     1      -4.685 -12.228  12.208  0.00  0.00    +0.134 C 
ATOM     16  C   UNL     1      -2.199 -10.298  11.691  0.00  0.00    +0.022 C 
ATOM     17  C   UNL     1      -2.258 -11.771  12.077  0.00  0.00    +0.109 C 
ATOM     18  C   UNL     1      -3.229 -12.150  14.326  0.00  0.00    +0.307 C 
ATOM     42  H   UNL     1      -5.102 -12.984  14.564  0.00  0.00    +0.156 HD
ENDROOT
BRANCH  10  21
ATOM     21  C   UNL     1      -4.723 -12.050  16.361  0.00  0.00    +0.049 A 
ATOM     24  C   UNL     1      -5.207 -12.969  17.293  0.00  0.00    +0.080 A 
ATOM     25  C   UNL     1      -4.568 -10.712  16.719  0.00  0.00    +0.024 A 
ATOM     29  C   UNL     1      -5.534 -12.549  18.582  0.00  0.00    +0.017 A 
ATOM     30  C   UNL     1      -4.895 -10.291  18.008  0.00  0.00    +0.002 A 
ATOM     31  C   UNL     1      -5.378 -11.210  18.940  0.00  0.00    +0.001 A 
BRANCH  24  32
ATOM      6  O   UNL     1      -4.472 -15.123  16.582  0.00  0.00    -0.245 OA
ATOM     32  C   UNL     1      -5.384 -14.375  16.951  0.00  0.00    +0.341 C 
BRANCH  32   5
ATOM      5  O   UNL     1      -6.688 -14.762  17.089  0.00  0.00    -0.464 OA
ATOM     39  C   UNL     1      -7.560 -14.492  15.986  0.00  0.00    +0.280 C 
ENDBRANCH  32   5
ENDBRANCH  24  32
ENDBRANCH  10  21
BRANCH  12   9
ATOM      3  O   UNL     1      -8.157  -9.884  12.101  0.00  0.00    -0.270 OA
ATOM      9  N   UNL     1      -6.332 -10.736  13.248  0.00  0.00    -0.305 N 
ATOM     19  C   UNL     1      -7.613 -10.226  13.148  0.00  0.00    +0.244 C 
ATOM     40  H   UNL     1      -5.960 -11.042  14.141  0.00  0.00    +0.149 HD
BRANCH  19  20
ATOM     20  C   UNL     1      -8.344 -10.072  14.432  0.00  0.00    +0.037 A 
ATOM     22  C   UNL     1      -9.402  -9.168  14.526  0.00  0.00    +0.016 A 
ATOM     23  C   UNL     1      -7.972 -10.828  15.542  0.00  0.00    +0.016 A 
ATOM     26  C   UNL     1     -10.089  -9.021  15.732  0.00  0.00    +0.046 A 
ATOM     27  C   UNL     1      -8.657 -10.681  16.748  0.00  0.00    +0.046 A 
ATOM     28  C   UNL     1      -9.716  -9.777  16.843  0.00  0.00    +0.121 A 
BRANCH  28   4
ATOM      4  O   UNL     1     -10.386  -9.635  18.019  0.00  0.00    -0.487 OA
BRANCH   4  33
ATOM     33  C   UNL     1      -9.722 -10.083  19.202  0.00  0.00    +0.269 C 
BRANCH  33  34
ATOM      7  O   UNL     1     -11.197 -13.153  20.624  0.00  0.00    -0.359 OA
ATOM     11  N   UNL     1     -12.245 -12.272  20.860  0.00  0.00    -0.083 NA
ATOM     34  C   UNL     1     -10.534 -11.176  19.833  0.00  0.00    +0.054 A 
ATOM     35  C   UNL     1     -10.183 -12.488  20.012  0.00  0.00    +0.141 A 
ATOM     36  C   UNL     1     -11.826 -11.098  20.380  0.00  0.00    +0.087 A 
ATOM     37  C   UNL     1      -8.988 -13.277  19.688  0.00  0.00    +0.089 C 
ATOM     38  C   UNL     1     -12.706  -9.920  20.466  0.00  0.00    +0.069 C 
ENDBRANCH  33  34
ENDBRANCH   4  33
ENDBRANCH  28   4
ENDBRANCH  19  20
ENDBRANCH  12   9
BRANCH  13   1
ATOM      1  O   UNL     1      -5.530  -8.677  11.235  0.00  0.00    -0.390 OA
ATOM     41  H   UNL     1      -6.394  -8.728  11.679  0.00  0.00    +0.210 HD
ENDBRANCH  13   1
TORSDOF 9
ENDMDL
MODEL 7
REMARK VINA RESULT:      -6.0     12.496     16.231
REMARK  Name = 45360396
REMARK  12 active torsions:
REMARK  status: ('A' for Active; 'I' for Inactive)
REMARK    1  A    between atoms: O_1  and  C_13
REMARK    2  A    between atoms: O_4  and  C_28
REMARK    3  A    between atoms: O_4  and  C_33
REMARK    4  A    between atoms: O_5  and  C_32
REMARK    5  A    between atoms: O_5  and  C_39
REMARK    6  A    between atoms: N_9  and  C_12
REMARK    7  A    between atoms: N_10  and  C_21
REMARK    8  A    between atoms: C_19  and  C_20
REMARK    9  A    between atoms: C_24  and  C_32
REMARK   10  A    between atoms: C_33  and  C_34
REMARK   11  A    between atoms: C_35  and  C_37
REMARK   12  A    between atoms: C_36  and  C_38
REMARK                            x       y       z     vdW  Elec       q    Type
REMARK                         _______ _______ _______ _____ _____    ______ ____
ROOT
ATOM      2  O   UNL     1      16.154  15.293  17.134  0.00  0.00    -0.252 OA
ATOM      8  N   UNL     1      17.012  13.735  15.657  0.00  0.00    -0.284 N 
ATOM     10  N   UNL     1      16.207  13.062  17.775  0.00  0.00    -0.269 N 
ATOM     12  C   UNL     1      16.117  11.648  14.569  0.00  0.00    +0.119 C 
ATOM     13  C   UNL     1      15.213  12.507  13.667  0.00  0.00    +0.136 C 
ATOM     14  C   UNL     1      15.926  13.575  12.832  0.00  0.00    +0.035 C 
ATOM     15  C   UNL     1      17.304  12.361  15.226  0.00  0.00    +0.134 C 
ATOM     16  C   UNL     1      16.189  14.871  13.603  0.00  0.00    +0.022 C 
ATOM     17  C   UNL     1      17.285  14.768  14.657  0.00  0.00    +0.109 C 
ATOM     18  C   UNL     1      16.431  14.116  16.891  0.00  0.00    +0.307 C 
ATOM     42  H   UNL     1      16.802  12.246  17.682  0.00  0.00    +0.156 HD
ENDROOT
BRANCH  10  21
ATOM     21  C   UNL     1      15.192  12.949  18.758  0.00  0.00    +0.049 A 
ATOM     24  C   UNL     1      15.499  12.594  20.072  0.00  0.00    +0.080 A 
ATOM     25  C   UNL     1      13.869  13.199  18.396  0.00  0.00    +0.024 A 
ATOM     29  C   UNL     1      14.484  12.490  21.023  0.00  0.00    +0.017 A 
ATOM     30  C   UNL     1      12.853  13.095  19.346  0.00  0.00    +0.002 A 
ATOM     31  C   UNL     1      13.160  12.741  20.659  0.00  0.00    +0.001 A 
BRANCH  24  32
ATOM      6  O   UNL     1      17.822  13.087  20.284  0.00  0.00    -0.245 OA
ATOM     32  C   UNL     1      16.871  12.324  20.484  0.00  0.00    +0.341 C 
BRANCH  32   5
ATOM      5  O   UNL     1      16.974  11.118  21.120  0.00  0.00    -0.464 OA
ATOM     39  C   UNL     1      18.184  10.381  20.912  0.00  0.00    +0.280 C 
ENDBRANCH  32   5
ENDBRANCH  24  32
ENDBRANCH  10  21
BRANCH  12   9
ATOM      3  O   UNL     1      15.042   8.990  14.431  0.00  0.00    -0.270 OA
ATOM      9  N   UNL     1      15.297  10.993  15.570  0.00  0.00    -0.305 N 
ATOM     19  C   UNL     1      14.826   9.703  15.408  0.00  0.00    +0.244 C 
ATOM     40  H   UNL     1      15.119  11.510  16.424  0.00  0.00    +0.149 HD
BRANCH  19  20
ATOM     20  C   UNL     1      13.978   9.186  16.513  0.00  0.00    +0.037 A 
ATOM     22  C   UNL     1      13.196  10.066  17.260  0.00  0.00    +0.016 A 
ATOM     23  C   UNL     1      13.967   7.823  16.804  0.00  0.00    +0.016 A 
ATOM     26  C   UNL     1      12.400   9.581  18.300  0.00  0.00    +0.046 A 
ATOM     27  C   UNL     1      13.173   7.337  17.842  0.00  0.00    +0.046 A 
ATOM     28  C   UNL     1      12.390   8.216  18.591  0.00  0.00    +0.121 A 
BRANCH  28   4
ATOM      4  O   UNL     1      11.613   7.743  19.603  0.00  0.00    -0.487 OA
BRANCH   4  33
ATOM     33  C   UNL     1      12.254   6.929  20.585  0.00  0.00    +0.269 C 
BRANCH  33  34
ATOM      7  O   UNL     1      14.285   9.328  22.520  0.00  0.00    -0.359 OA
ATOM     11  N   UNL     1      15.293   8.463  22.110  0.00  0.00    -0.083 NA
ATOM     34  C   UNL     1      13.287   7.749  21.302  0.00  0.00    +0.054 A 
ATOM     35  C   UNL     1      13.095   8.891  22.033  0.00  0.00    +0.141 A 
ATOM     36  C   UNL     1      14.672   7.528  21.384  0.00  0.00    +0.087 A 
ATOM     37  C   UNL     1      11.916   9.697  22.374  0.00  0.00    +0.089 C 
ATOM     38  C   UNL     1      15.455   6.435  20.784  0.00  0.00    +0.069 C 
ENDBRANCH  33  34
ENDBRANCH   4  33
ENDBRANCH  28   4
ENDBRANCH  19  20
ENDBRANCH  12   9
BRANCH  13   1
ATOM      1  O   UNL     1      14.551  11.628  12.745  0.00  0.00    -0.390 OA
ATOM     41  H   UNL     1      15.035  11.668  11.903  0.00  0.00    +0.210 HD
ENDBRANCH  13   1
TORSDOF 9
ENDMDL
MODEL 8
REMARK VINA RESULT:      -6.0     25.622     28.934
REMARK  Name = 45360396
REMARK  12 active torsions:
REMARK  status: ('A' for Active; 'I' for Inactive)
REMARK    1  A    between atoms: O_1  and  C_13
REMARK    2  A    between atoms: O_4  and  C_28
REMARK    3  A    between atoms: O_4  and  C_33
REMARK    4  A    between atoms: O_5  and  C_32
REMARK    5  A    between atoms: O_5  and  C_39
REMARK    6  A    between atoms: N_9  and  C_12
REMARK    7  A    between atoms: N_10  and  C_21
REMARK    8  A    between atoms: C_19  and  C_20
REMARK    9  A    between atoms: C_24  and  C_32
REMARK   10  A    between atoms: C_33  and  C_34
REMARK   11  A    between atoms: C_35  and  C_37
REMARK   12  A    between atoms: C_36  and  C_38
REMARK                            x       y       z     vdW  Elec       q    Type
REMARK                         _______ _______ _______ _____ _____    ______ ____
ROOT
ATOM      2  O   UNL     1      -7.253 -12.265  15.732  0.00  0.00    -0.252 OA
ATOM      8  N   UNL     1      -5.011 -12.811  15.589  0.00  0.00    -0.284 N 
ATOM     10  N   UNL     1      -6.370 -12.813  13.655  0.00  0.00    -0.269 N 
ATOM     12  C   UNL     1      -3.046 -11.903  14.303  0.00  0.00    +0.119 C 
ATOM     13  C   UNL     1      -3.035 -10.655  15.204  0.00  0.00    +0.136 C 
ATOM     14  C   UNL     1      -2.923 -10.920  16.708  0.00  0.00    +0.035 C 
ATOM     15  C   UNL     1      -3.786 -13.132  14.846  0.00  0.00    +0.134 C 
ATOM     16  C   UNL     1      -4.267 -11.239  17.368  0.00  0.00    +0.022 C 
ATOM     17  C   UNL     1      -4.827 -12.615  17.029  0.00  0.00    +0.109 C 
ATOM     18  C   UNL     1      -6.297 -12.605  15.032  0.00  0.00    +0.307 C 
ATOM     42  H   UNL     1      -5.695 -13.450  13.248  0.00  0.00    +0.156 HD
ENDROOT
BRANCH  10  21
ATOM     21  C   UNL     1      -7.233 -12.184  12.723  0.00  0.00    +0.049 A 
ATOM     24  C   UNL     1      -8.441 -12.774  12.351  0.00  0.00    +0.080 A 
ATOM     25  C   UNL     1      -6.860 -10.957  12.177  0.00  0.00    +0.024 A 
ATOM     29  C   UNL     1      -9.276 -12.137  11.433  0.00  0.00    +0.017 A 
ATOM     30  C   UNL     1      -7.694 -10.320  11.258  0.00  0.00    +0.002 A 
ATOM     31  C   UNL     1      -8.902 -10.909  10.887  0.00  0.00    +0.001 A 
BRANCH  24  32
ATOM      6  O   UNL     1      -9.909 -14.237  13.530  0.00  0.00    -0.245 OA
ATOM     32  C   UNL     1      -8.860 -14.057  12.902  0.00  0.00    +0.341 C 
BRANCH  32   5
ATOM      5  O   UNL     1      -7.945 -15.038  12.635  0.00  0.00    -0.464 OA
ATOM     39  C   UNL     1      -8.038 -15.674  11.355  0.00  0.00    +0.280 C 
ENDBRANCH  32   5
ENDBRANCH  24  32
ENDBRANCH  10  21
BRANCH  12   9
ATOM      3  O   UNL     1      -1.512 -10.972  12.063  0.00  0.00    -0.270 OA
ATOM      9  N   UNL     1      -3.558 -11.536  12.996  0.00  0.00    -0.305 N 
ATOM     19  C   UNL     1      -2.732 -11.097  11.979  0.00  0.00    +0.244 C 
ATOM     40  H   UNL     1      -4.553 -11.659  12.844  0.00  0.00    +0.149 HD
BRANCH  19  20
ATOM     20  C   UNL     1      -3.413 -10.734  10.710  0.00  0.00    +0.037 A 
ATOM     22  C   UNL     1      -4.003 -11.727   9.927  0.00  0.00    +0.016 A 
ATOM     23  C   UNL     1      -3.461  -9.403  10.299  0.00  0.00    +0.016 A 
ATOM     26  C   UNL     1      -4.641 -11.388   8.734  0.00  0.00    +0.046 A 
ATOM     27  C   UNL     1      -4.099  -9.063   9.106  0.00  0.00    +0.046 A 
ATOM     28  C   UNL     1      -4.689 -10.056   8.323  0.00  0.00    +0.121 A 
BRANCH  28   4
ATOM      4  O   UNL     1      -5.312  -9.724   7.160  0.00  0.00    -0.487 OA
BRANCH   4  33
ATOM     33  C   UNL     1      -6.681 -10.105   7.026  0.00  0.00    +0.269 C 
BRANCH  33  34
ATOM      7  O   UNL     1      -8.570  -7.476   5.253  0.00  0.00    -0.359 OA
ATOM     11  N   UNL     1      -8.642  -6.968   6.545  0.00  0.00    -0.083 NA
ATOM     34  C   UNL     1      -7.473  -8.923   6.547  0.00  0.00    +0.054 A 
ATOM     35  C   UNL     1      -7.871  -8.640   5.268  0.00  0.00    +0.141 A 
ATOM     36  C   UNL     1      -7.980  -7.850   7.300  0.00  0.00    +0.087 A 
ATOM     37  C   UNL     1      -7.699  -9.314   3.974  0.00  0.00    +0.089 C 
ATOM     38  C   UNL     1      -7.857  -7.619   8.749  0.00  0.00    +0.069 C 
ENDBRANCH  33  34
ENDBRANCH   4  33
ENDBRANCH  28   4
ENDBRANCH  19  20
ENDBRANCH  12   9
BRANCH  13   1
ATOM      1  O   UNL     1      -1.899  -9.859  14.834  0.00  0.00    -0.390 OA
ATOM     41  H   UNL     1      -1.897  -9.783  13.865  0.00  0.00    +0.210 HD
ENDBRANCH  13   1
TORSDOF 9
ENDMDL
MODEL 9
REMARK VINA RESULT:      -5.9     26.848     31.217
REMARK  Name = 45360396
REMARK  12 active torsions:
REMARK  status: ('A' for Active; 'I' for Inactive)
REMARK    1  A    between atoms: O_1  and  C_13
REMARK    2  A    between atoms: O_4  and  C_28
REMARK    3  A    between atoms: O_4  and  C_33
REMARK    4  A    between atoms: O_5  and  C_32
REMARK    5  A    between atoms: O_5  and  C_39
REMARK    6  A    between atoms: N_9  and  C_12
REMARK    7  A    between atoms: N_10  and  C_21
REMARK    8  A    between atoms: C_19  and  C_20
REMARK    9  A    between atoms: C_24  and  C_32
REMARK   10  A    between atoms: C_33  and  C_34
REMARK   11  A    between atoms: C_35  and  C_37
REMARK   12  A    between atoms: C_36  and  C_38
REMARK                            x       y       z     vdW  Elec       q    Type
REMARK                         _______ _______ _______ _____ _____    ______ ____
ROOT
ATOM      2  O   UNL     1     -12.120 -11.295  15.515  0.00  0.00    -0.252 OA
ATOM      8  N   UNL     1     -11.616 -12.239  17.564  0.00  0.00    -0.284 N 
ATOM     10  N   UNL     1     -10.025 -12.249  15.817  0.00  0.00    -0.269 N 
ATOM     12  C   UNL     1      -9.827 -11.861  19.296  0.00  0.00    +0.119 C 
ATOM     13  C   UNL     1     -10.492 -10.529  19.690  0.00  0.00    +0.136 C 
ATOM     14  C   UNL     1     -11.965 -10.616  20.101  0.00  0.00    +0.035 C 
ATOM     15  C   UNL     1     -10.701 -12.862  18.530  0.00  0.00    +0.134 C 
ATOM     16  C   UNL     1     -12.927 -10.608  18.909  0.00  0.00    +0.022 C 
ATOM     17  C   UNL     1     -12.937 -11.897  18.096  0.00  0.00    +0.109 C 
ATOM     18  C   UNL     1     -11.305 -11.883  16.229  0.00  0.00    +0.307 C 
ATOM     42  H   UNL     1      -9.598 -13.041  16.283  0.00  0.00    +0.156 HD
ENDROOT
BRANCH  10  21
ATOM     21  C   UNL     1      -9.198 -11.602  14.864  0.00  0.00    +0.049 A 
ATOM     24  C   UNL     1      -8.375 -12.337  14.010  0.00  0.00    +0.080 A 
ATOM     25  C   UNL     1      -9.215 -10.211  14.788  0.00  0.00    +0.024 A 
ATOM     29  C   UNL     1      -7.570 -11.680  13.080  0.00  0.00    +0.017 A 
ATOM     30  C   UNL     1      -8.410  -9.553  13.858  0.00  0.00    +0.002 A 
ATOM     31  C   UNL     1      -7.588 -10.287  13.004  0.00  0.00    +0.001 A 
BRANCH  24  32
ATOM      6  O   UNL     1      -8.530 -14.534  13.096  0.00  0.00    -0.245 OA
ATOM     32  C   UNL     1      -8.332 -13.793  14.065  0.00  0.00    +0.341 C 
BRANCH  32   5
ATOM      5  O   UNL     1      -8.042 -14.237  15.326  0.00  0.00    -0.464 OA
ATOM     39  C   UNL     1      -7.788 -15.638  15.473  0.00  0.00    +0.280 C 
ENDBRANCH  32   5
ENDBRANCH  24  32
ENDBRANCH  10  21
BRANCH  12   9
ATOM      3  O   UNL     1      -7.155 -11.854  20.343  0.00  0.00    -0.270 OA
ATOM      9  N   UNL     1      -8.610 -11.579  18.560  0.00  0.00    -0.305 N 
ATOM     19  C   UNL     1      -7.364 -11.601  19.159  0.00  0.00    +0.244 C 
ATOM     40  H   UNL     1      -8.707 -11.407  17.565  0.00  0.00    +0.149 HD
BRANCH  19  20
ATOM     20  C   UNL     1      -6.220 -11.264  18.274  0.00  0.00    +0.037 A 
ATOM     22  C   UNL     1      -6.415 -10.441  17.166  0.00  0.00    +0.016 A 
ATOM     23  C   UNL     1      -4.952 -11.774  18.550  0.00  0.00    +0.016 A 
ATOM     26  C   UNL     1      -5.340 -10.126  16.333  0.00  0.00    +0.046 A 
ATOM     27  C   UNL     1      -3.877 -11.460  17.718  0.00  0.00    +0.046 A 
ATOM     28  C   UNL     1      -4.072 -10.636  16.609  0.00  0.00    +0.121 A 
BRANCH  28   4
ATOM      4  O   UNL     1      -3.023 -10.328  15.798  0.00  0.00    -0.487 OA
BRANCH   4  33
ATOM     33  C   UNL     1      -2.291 -11.420  15.242  0.00  0.00    +0.269 C 
BRANCH  33  34
ATOM      7  O   UNL     1      -4.273 -12.948  12.529  0.00  0.00    -0.359 OA
ATOM     11  N   UNL     1      -3.554 -12.021  11.784  0.00  0.00    -0.083 NA
ATOM     34  C   UNL     1      -2.968 -11.869  13.979  0.00  0.00    +0.054 A 
ATOM     35  C   UNL     1      -3.915 -12.848  13.835  0.00  0.00    +0.141 A 
ATOM     36  C   UNL     1      -2.781 -11.388  12.672  0.00  0.00    +0.087 A 
ATOM     37  C   UNL     1      -4.584 -13.764  14.766  0.00  0.00    +0.089 C 
ATOM     38  C   UNL     1      -1.873 -10.322  12.217  0.00  0.00    +0.069 C 
ENDBRANCH  33  34
ENDBRANCH   4  33
ENDBRANCH  28   4
ENDBRANCH  19  20
ENDBRANCH  12   9
BRANCH  13   1
ATOM      1  O   UNL     1      -9.775  -9.999  20.814  0.00  0.00    -0.390 OA
ATOM     41  H   UNL     1     -10.427  -9.775  21.500  0.00  0.00    +0.210 HD
ENDBRANCH  13   1
TORSDOF 9
ENDMDL
MODEL 10
REMARK VINA RESULT:      -5.9      5.311      8.604
REMARK  Name = 45360396
REMARK  12 active torsions:
REMARK  status: ('A' for Active; 'I' for Inactive)
REMARK    1  A    between atoms: O_1  and  C_13
REMARK    2  A    between atoms: O_4  and  C_28
REMARK    3  A    between atoms: O_4  and  C_33
REMARK    4  A    between atoms: O_5  and  C_32
REMARK    5  A    between atoms: O_5  and  C_39
REMARK    6  A    between atoms: N_9  and  C_12
REMARK    7  A    between atoms: N_10  and  C_21
REMARK    8  A    between atoms: C_19  and  C_20
REMARK    9  A    between atoms: C_24  and  C_32
REMARK   10  A    between atoms: C_33  and  C_34
REMARK   11  A    between atoms: C_35  and  C_37
REMARK   12  A    between atoms: C_36  and  C_38
REMARK                            x       y       z     vdW  Elec       q    Type
REMARK                         _______ _______ _______ _____ _____    ______ ____
ROOT
ATOM      2  O   UNL     1       8.329  10.377   4.514  0.00  0.00    -0.252 OA
ATOM      8  N   UNL     1       8.365   8.216   5.335  0.00  0.00    -0.284 N 
ATOM     10  N   UNL     1       8.026   8.616   3.030  0.00  0.00    -0.269 N 
ATOM     12  C   UNL     1       9.742   6.163   4.856  0.00  0.00    +0.119 C 
ATOM     13  C   UNL     1      10.951   6.813   5.555  0.00  0.00    +0.136 C 
ATOM     14  C   UNL     1      10.718   7.273   6.997  0.00  0.00    +0.035 C 
ATOM     15  C   UNL     1       8.365   6.756   5.180  0.00  0.00    +0.134 C 
ATOM     16  C   UNL     1      10.069   8.656   7.093  0.00  0.00    +0.022 C 
ATOM     17  C   UNL     1       8.597   8.692   6.700  0.00  0.00    +0.109 C 
ATOM     18  C   UNL     1       8.242   9.167   4.293  0.00  0.00    +0.307 C 
ATOM     42  H   UNL     1       7.581   7.706   2.993  0.00  0.00    +0.156 HD
ENDROOT
BRANCH  10  21
ATOM     21  C   UNL     1       8.420   9.138   1.772  0.00  0.00    +0.049 A 
ATOM     24  C   UNL     1       7.611  10.041   1.084  0.00  0.00    +0.080 A 
ATOM     25  C   UNL     1       9.637   8.735   1.224  0.00  0.00    +0.024 A 
ATOM     29  C   UNL     1       8.018  10.543  -0.152  0.00  0.00    +0.017 A 
ATOM     30  C   UNL     1      10.045   9.236  -0.012  0.00  0.00    +0.002 A 
ATOM     31  C   UNL     1       9.236  10.139  -0.700  0.00  0.00    +0.001 A 
BRANCH  24  32
ATOM      6  O   UNL     1       6.128  11.598   2.116  0.00  0.00    -0.245 OA
ATOM     32  C   UNL     1       6.332  10.481   1.628  0.00  0.00    +0.341 C 
BRANCH  32   5
ATOM      5  O   UNL     1       5.383   9.500   1.531  0.00  0.00    -0.464 OA
ATOM     39  C   UNL     1       4.019   9.905   1.691  0.00  0.00    +0.280 C 
ENDBRANCH  32   5
ENDBRANCH  24  32
ENDBRANCH  10  21
BRANCH  12   9
ATOM      3  O   UNL     1      11.000   4.084   3.328  0.00  0.00    -0.270 OA
ATOM      9  N   UNL     1       9.973   6.160   3.424  0.00  0.00    -0.305 N 
ATOM     19  C   UNL     1      10.590   5.105   2.780  0.00  0.00    +0.244 C 
ATOM     40  H   UNL     1       9.618   6.954   2.903  0.00  0.00    +0.149 HD
BRANCH  19  20
ATOM     20  C   UNL     1      10.775   5.266   1.315  0.00  0.00    +0.037 A 
ATOM     22  C   UNL     1       9.663   5.349   0.477  0.00  0.00    +0.016 A 
ATOM     23  C   UNL     1      12.060   5.333   0.777  0.00  0.00    +0.016 A 
ATOM     26  C   UNL     1       9.837   5.499  -0.900  0.00  0.00    +0.046 A 
ATOM     27  C   UNL     1      12.234   5.482  -0.598  0.00  0.00    +0.046 A 
ATOM     28  C   UNL     1      11.123   5.565  -1.437  0.00  0.00    +0.121 A 
BRANCH  28   4
ATOM      4  O   UNL     1      11.292   5.712  -2.779  0.00  0.00    -0.487 OA
BRANCH   4  33
ATOM     33  C   UNL     1      11.815   4.592  -3.493  0.00  0.00    +0.269 C 
BRANCH  33  34
ATOM      7  O   UNL     1       9.040   2.163  -3.621  0.00  0.00    -0.359 OA
ATOM     11  N   UNL     1       9.930   1.442  -2.835  0.00  0.00    -0.083 NA
ATOM     34  C   UNL     1      10.845   3.451  -3.393  0.00  0.00    +0.054 A 
ATOM     35  C   UNL     1       9.596   3.358  -3.947  0.00  0.00    +0.141 A 
ATOM     36  C   UNL     1      11.002   2.231  -2.713  0.00  0.00    +0.087 A 
ATOM     37  C   UNL     1       8.781   4.251  -4.780  0.00  0.00    +0.089 C 
ATOM     38  C   UNL     1      12.159   1.771  -1.928  0.00  0.00    +0.069 C 
ENDBRANCH  33  34
ENDBRANCH   4  33
ENDBRANCH  28   4
ENDBRANCH  19  20
ENDBRANCH  12   9
BRANCH  13   1
ATOM      1  O   UNL     1      12.008   5.843   5.591  0.00  0.00    -0.390 OA
ATOM     41  H   UNL     1      11.765   5.121   4.987  0.00  0.00    +0.210 HD
ENDBRANCH  13   1
TORSDOF 9
ENDMDL
