MODEL 1
REMARK VINA RESULT:      -7.1      0.000      0.000
REMARK  Name = 44716858
REMARK  9 active torsions:
REMARK  status: ('A' for Active; 'I' for Inactive)
REMARK    1  A    between atoms: O_3  and  C_15
REMARK    2  A    between atoms: O_4  and  C_20
REMARK    3  A    between atoms: N_8  and  C_26
REMARK    4  A    between atoms: C_10  and  C_18
REMARK    5  A    between atoms: C_12  and  C_20
REMARK    6  A    between atoms: C_12  and  C_21
REMARK    7  A    between atoms: C_13  and  C_23
REMARK    8  A    between atoms: C_23  and  C_24
REMARK    9  A    between atoms: C_32  and  C_33
REMARK                            x       y       z     vdW  Elec       q    Type
REMARK                         _______ _______ _______ _____ _____    ______ ____
ROOT
ATOM      1  S   UNL     1      11.230   3.755   2.377  0.00  0.00    -0.057 S 
ATOM      6  O   UNL     1       9.054   7.056   4.884  0.00  0.00    -0.270 OA
ATOM      7  N   UNL     1      10.018   6.035   2.219  0.00  0.00    -0.229 NA
ATOM      9  N   UNL     1      10.213   5.058   4.414  0.00  0.00    -0.261 N 
ATOM     10  C   UNL     1      10.990   6.145  -1.512  0.00  0.00    -0.019 C 
ATOM     11  C   UNL     1      10.944   4.559  -1.650  0.00  0.00    +0.011 C 
ATOM     12  C   UNL     1      11.397   3.948  -3.032  0.00  0.00    +0.021 C 
ATOM     13  C   UNL     1      10.102   6.555  -0.248  0.00  0.00    +0.054 C 
ATOM     14  C   UNL     1      10.369   6.791  -2.776  0.00  0.00    +0.010 C 
ATOM     15  C   UNL     1      10.722   4.739  -4.188  0.00  0.00    +0.123 C 
ATOM     16  C   UNL     1      11.586   3.862  -0.416  0.00  0.00    +0.049 C 
ATOM     17  C   UNL     1      10.925   6.247  -4.084  0.00  0.00    +0.032 C 
ATOM     18  C   UNL     1      12.427   6.691  -1.329  0.00  0.00    +0.012 C 
ATOM     19  C   UNL     1      10.416   5.685   0.942  0.00  0.00    +0.058 A 
ATOM     21  C   UNL     1      10.898   2.478  -3.125  0.00  0.00    +0.016 C 
ATOM     22  C   UNL     1      11.066   4.472   0.842  0.00  0.00    +0.015 A 
ATOM     25  C   UNL     1      10.401   5.097   3.058  0.00  0.00    +0.165 A 
ATOM     32  C   UNL     1       9.570   6.006   5.248  0.00  0.00    +0.250 C 
ATOM     42  H   UNL     1      10.567   4.205   4.835  0.00  0.00    +0.157 HD
ENDROOT
BRANCH  32  33
ATOM      2  F   UNL     1       9.315   4.723  10.710  0.00  0.00    -0.205 F 
ATOM     33  C   UNL     1       9.502   5.666   6.694  0.00  0.00    +0.037 A 
ATOM     34  C   UNL     1       9.832   4.381   7.125  0.00  0.00    +0.016 A 
ATOM     35  C   UNL     1       9.109   6.632   7.620  0.00  0.00    +0.016 A 
ATOM     36  C   UNL     1       9.769   4.062   8.482  0.00  0.00    +0.039 A 
ATOM     37  C   UNL     1       9.044   6.313   8.977  0.00  0.00    +0.039 A 
ATOM     38  C   UNL     1       9.374   5.028   9.407  0.00  0.00    +0.123 A 
ENDBRANCH  32  33
BRANCH  15   3
ATOM      3  O   UNL     1      11.211   4.296  -5.454  0.00  0.00    -0.391 OA
ATOM     39  H   UNL     1      12.182   4.354  -5.430  0.00  0.00    +0.210 HD
ENDBRANCH  15   3
BRANCH  12  20
ATOM     20  C   UNL     1      12.927   3.880  -3.232  0.00  0.00    +0.165 C 
BRANCH  20   4
ATOM      4  O   UNL     1      13.209   2.749  -4.025  0.00  0.00    -0.394 OA
ATOM     40  H   UNL     1      13.044   1.963  -3.477  0.00  0.00    +0.209 HD
ENDBRANCH  20   4
ENDBRANCH  12  20
BRANCH  13  23
ATOM     23  C   UNL     1      10.159   8.045   0.115  0.00  0.00    +0.106 C 
BRANCH  23  24
ATOM      5  O   UNL     1       8.042   8.806  -0.775  0.00  0.00    -0.276 OA
ATOM      8  N   UNL     1       8.482   9.041   1.494  0.00  0.00    -0.312 N 
ATOM     24  C   UNL     1       8.782   8.663   0.195  0.00  0.00    +0.214 C 
ATOM     41  H   UNL     1       9.147   8.822   2.230  0.00  0.00    +0.149 HD
BRANCH   8  26
ATOM     26  C   UNL     1       7.230   9.662   1.868  0.00  0.00    +0.073 C 
ATOM     27  C   UNL     1       7.226  11.152   1.513  0.00  0.00    +0.022 C 
ATOM     28  C   UNL     1       6.929   9.444   3.354  0.00  0.00    +0.022 C 
ATOM     29  C   UNL     1       8.139  11.973   2.424  0.00  0.00    +0.002 C 
ATOM     30  C   UNL     1       7.842  10.267   4.262  0.00  0.00    +0.002 C 
ATOM     31  C   UNL     1       7.813  11.748   3.897  0.00  0.00    +0.000 C 
ENDBRANCH   8  26
ENDBRANCH  23  24
ENDBRANCH  13  23
TORSDOF 7
ENDMDL
MODEL 2
REMARK VINA RESULT:      -6.9      7.072      9.341
REMARK  Name = 44716858
REMARK  9 active torsions:
REMARK  status: ('A' for Active; 'I' for Inactive)
REMARK    1  A    between atoms: O_3  and  C_15
REMARK    2  A    between atoms: O_4  and  C_20
REMARK    3  A    between atoms: N_8  and  C_26
REMARK    4  A    between atoms: C_10  and  C_18
REMARK    5  A    between atoms: C_12  and  C_20
REMARK    6  A    between atoms: C_12  and  C_21
REMARK    7  A    between atoms: C_13  and  C_23
REMARK    8  A    between atoms: C_23  and  C_24
REMARK    9  A    between atoms: C_32  and  C_33
REMARK                            x       y       z     vdW  Elec       q    Type
REMARK                         _______ _______ _______ _____ _____    ______ ____
ROOT
ATOM      1  S   UNL     1      15.494   8.013   5.864  0.00  0.00    -0.057 S 
ATOM      6  O   UNL     1      12.618   6.525   2.483  0.00  0.00    -0.270 OA
ATOM      7  N   UNL     1      15.371   7.382   3.358  0.00  0.00    -0.229 NA
ATOM      9  N   UNL     1      13.327   7.209   4.625  0.00  0.00    -0.261 N 
ATOM     10  C   UNL     1      19.021   8.576   3.012  0.00  0.00    -0.019 C 
ATOM     11  C   UNL     1      19.379   8.167   4.509  0.00  0.00    +0.011 C 
ATOM     12  C   UNL     1      20.819   8.546   5.030  0.00  0.00    +0.021 C 
ATOM     13  C   UNL     1      17.739   7.734   2.564  0.00  0.00    +0.054 C 
ATOM     14  C   UNL     1      20.201   8.200   2.079  0.00  0.00    +0.010 C 
ATOM     15  C   UNL     1      21.873   8.147   3.958  0.00  0.00    +0.123 C 
ATOM     16  C   UNL     1      18.235   8.551   5.491  0.00  0.00    +0.049 C 
ATOM     17  C   UNL     1      21.555   8.692   2.571  0.00  0.00    +0.032 C 
ATOM     18  C   UNL     1      18.725  10.087   2.855  0.00  0.00    +0.012 C 
ATOM     19  C   UNL     1      16.672   7.763   3.628  0.00  0.00    +0.058 A 
ATOM     21  C   UNL     1      21.128   7.723   6.312  0.00  0.00    +0.016 C 
ATOM     22  C   UNL     1      16.920   8.115   4.940  0.00  0.00    +0.015 A 
ATOM     25  C   UNL     1      14.659   7.482   4.460  0.00  0.00    +0.165 A 
ATOM     32  C   UNL     1      12.388   6.757   3.665  0.00  0.00    +0.250 C 
ATOM     42  H   UNL     1      13.018   7.327   5.585  0.00  0.00    +0.157 HD
ENDROOT
BRANCH  32  33
ATOM      2  F   UNL     1       7.167   5.877   5.536  0.00  0.00    -0.205 F 
ATOM     33  C   UNL     1      11.005   6.524   4.160  0.00  0.00    +0.037 A 
ATOM     34  C   UNL     1      10.742   5.453   5.013  0.00  0.00    +0.016 A 
ATOM     35  C   UNL     1       9.972   7.377   3.771  0.00  0.00    +0.016 A 
ATOM     36  C   UNL     1       9.445   5.234   5.478  0.00  0.00    +0.039 A 
ATOM     37  C   UNL     1       8.675   7.158   4.235  0.00  0.00    +0.039 A 
ATOM     38  C   UNL     1       8.412   6.086   5.089  0.00  0.00    +0.123 A 
ENDBRANCH  32  33
BRANCH  15   3
ATOM      3  O   UNL     1      23.173   8.594   4.341  0.00  0.00    -0.391 OA
ATOM     39  H   UNL     1      23.814   7.927   4.041  0.00  0.00    +0.210 HD
ENDBRANCH  15   3
BRANCH  12  20
ATOM     20  C   UNL     1      20.983  10.027   5.438  0.00  0.00    +0.165 C 
BRANCH  20   4
ATOM      4  O   UNL     1      21.797  10.070   6.589  0.00  0.00    -0.394 OA
ATOM     40  H   UNL     1      21.732  10.969   6.955  0.00  0.00    +0.209 HD
ENDBRANCH  20   4
ENDBRANCH  12  20
BRANCH  13  23
ATOM     23  C   UNL     1      17.172   8.117   1.191  0.00  0.00    +0.106 C 
BRANCH  23  24
ATOM      5  O   UNL     1      17.943   6.920  -0.765  0.00  0.00    -0.276 OA
ATOM      8  N   UNL     1      16.308   5.973   0.587  0.00  0.00    -0.312 N 
ATOM     24  C   UNL     1      17.208   6.960   0.219  0.00  0.00    +0.214 C 
ATOM     41  H   UNL     1      15.790   6.085   1.454  0.00  0.00    +0.149 HD
BRANCH   8  26
ATOM     26  C   UNL     1      16.126   4.749  -0.161  0.00  0.00    +0.073 C 
ATOM     27  C   UNL     1      15.058   4.919  -1.246  0.00  0.00    +0.022 C 
ATOM     28  C   UNL     1      15.793   3.578   0.768  0.00  0.00    +0.022 C 
ATOM     29  C   UNL     1      13.647   5.013  -0.667  0.00  0.00    +0.002 C 
ATOM     30  C   UNL     1      14.380   3.674   1.345  0.00  0.00    +0.002 C 
ATOM     31  C   UNL     1      13.333   3.831   0.246  0.00  0.00    +0.000 C 
ENDBRANCH   8  26
ENDBRANCH  23  24
ENDBRANCH  13  23
TORSDOF 7
ENDMDL
MODEL 3
REMARK VINA RESULT:      -6.9     18.189     21.792
REMARK  Name = 44716858
REMARK  9 active torsions:
REMARK  status: ('A' for Active; 'I' for Inactive)
REMARK    1  A    between atoms: O_3  and  C_15
REMARK    2  A    between atoms: O_4  and  C_20
REMARK    3  A    between atoms: N_8  and  C_26
REMARK    4  A    between atoms: C_10  and  C_18
REMARK    5  A    between atoms: C_12  and  C_20
REMARK    6  A    between atoms: C_12  and  C_21
REMARK    7  A    between atoms: C_13  and  C_23
REMARK    8  A    between atoms: C_23  and  C_24
REMARK    9  A    between atoms: C_32  and  C_33
REMARK                            x       y       z     vdW  Elec       q    Type
REMARK                         _______ _______ _______ _____ _____    ______ ____
ROOT
ATOM      1  S   UNL     1      17.560   5.810  19.454  0.00  0.00    -0.057 S 
ATOM      6  O   UNL     1      21.260   7.806  21.513  0.00  0.00    -0.270 OA
ATOM      7  N   UNL     1      18.332   7.875  20.806  0.00  0.00    -0.229 NA
ATOM      9  N   UNL     1      20.008   6.217  20.302  0.00  0.00    -0.261 N 
ATOM     10  C   UNL     1      14.817   9.371  20.281  0.00  0.00    -0.019 C 
ATOM     11  C   UNL     1      14.126   7.936  20.251  0.00  0.00    +0.011 C 
ATOM     12  C   UNL     1      12.583   7.892  19.927  0.00  0.00    +0.021 C 
ATOM     13  C   UNL     1      16.216   9.228  21.039  0.00  0.00    +0.054 C 
ATOM     14  C   UNL     1      13.926  10.355  21.082  0.00  0.00    +0.010 C 
ATOM     15  C   UNL     1      11.850   8.969  20.776  0.00  0.00    +0.123 C 
ATOM     16  C   UNL     1      14.969   6.917  19.432  0.00  0.00    +0.049 C 
ATOM     17  C   UNL     1      12.467  10.357  20.650  0.00  0.00    +0.032 C 
ATOM     18  C   UNL     1      15.055   9.953  18.867  0.00  0.00    +0.012 C 
ATOM     19  C   UNL     1      16.985   8.032  20.539  0.00  0.00    +0.058 A 
ATOM     21  C   UNL     1      12.016   6.506  20.347  0.00  0.00    +0.016 C 
ATOM     22  C   UNL     1      16.402   6.997  19.836  0.00  0.00    +0.015 A 
ATOM     25  C   UNL     1      18.744   6.744  20.275  0.00  0.00    +0.165 A 
ATOM     32  C   UNL     1      21.178   6.748  20.897  0.00  0.00    +0.250 C 
ATOM     42  H   UNL     1      20.064   5.308  19.852  0.00  0.00    +0.157 HD
ENDROOT
BRANCH  32  33
ATOM      2  F   UNL     1      25.824   3.624  20.449  0.00  0.00    -0.205 F 
ATOM     33  C   UNL     1      22.408   5.920  20.778  0.00  0.00    +0.037 A 
ATOM     34  C   UNL     1      23.636   6.530  20.524  0.00  0.00    +0.016 A 
ATOM     35  C   UNL     1      22.333   4.535  20.922  0.00  0.00    +0.016 A 
ATOM     36  C   UNL     1      24.791   5.754  20.412  0.00  0.00    +0.039 A 
ATOM     37  C   UNL     1      23.488   3.759  20.810  0.00  0.00    +0.039 A 
ATOM     38  C   UNL     1      24.716   4.369  20.555  0.00  0.00    +0.123 A 
ENDBRANCH  32  33
BRANCH  15   3
ATOM      3  O   UNL     1      10.472   9.043  20.412  0.00  0.00    -0.391 OA
ATOM     39  H   UNL     1      10.167   8.138  20.226  0.00  0.00    +0.210 HD
ENDBRANCH  15   3
BRANCH  12  20
ATOM     20  C   UNL     1      12.238   8.044  18.429  0.00  0.00    +0.165 C 
BRANCH  20   4
ATOM      4  O   UNL     1      11.964   6.759  17.916  0.00  0.00    -0.394 OA
ATOM     40  H   UNL     1      12.219   6.115  18.599  0.00  0.00    +0.209 HD
ENDBRANCH  20   4
ENDBRANCH  12  20
BRANCH  13  23
ATOM     23  C   UNL     1      17.080  10.496  21.027  0.00  0.00    +0.106 C 
BRANCH  23  24
ATOM      5  O   UNL     1      18.362  11.101  22.987  0.00  0.00    -0.276 OA
ATOM      8  N   UNL     1      16.078  11.522  22.938  0.00  0.00    -0.312 N 
ATOM     24  C   UNL     1      17.277  11.063  22.414  0.00  0.00    +0.214 C 
ATOM     41  H   UNL     1      15.249  11.493  22.352  0.00  0.00    +0.149 HD
BRANCH   8  26
ATOM     26  C   UNL     1      15.965  12.115  24.252  0.00  0.00    +0.073 C 
ATOM     27  C   UNL     1      14.804  11.497  25.037  0.00  0.00    +0.022 C 
ATOM     28  C   UNL     1      15.825  13.637  24.159  0.00  0.00    +0.022 C 
ATOM     29  C   UNL     1      13.439  11.930  24.501  0.00  0.00    +0.002 C 
ATOM     30  C   UNL     1      14.459  14.067  23.624  0.00  0.00    +0.002 C 
ATOM     31  C   UNL     1      13.320  13.449  24.429  0.00  0.00    +0.000 C 
ENDBRANCH   8  26
ENDBRANCH  23  24
ENDBRANCH  13  23
TORSDOF 7
ENDMDL
MODEL 4
REMARK VINA RESULT:      -6.8     27.413     31.143
REMARK  Name = 44716858
REMARK  9 active torsions:
REMARK  status: ('A' for Active; 'I' for Inactive)
REMARK    1  A    between atoms: O_3  and  C_15
REMARK    2  A    between atoms: O_4  and  C_20
REMARK    3  A    between atoms: N_8  and  C_26
REMARK    4  A    between atoms: C_10  and  C_18
REMARK    5  A    between atoms: C_12  and  C_20
REMARK    6  A    between atoms: C_12  and  C_21
REMARK    7  A    between atoms: C_13  and  C_23
REMARK    8  A    between atoms: C_23  and  C_24
REMARK    9  A    between atoms: C_32  and  C_33
REMARK                            x       y       z     vdW  Elec       q    Type
REMARK                         _______ _______ _______ _____ _____    ______ ____
ROOT
ATOM      1  S   UNL     1     -11.893 -10.568  18.887  0.00  0.00    -0.057 S 
ATOM      6  O   UNL     1      -8.110  -8.840  16.739  0.00  0.00    -0.270 OA
ATOM      7  N   UNL     1     -11.099  -8.866  17.108  0.00  0.00    -0.229 NA
ATOM      9  N   UNL     1      -9.393 -10.170  18.202  0.00  0.00    -0.261 N 
ATOM     10  C   UNL     1     -14.807  -8.185  16.295  0.00  0.00    -0.019 C 
ATOM     11  C   UNL     1     -15.270  -8.486  17.788  0.00  0.00    +0.011 C 
ATOM     12  C   UNL     1     -16.822  -8.478  18.071  0.00  0.00    +0.021 C 
ATOM     13  C   UNL     1     -13.253  -7.812  16.326  0.00  0.00    +0.054 C 
ATOM     14  C   UNL     1     -15.591  -6.965  15.748  0.00  0.00    +0.010 C 
ATOM     15  C   UNL     1     -17.456  -7.218  17.416  0.00  0.00    +0.123 C 
ATOM     16  C   UNL     1     -14.532  -9.724  18.374  0.00  0.00    +0.049 C 
ATOM     17  C   UNL     1     -17.097  -7.062  15.943  0.00  0.00    +0.032 C 
ATOM     18  C   UNL     1     -15.028  -9.385  15.343  0.00  0.00    +0.012 C 
ATOM     19  C   UNL     1     -12.478  -8.787  17.174  0.00  0.00    +0.058 A 
ATOM     21  C   UNL     1     -17.058  -8.370  19.605  0.00  0.00    +0.016 C 
ATOM     22  C   UNL     1     -13.070  -9.623  18.099  0.00  0.00    +0.015 A 
ATOM     25  C   UNL     1     -10.682  -9.777  17.960  0.00  0.00    +0.165 A 
ATOM     32  C   UNL     1      -8.196  -9.705  17.604  0.00  0.00    +0.250 C 
ATOM     42  H   UNL     1      -9.326 -10.866  18.939  0.00  0.00    +0.157 HD
ENDROOT
BRANCH  32  33
ATOM      2  F   UNL     1      -3.429 -12.005  19.481  0.00  0.00    -0.205 F 
ATOM     33  C   UNL     1      -6.934 -10.315  18.101  0.00  0.00    +0.037 A 
ATOM     34  C   UNL     1      -5.809 -10.357  17.278  0.00  0.00    +0.016 A 
ATOM     35  C   UNL     1      -6.875 -10.843  19.391  0.00  0.00    +0.016 A 
ATOM     36  C   UNL     1      -4.624 -10.928  17.744  0.00  0.00    +0.039 A 
ATOM     37  C   UNL     1      -5.691 -11.415  19.856  0.00  0.00    +0.039 A 
ATOM     38  C   UNL     1      -4.566 -11.457  19.033  0.00  0.00    +0.123 A 
ENDBRANCH  32  33
BRANCH  15   3
ATOM      3  O   UNL     1     -18.878  -7.248  17.542  0.00  0.00    -0.391 OA
ATOM     39  H   UNL     1     -19.147  -6.452  18.032  0.00  0.00    +0.210 HD
ENDBRANCH  15   3
BRANCH  12  20
ATOM     20  C   UNL     1     -17.561  -9.760  17.628  0.00  0.00    +0.165 C 
BRANCH  20   4
ATOM      4  O   UNL     1     -18.604  -9.998  18.546  0.00  0.00    -0.394 OA
ATOM     40  H   UNL     1     -19.256 -10.567  18.101  0.00  0.00    +0.209 HD
ENDBRANCH  20   4
ENDBRANCH  12  20
BRANCH  13  23
ATOM     23  C   UNL     1     -12.611  -7.635  14.944  0.00  0.00    +0.106 C 
BRANCH  23  24
ATOM      5  O   UNL     1     -11.291  -5.621  15.169  0.00  0.00    -0.276 OA
ATOM      8  N   UNL     1     -13.149  -5.622  13.775  0.00  0.00    -0.312 N 
ATOM     24  C   UNL     1     -12.252  -6.194  14.664  0.00  0.00    +0.214 C 
ATOM     41  H   UNL     1     -13.876  -6.208  13.374  0.00  0.00    +0.149 HD
BRANCH   8  26
ATOM     26  C   UNL     1     -13.052  -4.251  13.327  0.00  0.00    +0.073 C 
ATOM     27  C   UNL     1     -14.438  -3.666  13.038  0.00  0.00    +0.022 C 
ATOM     28  C   UNL     1     -12.135  -4.133  12.106  0.00  0.00    +0.022 C 
ATOM     29  C   UNL     1     -15.067  -4.249  11.772  0.00  0.00    +0.002 C 
ATOM     30  C   UNL     1     -12.766  -4.715  10.842  0.00  0.00    +0.002 C 
ATOM     31  C   UNL     1     -14.139  -4.109  10.569  0.00  0.00    +0.000 C 
ENDBRANCH   8  26
ENDBRANCH  23  24
ENDBRANCH  13  23
TORSDOF 7
ENDMDL
MODEL 5
REMARK VINA RESULT:      -6.7      1.679      2.668
REMARK  Name = 44716858
REMARK  9 active torsions:
REMARK  status: ('A' for Active; 'I' for Inactive)
REMARK    1  A    between atoms: O_3  and  C_15
REMARK    2  A    between atoms: O_4  and  C_20
REMARK    3  A    between atoms: N_8  and  C_26
REMARK    4  A    between atoms: C_10  and  C_18
REMARK    5  A    between atoms: C_12  and  C_20
REMARK    6  A    between atoms: C_12  and  C_21
REMARK    7  A    between atoms: C_13  and  C_23
REMARK    8  A    between atoms: C_23  and  C_24
REMARK    9  A    between atoms: C_32  and  C_33
REMARK                            x       y       z     vdW  Elec       q    Type
REMARK                         _______ _______ _______ _____ _____    ______ ____
ROOT
ATOM      1  S   UNL     1      11.220   3.713   2.369  0.00  0.00    -0.057 S 
ATOM      6  O   UNL     1       9.125   7.088   4.847  0.00  0.00    -0.270 OA
ATOM      7  N   UNL     1      10.075   6.026   2.192  0.00  0.00    -0.229 NA
ATOM      9  N   UNL     1      10.229   5.055   4.393  0.00  0.00    -0.261 N 
ATOM     10  C   UNL     1      11.070   6.089  -1.533  0.00  0.00    -0.019 C 
ATOM     11  C   UNL     1      10.979   4.504  -1.664  0.00  0.00    +0.011 C 
ATOM     12  C   UNL     1      11.422   3.874  -3.041  0.00  0.00    +0.021 C 
ATOM     13  C   UNL     1      10.187   6.531  -0.277  0.00  0.00    +0.054 C 
ATOM     14  C   UNL     1      10.474   6.747  -2.804  0.00  0.00    +0.010 C 
ATOM     15  C   UNL     1      10.776   4.679  -4.204  0.00  0.00    +0.123 C 
ATOM     16  C   UNL     1      11.593   3.795  -0.423  0.00  0.00    +0.049 C 
ATOM     17  C   UNL     1      11.023   6.180  -4.106  0.00  0.00    +0.032 C 
ATOM     18  C   UNL     1      12.521   6.595  -1.345  0.00  0.00    +0.012 C 
ATOM     19  C   UNL     1      10.469   5.659   0.919  0.00  0.00    +0.058 A 
ATOM     21  C   UNL     1      10.881   2.419  -3.129  0.00  0.00    +0.016 C 
ATOM     22  C   UNL     1      11.085   4.427   0.829  0.00  0.00    +0.015 A 
ATOM     25  C   UNL     1      10.425   5.082   3.038  0.00  0.00    +0.165 A 
ATOM     32  C   UNL     1       9.609   6.025   5.219  0.00  0.00    +0.250 C 
ATOM     42  H   UNL     1      10.556   4.194   4.820  0.00  0.00    +0.157 HD
ENDROOT
BRANCH  32  33
ATOM      2  F   UNL     1       9.286   4.777  10.685  0.00  0.00    -0.205 F 
ATOM     33  C   UNL     1       9.523   5.695   6.666  0.00  0.00    +0.037 A 
ATOM     34  C   UNL     1       9.848   4.413   7.109  0.00  0.00    +0.016 A 
ATOM     35  C   UNL     1       9.119   6.667   7.581  0.00  0.00    +0.016 A 
ATOM     36  C   UNL     1       9.768   4.102   8.467  0.00  0.00    +0.039 A 
ATOM     37  C   UNL     1       9.038   6.357   8.939  0.00  0.00    +0.039 A 
ATOM     38  C   UNL     1       9.362   5.074   9.381  0.00  0.00    +0.123 A 
ENDBRANCH  32  33
BRANCH  15   3
ATOM      3  O   UNL     1      11.260   4.215  -5.465  0.00  0.00    -0.391 OA
ATOM     39  H   UNL     1      11.514   4.995  -5.988  0.00  0.00    +0.210 HD
ENDBRANCH  15   3
BRANCH  12  20
ATOM     20  C   UNL     1      12.951   3.761  -3.232  0.00  0.00    +0.165 C 
BRANCH  20   4
ATOM      4  O   UNL     1      13.200   2.667  -4.085  0.00  0.00    -0.394 OA
ATOM     40  H   UNL     1      13.824   2.079  -3.626  0.00  0.00    +0.209 HD
ENDBRANCH  20   4
ENDBRANCH  12  20
BRANCH  13  23
ATOM     23  C   UNL     1      10.285   8.020   0.079  0.00  0.00    +0.106 C 
BRANCH  23  24
ATOM      5  O   UNL     1       8.266   8.865   1.109  0.00  0.00    -0.276 OA
ATOM      8  N   UNL     1       8.554   9.073  -1.186  0.00  0.00    -0.312 N 
ATOM     24  C   UNL     1       8.931   8.692   0.092  0.00  0.00    +0.214 C 
ATOM     41  H   UNL     1       9.209   8.932  -1.950  0.00  0.00    +0.149 HD
BRANCH   8  26
ATOM     26  C   UNL     1       7.302   9.738  -1.476  0.00  0.00    +0.073 C 
ATOM     27  C   UNL     1       6.185   8.722  -1.734  0.00  0.00    +0.022 C 
ATOM     28  C   UNL     1       7.453  10.708  -2.652  0.00  0.00    +0.022 C 
ATOM     29  C   UNL     1       6.347   8.002  -3.073  0.00  0.00    +0.002 C 
ATOM     30  C   UNL     1       7.613   9.985  -3.990  0.00  0.00    +0.002 C 
ATOM     31  C   UNL     1       6.484   8.988  -4.229  0.00  0.00    +0.000 C 
ENDBRANCH   8  26
ENDBRANCH  23  24
ENDBRANCH  13  23
TORSDOF 7
ENDMDL
MODEL 6
REMARK VINA RESULT:      -6.7     23.864     28.287
REMARK  Name = 44716858
REMARK  9 active torsions:
REMARK  status: ('A' for Active; 'I' for Inactive)
REMARK    1  A    between atoms: O_3  and  C_15
REMARK    2  A    between atoms: O_4  and  C_20
REMARK    3  A    between atoms: N_8  and  C_26
REMARK    4  A    between atoms: C_10  and  C_18
REMARK    5  A    between atoms: C_12  and  C_20
REMARK    6  A    between atoms: C_12  and  C_21
REMARK    7  A    between atoms: C_13  and  C_23
REMARK    8  A    between atoms: C_23  and  C_24
REMARK    9  A    between atoms: C_32  and  C_33
REMARK                            x       y       z     vdW  Elec       q    Type
REMARK                         _______ _______ _______ _____ _____    ______ ____
ROOT
ATOM      1  S   UNL     1      -9.707 -10.108  13.528  0.00  0.00    -0.057 S 
ATOM      6  O   UNL     1      -6.083  -9.001  10.779  0.00  0.00    -0.270 OA
ATOM      7  N   UNL     1      -7.124 -10.006  13.421  0.00  0.00    -0.229 NA
ATOM      9  N   UNL     1      -8.322  -9.302  11.452  0.00  0.00    -0.261 N 
ATOM     10  C   UNL     1      -7.062 -10.964  17.156  0.00  0.00    -0.019 C 
ATOM     11  C   UNL     1      -8.404 -11.815  17.040  0.00  0.00    +0.011 C 
ATOM     12  C   UNL     1      -8.991 -12.410  18.377  0.00  0.00    +0.021 C 
ATOM     13  C   UNL     1      -6.426 -10.845  15.695  0.00  0.00    +0.054 C 
ATOM     14  C   UNL     1      -6.055 -11.711  18.068  0.00  0.00    +0.010 C 
ATOM     15  C   UNL     1      -7.845 -13.077  19.189  0.00  0.00    +0.123 C 
ATOM     16  C   UNL     1      -9.461 -11.092  16.157  0.00  0.00    +0.049 C 
ATOM     17  C   UNL     1      -6.644 -12.161  19.397  0.00  0.00    +0.032 C 
ATOM     18  C   UNL     1      -7.298  -9.547  17.732  0.00  0.00    +0.012 C 
ATOM     19  C   UNL     1      -7.472 -10.469  14.677  0.00  0.00    +0.058 A 
ATOM     21  C   UNL     1     -10.020 -13.523  18.029  0.00  0.00    +0.016 C 
ATOM     22  C   UNL     1      -8.827 -10.605  14.898  0.00  0.00    +0.015 A 
ATOM     25  C   UNL     1      -8.221  -9.775  12.733  0.00  0.00    +0.165 A 
ATOM     32  C   UNL     1      -7.287  -8.945  10.553  0.00  0.00    +0.250 C 
ATOM     42  H   UNL     1      -9.283  -9.246  11.128  0.00  0.00    +0.157 HD
ENDROOT
BRANCH  32  33
ATOM      2  F   UNL     1      -8.911  -7.201   5.468  0.00  0.00    -0.205 F 
ATOM     33  C   UNL     1      -7.717  -8.484   9.206  0.00  0.00    +0.037 A 
ATOM     34  C   UNL     1      -8.777  -7.586   9.082  0.00  0.00    +0.016 A 
ATOM     35  C   UNL     1      -7.060  -8.948   8.067  0.00  0.00    +0.016 A 
ATOM     36  C   UNL     1      -9.181  -7.153   7.819  0.00  0.00    +0.039 A 
ATOM     37  C   UNL     1      -7.464  -8.515   6.804  0.00  0.00    +0.039 A 
ATOM     38  C   UNL     1      -8.525  -7.618   6.681  0.00  0.00    +0.123 A 
ENDBRANCH  32  33
BRANCH  15   3
ATOM      3  O   UNL     1      -8.318 -13.511  20.464  0.00  0.00    -0.391 OA
ATOM     39  H   UNL     1      -8.326 -12.737  21.054  0.00  0.00    +0.210 HD
ENDBRANCH  15   3
BRANCH  12  20
ATOM     20  C   UNL     1      -9.762 -11.392  19.247  0.00  0.00    +0.165 C 
BRANCH  20   4
ATOM      4  O   UNL     1     -10.659 -12.112  20.063  0.00  0.00    -0.394 OA
ATOM     40  H   UNL     1     -10.126 -12.664  20.661  0.00  0.00    +0.209 HD
ENDBRANCH  20   4
ENDBRANCH  12  20
BRANCH  13  23
ATOM     23  C   UNL     1      -5.200  -9.927  15.606  0.00  0.00    +0.106 C 
BRANCH  23  24
ATOM      5  O   UNL     1      -3.072 -11.042  15.888  0.00  0.00    -0.276 OA
ATOM      8  N   UNL     1      -3.994 -10.855  13.764  0.00  0.00    -0.312 N 
ATOM     24  C   UNL     1      -3.969 -10.667  15.137  0.00  0.00    +0.214 C 
ATOM     41  H   UNL     1      -4.815 -10.553  13.247  0.00  0.00    +0.149 HD
BRANCH   8  26
ATOM     26  C   UNL     1      -2.943 -11.532  13.039  0.00  0.00    +0.073 C 
ATOM     27  C   UNL     1      -2.063 -10.534  12.281  0.00  0.00    +0.022 C 
ATOM     28  C   UNL     1      -3.519 -12.593  12.096  0.00  0.00    +0.022 C 
ATOM     29  C   UNL     1      -2.778  -9.922  11.076  0.00  0.00    +0.002 C 
ATOM     30  C   UNL     1      -4.232 -11.978  10.891  0.00  0.00    +0.002 C 
ATOM     31  C   UNL     1      -3.333 -10.996  10.146  0.00  0.00    +0.000 C 
ENDBRANCH   8  26
ENDBRANCH  23  24
ENDBRANCH  13  23
TORSDOF 7
ENDMDL
MODEL 7
REMARK VINA RESULT:      -6.6     35.117     38.220
REMARK  Name = 44716858
REMARK  9 active torsions:
REMARK  status: ('A' for Active; 'I' for Inactive)
REMARK    1  A    between atoms: O_3  and  C_15
REMARK    2  A    between atoms: O_4  and  C_20
REMARK    3  A    between atoms: N_8  and  C_26
REMARK    4  A    between atoms: C_10  and  C_18
REMARK    5  A    between atoms: C_12  and  C_20
REMARK    6  A    between atoms: C_12  and  C_21
REMARK    7  A    between atoms: C_13  and  C_23
REMARK    8  A    between atoms: C_23  and  C_24
REMARK    9  A    between atoms: C_32  and  C_33
REMARK                            x       y       z     vdW  Elec       q    Type
REMARK                         _______ _______ _______ _____ _____    ______ ____
ROOT
ATOM      1  S   UNL     1      -4.920  12.520  33.981  0.00  0.00    -0.057 S 
ATOM      6  O   UNL     1      -7.221   9.244  36.407  0.00  0.00    -0.270 OA
ATOM      7  N   UNL     1      -4.694  10.805  35.906  0.00  0.00    -0.229 NA
ATOM      9  N   UNL     1      -6.832  10.922  34.798  0.00  0.00    -0.261 N 
ATOM     10  C   UNL     1      -0.944  11.688  36.078  0.00  0.00    -0.019 C 
ATOM     11  C   UNL     1      -1.196  13.188  35.605  0.00  0.00    +0.011 C 
ATOM     12  C   UNL     1       0.079  14.083  35.359  0.00  0.00    +0.021 C 
ATOM     13  C   UNL     1      -2.314  11.123  36.677  0.00  0.00    +0.054 C 
ATOM     14  C   UNL     1       0.123  11.674  37.202  0.00  0.00    +0.010 C 
ATOM     15  C   UNL     1       1.062  13.915  36.553  0.00  0.00    +0.123 C 
ATOM     16  C   UNL     1      -2.240  13.253  34.453  0.00  0.00    +0.049 C 
ATOM     17  C   UNL     1       1.383  12.458  36.866  0.00  0.00    +0.032 C 
ATOM     18  C   UNL     1      -0.468  10.767  34.929  0.00  0.00    +0.012 C 
ATOM     19  C   UNL     1      -3.476  11.443  35.771  0.00  0.00    +0.058 A 
ATOM     21  C   UNL     1      -0.351  15.577  35.321  0.00  0.00    +0.016 C 
ATOM     22  C   UNL     1      -3.427  12.415  34.792  0.00  0.00    +0.015 A 
ATOM     25  C   UNL     1      -5.529  11.286  35.009  0.00  0.00    +0.165 A 
ATOM     32  C   UNL     1      -7.604   9.949  35.480  0.00  0.00    +0.250 C 
ATOM     42  H   UNL     1      -7.280  11.470  34.070  0.00  0.00    +0.157 HD
ENDROOT
BRANCH  32  33
ATOM      2  F   UNL     1     -12.929   9.380  33.790  0.00  0.00    -0.205 F 
ATOM     33  C   UNL     1      -9.014   9.799  35.033  0.00  0.00    +0.037 A 
ATOM     34  C   UNL     1      -9.339   9.957  33.686  0.00  0.00    +0.016 A 
ATOM     35  C   UNL     1     -10.012   9.499  35.960  0.00  0.00    +0.016 A 
ATOM     36  C   UNL     1     -10.662   9.816  33.265  0.00  0.00    +0.039 A 
ATOM     37  C   UNL     1     -11.335   9.358  35.540  0.00  0.00    +0.039 A 
ATOM     38  C   UNL     1     -11.659   9.517  34.193  0.00  0.00    +0.123 A 
ENDBRANCH  32  33
BRANCH  15   3
ATOM      3  O   UNL     1       2.282  14.611  36.301  0.00  0.00    -0.391 OA
ATOM     39  H   UNL     1       2.129  15.552  36.492  0.00  0.00    +0.210 HD
ENDBRANCH  15   3
BRANCH  12  20
ATOM     20  C   UNL     1       0.796  13.823  34.015  0.00  0.00    +0.165 C 
BRANCH  20   4
ATOM      4  O   UNL     1       1.558  14.968  33.703  0.00  0.00    -0.394 OA
ATOM     40  H   UNL     1       1.331  15.653  34.356  0.00  0.00    +0.209 HD
ENDBRANCH  20   4
ENDBRANCH  12  20
BRANCH  13  23
ATOM     23  C   UNL     1      -2.284   9.635  37.046  0.00  0.00    +0.106 C 
BRANCH  23  24
ATOM      5  O   UNL     1      -2.727  10.181  39.361  0.00  0.00    -0.276 OA
ATOM      8  N   UNL     1      -1.513   8.268  38.847  0.00  0.00    -0.312 N 
ATOM     24  C   UNL     1      -2.218   9.421  38.541  0.00  0.00    +0.214 C 
ATOM     41  H   UNL     1      -1.185   7.681  38.085  0.00  0.00    +0.149 HD
BRANCH   8  26
ATOM     26  C   UNL     1      -1.290   7.814  40.202  0.00  0.00    +0.073 C 
ATOM     27  C   UNL     1       0.092   7.169  40.348  0.00  0.00    +0.022 C 
ATOM     28  C   UNL     1      -2.399   6.859  40.653  0.00  0.00    +0.022 C 
ATOM     29  C   UNL     1       0.176   5.806  39.661  0.00  0.00    +0.002 C 
ATOM     30  C   UNL     1      -2.311   5.495  39.967  0.00  0.00    +0.002 C 
ATOM     31  C   UNL     1      -0.931   4.869  40.135  0.00  0.00    +0.000 C 
ENDBRANCH   8  26
ENDBRANCH  23  24
ENDBRANCH  13  23
TORSDOF 7
ENDMDL
MODEL 8
REMARK VINA RESULT:      -6.6     15.539     18.924
REMARK  Name = 44716858
REMARK  9 active torsions:
REMARK  status: ('A' for Active; 'I' for Inactive)
REMARK    1  A    between atoms: O_3  and  C_15
REMARK    2  A    between atoms: O_4  and  C_20
REMARK    3  A    between atoms: N_8  and  C_26
REMARK    4  A    between atoms: C_10  and  C_18
REMARK    5  A    between atoms: C_12  and  C_20
REMARK    6  A    between atoms: C_12  and  C_21
REMARK    7  A    between atoms: C_13  and  C_23
REMARK    8  A    between atoms: C_23  and  C_24
REMARK    9  A    between atoms: C_32  and  C_33
REMARK                            x       y       z     vdW  Elec       q    Type
REMARK                         _______ _______ _______ _____ _____    ______ ____
ROOT
ATOM      1  S   UNL     1      14.076  14.305  19.107  0.00  0.00    -0.057 S 
ATOM      6  O   UNL     1      11.940  10.826  21.399  0.00  0.00    -0.270 OA
ATOM      7  N   UNL     1      13.459  11.796  18.985  0.00  0.00    -0.229 NA
ATOM      9  N   UNL     1      12.756  12.993  20.955  0.00  0.00    -0.261 N 
ATOM     10  C   UNL     1      14.856  11.761  15.391  0.00  0.00    -0.019 C 
ATOM     11  C   UNL     1      15.931  12.891  15.715  0.00  0.00    +0.011 C 
ATOM     12  C   UNL     1      16.795  13.424  14.507  0.00  0.00    +0.021 C 
ATOM     13  C   UNL     1      14.429  11.077  16.770  0.00  0.00    +0.054 C 
ATOM     14  C   UNL     1      15.502  10.679  14.488  0.00  0.00    +0.010 C 
ATOM     15  C   UNL     1      17.324  12.215  13.683  0.00  0.00    +0.123 C 
ATOM     16  C   UNL     1      15.321  14.019  16.596  0.00  0.00    +0.049 C 
ATOM     17  C   UNL     1      16.225  11.241  13.273  0.00  0.00    +0.032 C 
ATOM     18  C   UNL     1      13.597  12.315  14.680  0.00  0.00    +0.012 C 
ATOM     19  C   UNL     1      14.137  12.115  17.824  0.00  0.00    +0.058 A 
ATOM     21  C   UNL     1      18.034  14.181  15.065  0.00  0.00    +0.016 C 
ATOM     22  C   UNL     1      14.563  13.425  17.734  0.00  0.00    +0.015 A 
ATOM     25  C   UNL     1      13.360  12.874  19.732  0.00  0.00    +0.165 A 
ATOM     32  C   UNL     1      12.091  12.001  21.718  0.00  0.00    +0.250 C 
ATOM     42  H   UNL     1      12.848  13.925  21.349  0.00  0.00    +0.157 HD
ENDROOT
BRANCH  32  33
ATOM      2  F   UNL     1      10.062  13.643  26.690  0.00  0.00    -0.205 F 
ATOM     33  C   UNL     1      11.555  12.436  23.034  0.00  0.00    +0.037 A 
ATOM     34  C   UNL     1      11.118  13.748  23.211  0.00  0.00    +0.016 A 
ATOM     35  C   UNL     1      11.487  11.530  24.093  0.00  0.00    +0.016 A 
ATOM     36  C   UNL     1      10.614  14.157  24.446  0.00  0.00    +0.039 A 
ATOM     37  C   UNL     1      10.983  11.938  25.329  0.00  0.00    +0.039 A 
ATOM     38  C   UNL     1      10.547  13.252  25.504  0.00  0.00    +0.123 A 
ENDBRANCH  32  33
BRANCH  15   3
ATOM      3  O   UNL     1      18.001  12.665  12.510  0.00  0.00    -0.391 OA
ATOM     39  H   UNL     1      17.390  12.562  11.760  0.00  0.00    +0.210 HD
ENDBRANCH  15   3
BRANCH  12  20
ATOM     20  C   UNL     1      16.067  14.436  13.595  0.00  0.00    +0.165 C 
BRANCH  20   4
ATOM      4  O   UNL     1      17.027  15.346  13.107  0.00  0.00    -0.394 OA
ATOM     40  H   UNL     1      17.884  14.885  13.098  0.00  0.00    +0.209 HD
ENDBRANCH  20   4
ENDBRANCH  12  20
BRANCH  13  23
ATOM     23  C   UNL     1      13.285  10.061  16.651  0.00  0.00    +0.106 C 
BRANCH  23  24
ATOM      5  O   UNL     1      14.007   7.798  16.194  0.00  0.00    -0.276 OA
ATOM      8  N   UNL     1      13.765   8.501  18.395  0.00  0.00    -0.312 N 
ATOM     24  C   UNL     1      13.727   8.663  17.019  0.00  0.00    +0.214 C 
ATOM     41  H   UNL     1      13.568   9.303  18.986  0.00  0.00    +0.149 HD
BRANCH   8  26
ATOM     26  C   UNL     1      14.151   7.262  19.035  0.00  0.00    +0.073 C 
ATOM     27  C   UNL     1      13.387   7.057  20.347  0.00  0.00    +0.022 C 
ATOM     28  C   UNL     1      15.665   7.206  19.259  0.00  0.00    +0.022 C 
ATOM     29  C   UNL     1      13.853   8.007  21.449  0.00  0.00    +0.002 C 
ATOM     30  C   UNL     1      16.128   8.157  20.363  0.00  0.00    +0.002 C 
ATOM     31  C   UNL     1      15.362   7.926  21.662  0.00  0.00    +0.000 C 
ENDBRANCH   8  26
ENDBRANCH  23  24
ENDBRANCH  13  23
TORSDOF 7
ENDMDL
MODEL 9
REMARK VINA RESULT:      -6.4     23.393     26.687
REMARK  Name = 44716858
REMARK  9 active torsions:
REMARK  status: ('A' for Active; 'I' for Inactive)
REMARK    1  A    between atoms: O_3  and  C_15
REMARK    2  A    between atoms: O_4  and  C_20
REMARK    3  A    between atoms: N_8  and  C_26
REMARK    4  A    between atoms: C_10  and  C_18
REMARK    5  A    between atoms: C_12  and  C_20
REMARK    6  A    between atoms: C_12  and  C_21
REMARK    7  A    between atoms: C_13  and  C_23
REMARK    8  A    between atoms: C_23  and  C_24
REMARK    9  A    between atoms: C_32  and  C_33
REMARK                            x       y       z     vdW  Elec       q    Type
REMARK                         _______ _______ _______ _____ _____    ______ ____
ROOT
ATOM      1  S   UNL     1      -4.206  -9.669   9.563  0.00  0.00    -0.057 S 
ATOM      6  O   UNL     1      -8.763  -8.917   8.801  0.00  0.00    -0.270 OA
ATOM      7  N   UNL     1      -6.541  -9.706  10.676  0.00  0.00    -0.229 NA
ATOM      9  N   UNL     1      -6.454  -9.067   8.353  0.00  0.00    -0.261 N 
ATOM     10  C   UNL     1      -4.877 -11.201  13.817  0.00  0.00    -0.019 C 
ATOM     11  C   UNL     1      -3.503 -10.443  13.545  0.00  0.00    +0.011 C 
ATOM     12  C   UNL     1      -2.300 -10.773  14.511  0.00  0.00    +0.021 C 
ATOM     13  C   UNL     1      -6.034 -10.418  13.042  0.00  0.00    +0.054 C 
ATOM     14  C   UNL     1      -5.194 -11.166  15.334  0.00  0.00    +0.010 C 
ATOM     15  C   UNL     1      -2.801 -10.741  15.983  0.00  0.00    +0.123 C 
ATOM     16  C   UNL     1      -3.124 -10.476  12.037  0.00  0.00    +0.049 C 
ATOM     17  C   UNL     1      -4.035 -11.606  16.217  0.00  0.00    +0.032 C 
ATOM     18  C   UNL     1      -4.852 -12.677  13.349  0.00  0.00    +0.012 C 
ATOM     19  C   UNL     1      -5.619 -10.093  11.630  0.00  0.00    +0.058 A 
ATOM     21  C   UNL     1      -1.216  -9.668  14.367  0.00  0.00    +0.016 C 
ATOM     22  C   UNL     1      -4.306 -10.108  11.205  0.00  0.00    +0.015 A 
ATOM     25  C   UNL     1      -5.911  -9.466   9.546  0.00  0.00    +0.165 A 
ATOM     32  C   UNL     1      -7.811  -8.816   8.035  0.00  0.00    +0.250 C 
ATOM     42  H   UNL     1      -5.752  -8.908   7.637  0.00  0.00    +0.157 HD
ENDROOT
BRANCH  32  33
ATOM      2  F   UNL     1      -8.851  -7.118   2.784  0.00  0.00    -0.205 F 
ATOM     33  C   UNL     1      -8.086  -8.366   6.645  0.00  0.00    +0.037 A 
ATOM     34  C   UNL     1      -7.231  -8.740   5.609  0.00  0.00    +0.016 A 
ATOM     35  C   UNL     1      -9.200  -7.570   6.377  0.00  0.00    +0.016 A 
ATOM     36  C   UNL     1      -7.489  -8.319   4.304  0.00  0.00    +0.039 A 
ATOM     37  C   UNL     1      -9.458  -7.148   5.072  0.00  0.00    +0.039 A 
ATOM     38  C   UNL     1      -8.602  -7.522   4.037  0.00  0.00    +0.123 A 
ENDBRANCH  32  33
BRANCH  15   3
ATOM      3  O   UNL     1      -1.769 -11.163  16.874  0.00  0.00    -0.391 OA
ATOM     39  H   UNL     1      -1.463 -10.379  17.362  0.00  0.00    +0.210 HD
ENDBRANCH  15   3
BRANCH  12  20
ATOM     20  C   UNL     1      -1.578 -12.104  14.204  0.00  0.00    +0.165 C 
BRANCH  20   4
ATOM      4  O   UNL     1      -2.211 -13.120  14.948  0.00  0.00    -0.394 OA
ATOM     40  H   UNL     1      -2.957 -12.711  15.420  0.00  0.00    +0.209 HD
ENDBRANCH  20   4
ENDBRANCH  12  20
BRANCH  13  23
ATOM     23  C   UNL     1      -7.405 -11.105  13.080  0.00  0.00    +0.106 C 
BRANCH  23  24
ATOM      5  O   UNL     1      -9.121  -9.447  13.478  0.00  0.00    -0.276 OA
ATOM      8  N   UNL     1      -8.385 -10.778  15.234  0.00  0.00    -0.312 N 
ATOM     24  C   UNL     1      -8.402 -10.339  13.919  0.00  0.00    +0.214 C 
ATOM     41  H   UNL     1      -7.789 -11.564  15.477  0.00  0.00    +0.149 HD
BRANCH   8  26
ATOM     26  C   UNL     1      -9.234 -10.222  16.264  0.00  0.00    +0.073 C 
ATOM     27  C   UNL     1      -8.481  -9.183  17.100  0.00  0.00    +0.022 C 
ATOM     28  C   UNL     1      -9.821 -11.327  17.149  0.00  0.00    +0.022 C 
ATOM     29  C   UNL     1      -7.437  -9.816  18.019  0.00  0.00    +0.002 C 
ATOM     30  C   UNL     1      -8.775 -11.957  18.068  0.00  0.00    +0.002 C 
ATOM     31  C   UNL     1      -8.047 -10.904  18.898  0.00  0.00    +0.000 C 
ENDBRANCH   8  26
ENDBRANCH  23  24
ENDBRANCH  13  23
TORSDOF 7
ENDMDL
MODEL 10
REMARK VINA RESULT:      -6.4     42.555     45.171
REMARK  Name = 44716858
REMARK  9 active torsions:
REMARK  status: ('A' for Active; 'I' for Inactive)
REMARK    1  A    between atoms: O_3  and  C_15
REMARK    2  A    between atoms: O_4  and  C_20
REMARK    3  A    between atoms: N_8  and  C_26
REMARK    4  A    between atoms: C_10  and  C_18
REMARK    5  A    between atoms: C_12  and  C_20
REMARK    6  A    between atoms: C_12  and  C_21
REMARK    7  A    between atoms: C_13  and  C_23
REMARK    8  A    between atoms: C_23  and  C_24
REMARK    9  A    between atoms: C_32  and  C_33
REMARK                            x       y       z     vdW  Elec       q    Type
REMARK                         _______ _______ _______ _____ _____    ______ ____
ROOT
ATOM      1  S   UNL     1      -6.306  -7.193  39.075  0.00  0.00    -0.057 S 
ATOM      6  O   UNL     1      -7.540 -11.682  38.581  0.00  0.00    -0.270 OA
ATOM      7  N   UNL     1      -8.282  -8.849  39.290  0.00  0.00    -0.229 NA
ATOM      9  N   UNL     1      -6.170  -9.764  38.575  0.00  0.00    -0.261 N 
ATOM     10  C   UNL     1     -10.367  -5.965  40.775  0.00  0.00    -0.019 C 
ATOM     11  C   UNL     1      -9.592  -4.863  39.926  0.00  0.00    +0.011 C 
ATOM     12  C   UNL     1      -9.954  -3.355  40.211  0.00  0.00    +0.021 C 
ATOM     13  C   UNL     1     -10.184  -7.373  40.041  0.00  0.00    +0.054 C 
ATOM     14  C   UNL     1     -11.879  -5.623  40.806  0.00  0.00    +0.010 C 
ATOM     15  C   UNL     1     -11.501  -3.198  40.255  0.00  0.00    +0.123 C 
ATOM     16  C   UNL     1      -8.063  -5.146  39.890  0.00  0.00    +0.049 C 
ATOM     17  C   UNL     1     -12.178  -4.184  41.200  0.00  0.00    +0.032 C 
ATOM     18  C   UNL     1      -9.853  -6.074  42.231  0.00  0.00    +0.012 C 
ATOM     19  C   UNL     1      -8.746  -7.597  39.649  0.00  0.00    +0.058 A 
ATOM     21  C   UNL     1      -9.434  -2.478  39.037  0.00  0.00    +0.016 C 
ATOM     22  C   UNL     1      -7.816  -6.581  39.569  0.00  0.00    +0.015 A 
ATOM     25  C   UNL     1      -7.008  -8.758  38.976  0.00  0.00    +0.165 A 
ATOM     32  C   UNL     1      -6.455 -11.140  38.399  0.00  0.00    +0.250 C 
ATOM     42  H   UNL     1      -5.236  -9.432  38.352  0.00  0.00    +0.157 HD
ENDROOT
BRANCH  32  33
ATOM      2  F   UNL     1      -2.204 -14.341  36.603  0.00  0.00    -0.205 F 
ATOM     33  C   UNL     1      -5.330 -11.988  37.924  0.00  0.00    +0.037 A 
ATOM     34  C   UNL     1      -5.184 -12.254  36.563  0.00  0.00    +0.016 A 
ATOM     35  C   UNL     1      -4.420 -12.517  38.839  0.00  0.00    +0.016 A 
ATOM     36  C   UNL     1      -4.128 -13.049  36.116  0.00  0.00    +0.039 A 
ATOM     37  C   UNL     1      -3.365 -13.313  38.393  0.00  0.00    +0.039 A 
ATOM     38  C   UNL     1      -3.219 -13.578  37.032  0.00  0.00    +0.123 A 
ENDBRANCH  32  33
BRANCH  15   3
ATOM      3  O   UNL     1     -11.861  -1.872  40.640  0.00  0.00    -0.391 OA
ATOM     39  H   UNL     1     -11.795  -1.308  39.850  0.00  0.00    +0.210 HD
ENDBRANCH  15   3
BRANCH  12  20
ATOM     20  C   UNL     1      -9.305  -2.770  41.485  0.00  0.00    +0.165 C 
BRANCH  20   4
ATOM      4  O   UNL     1      -8.698  -1.546  41.137  0.00  0.00    -0.394 OA
ATOM     40  H   UNL     1      -8.806  -1.432  40.177  0.00  0.00    +0.209 HD
ENDBRANCH  20   4
ENDBRANCH  12  20
BRANCH  13  23
ATOM     23  C   UNL     1     -10.750  -8.573  40.812  0.00  0.00    +0.106 C 
BRANCH  23  24
ATOM      5  O   UNL     1     -13.055  -9.138  40.345  0.00  0.00    -0.276 OA
ATOM      8  N   UNL     1     -11.366 -10.027  39.020  0.00  0.00    -0.312 N 
ATOM     24  C   UNL     1     -11.866  -9.257  40.058  0.00  0.00    +0.214 C 
ATOM     41  H   UNL     1     -10.367 -10.007  38.837  0.00  0.00    +0.149 HD
BRANCH   8  26
ATOM     26  C   UNL     1     -12.207 -10.797  38.129  0.00  0.00    +0.073 C 
ATOM     27  C   UNL     1     -12.388 -12.229  38.642  0.00  0.00    +0.022 C 
ATOM     28  C   UNL     1     -11.655 -10.784  36.701  0.00  0.00    +0.022 C 
ATOM     29  C   UNL     1     -11.118 -13.067  38.496  0.00  0.00    +0.002 C 
ATOM     30  C   UNL     1     -10.386 -11.624  36.557  0.00  0.00    +0.002 C 
ATOM     31  C   UNL     1     -10.594 -13.048  37.064  0.00  0.00    +0.000 C 
ENDBRANCH   8  26
ENDBRANCH  23  24
ENDBRANCH  13  23
TORSDOF 7
ENDMDL
