MODEL 1
REMARK VINA RESULT:      -6.8      0.000      0.000
REMARK  Name = 9424622
REMARK  4 active torsions:
REMARK  status: ('A' for Active; 'I' for Inactive)
REMARK    1  A    between atoms: N_4  and  C_15
REMARK    2  A    between atoms: N_7  and  C_22
REMARK    3  A    between atoms: C_26  and  C_27
REMARK    4  A    between atoms: C_28  and  C_29
REMARK                            x       y       z     vdW  Elec       q    Type
REMARK                         _______ _______ _______ _____ _____    ______ ____
ROOT
ATOM      1  O   UNL     1      14.238   9.341   6.549  0.00  0.00    -0.268 OA
ATOM      4  N   UNL     1       9.644   8.168   4.904  0.00  0.00    -0.298 NA
ATOM      5  N   UNL     1      12.719   9.022   4.794  0.00  0.00    -0.310 N 
ATOM     10  C   UNL     1      10.607  10.454   4.540  0.00  0.00    +0.024 C 
ATOM     11  C   UNL     1      11.075   8.677   2.923  0.00  0.00    +0.052 C 
ATOM     12  C   UNL     1      10.778  10.169   3.057  0.00  0.00    +0.017 C 
ATOM     13  C   UNL     1       9.453   9.608   5.116  0.00  0.00    +0.090 C 
ATOM     14  C   UNL     1       9.888   7.863   3.486  0.00  0.00    +0.094 C 
ATOM     16  C   UNL     1      11.943  10.188   5.240  0.00  0.00    +0.130 C 
ATOM     17  C   UNL     1      12.369   8.297   3.640  0.00  0.00    +0.047 A 
ATOM     22  C   UNL     1      13.160   7.283   3.222  0.00  0.00    +0.054 A 
ATOM     23  C   UNL     1      13.874   8.731   5.542  0.00  0.00    +0.252 A 
ATOM     24  C   UNL     1      14.359   6.947   3.951  0.00  0.00    +0.030 A 
ATOM     25  C   UNL     1      14.714   7.610   5.055  0.00  0.00    +0.072 A 
ENDROOT
BRANCH   4  15
ATOM      2  O   UNL     1       9.793   3.471   8.216  0.00  0.00    -0.276 OA
ATOM      6  N   UNL     1       9.579   5.673   7.504  0.00  0.00    -0.302 N 
ATOM     15  C   UNL     1       8.503   7.406   5.414  0.00  0.00    +0.060 C 
ATOM     18  C   UNL     1       8.292   7.695   6.908  0.00  0.00    +0.038 C 
ATOM     19  C   UNL     1       8.725   5.902   5.199  0.00  0.00    +0.038 C 
ATOM     20  C   UNL     1       9.401   7.105   7.782  0.00  0.00    +0.109 C 
ATOM     21  C   UNL     1       9.827   5.341   6.099  0.00  0.00    +0.109 C 
ATOM     26  C   UNL     1       9.586   4.662   8.465  0.00  0.00    +0.212 C 
ATOM     27  C   UNL     1       9.319   5.080   9.889  0.00  0.00    +0.109 C 
ENDBRANCH   4  15
BRANCH  22   7
ATOM      3  O   UNL     1      11.668   4.851   3.215  0.00  0.00    -0.268 OA
ATOM      7  N   UNL     1      12.885   6.507   2.128  0.00  0.00    -0.279 N 
ATOM     28  C   UNL     1      12.153   5.333   2.194  0.00  0.00    +0.268 C 
ATOM     33  H   UNL     1      13.056   6.896   1.206  0.00  0.00    +0.155 HD
BRANCH  28  29
ATOM      8  N   UNL     1      12.975   3.929   0.455  0.00  0.00    -0.247 NA
ATOM      9  N   UNL     1      10.543   4.131  -0.926  0.00  0.00    -0.259 NA
ATOM     29  C   UNL     1      11.939   4.639   0.898  0.00  0.00    +0.144 A 
ATOM     30  C   UNL     1      10.748   4.754   0.251  0.00  0.00    +0.143 A 
ATOM     31  C   UNL     1      12.768   3.305  -0.722  0.00  0.00    +0.131 A 
ATOM     32  C   UNL     1      11.574   3.405  -1.400  0.00  0.00    +0.130 A 
ENDBRANCH  28  29
ENDBRANCH  22   7
TORSDOF 3
ENDMDL
MODEL 2
REMARK VINA RESULT:      -6.5      2.470      4.514
REMARK  Name = 9424622
REMARK  4 active torsions:
REMARK  status: ('A' for Active; 'I' for Inactive)
REMARK    1  A    between atoms: N_4  and  C_15
REMARK    2  A    between atoms: N_7  and  C_22
REMARK    3  A    between atoms: C_26  and  C_27
REMARK    4  A    between atoms: C_28  and  C_29
REMARK                            x       y       z     vdW  Elec       q    Type
REMARK                         _______ _______ _______ _____ _____    ______ ____
ROOT
ATOM      1  O   UNL     1       8.992   6.833   8.368  0.00  0.00    -0.268 OA
ATOM      4  N   UNL     1      10.581   9.429   4.378  0.00  0.00    -0.298 NA
ATOM      5  N   UNL     1      10.545   7.185   6.650  0.00  0.00    -0.310 N 
ATOM     10  C   UNL     1      11.935   9.333   6.486  0.00  0.00    +0.024 C 
ATOM     11  C   UNL     1      12.203   7.578   4.800  0.00  0.00    +0.052 C 
ATOM     12  C   UNL     1      12.960   8.436   5.812  0.00  0.00    +0.017 C 
ATOM     13  C   UNL     1      11.226  10.214   5.437  0.00  0.00    +0.090 C 
ATOM     14  C   UNL     1      11.527   8.492   3.753  0.00  0.00    +0.094 C 
ATOM     16  C   UNL     1      10.963   8.449   7.272  0.00  0.00    +0.130 C 
ATOM     17  C   UNL     1      11.162   6.694   5.484  0.00  0.00    +0.047 A 
ATOM     22  C   UNL     1      10.802   5.486   4.996  0.00  0.00    +0.054 A 
ATOM     23  C   UNL     1       9.554   6.461   7.338  0.00  0.00    +0.252 A 
ATOM     24  C   UNL     1       9.793   4.701   5.666  0.00  0.00    +0.030 A 
ATOM     25  C   UNL     1       9.183   5.142   6.768  0.00  0.00    +0.072 A 
ENDROOT
BRANCH   4  15
ATOM      2  O   UNL     1       5.045   9.618   2.839  0.00  0.00    -0.276 OA
ATOM      6  N   UNL     1       7.088  10.125   3.823  0.00  0.00    -0.302 N 
ATOM     15  C   UNL     1       9.969  10.301   3.375  0.00  0.00    +0.060 C 
ATOM     18  C   UNL     1       9.174  11.425   4.057  0.00  0.00    +0.038 C 
ATOM     19  C   UNL     1       9.043   9.492   2.455  0.00  0.00    +0.038 C 
ATOM     20  C   UNL     1       7.910  10.913   4.751  0.00  0.00    +0.109 C 
ATOM     21  C   UNL     1       7.783   9.009   3.174  0.00  0.00    +0.109 C 
ATOM     26  C   UNL     1       5.730  10.327   3.580  0.00  0.00    +0.212 C 
ATOM     27  C   UNL     1       5.085  11.497   4.280  0.00  0.00    +0.109 C 
ENDBRANCH   4  15
BRANCH  22   7
ATOM      3  O   UNL     1       9.793   5.825   2.348  0.00  0.00    -0.268 OA
ATOM      7  N   UNL     1      11.326   4.941   3.855  0.00  0.00    -0.279 N 
ATOM     28  C   UNL     1      10.786   5.146   2.596  0.00  0.00    +0.268 C 
ATOM     33  H   UNL     1      12.254   4.528   3.900  0.00  0.00    +0.155 HD
BRANCH  28  29
ATOM      8  N   UNL     1      10.946   4.633   0.276  0.00  0.00    -0.247 NA
ATOM      9  N   UNL     1      13.321   3.203   0.705  0.00  0.00    -0.259 NA
ATOM     29  C   UNL     1      11.508   4.490   1.475  0.00  0.00    +0.144 A 
ATOM     30  C   UNL     1      12.658   3.804   1.713  0.00  0.00    +0.143 A 
ATOM     31  C   UNL     1      11.610   4.032  -0.732  0.00  0.00    +0.131 A 
ATOM     32  C   UNL     1      12.776   3.330  -0.521  0.00  0.00    +0.130 A 
ENDBRANCH  28  29
ENDBRANCH  22   7
TORSDOF 3
ENDMDL
MODEL 3
REMARK VINA RESULT:      -6.3     24.350     28.380
REMARK  Name = 9424622
REMARK  4 active torsions:
REMARK  status: ('A' for Active; 'I' for Inactive)
REMARK    1  A    between atoms: N_4  and  C_15
REMARK    2  A    between atoms: N_7  and  C_22
REMARK    3  A    between atoms: C_26  and  C_27
REMARK    4  A    between atoms: C_28  and  C_29
REMARK                            x       y       z     vdW  Elec       q    Type
REMARK                         _______ _______ _______ _____ _____    ______ ____
ROOT
ATOM      1  O   UNL     1      -6.241 -11.575  20.512  0.00  0.00    -0.268 OA
ATOM      4  N   UNL     1      -8.763 -11.557  16.173  0.00  0.00    -0.298 NA
ATOM      5  N   UNL     1      -6.706 -10.614  18.427  0.00  0.00    -0.310 N 
ATOM     10  C   UNL     1      -9.026  -9.697  17.834  0.00  0.00    +0.024 C 
ATOM     11  C   UNL     1      -7.219  -9.595  16.186  0.00  0.00    +0.052 C 
ATOM     12  C   UNL     1      -8.252  -8.752  16.930  0.00  0.00    +0.017 C 
ATOM     13  C   UNL     1      -9.711 -10.795  16.996  0.00  0.00    +0.090 C 
ATOM     14  C   UNL     1      -7.942 -10.667  15.339  0.00  0.00    +0.094 C 
ATOM     16  C   UNL     1      -8.060 -10.264  18.879  0.00  0.00    +0.130 C 
ATOM     17  C   UNL     1      -6.236 -10.255  17.151  0.00  0.00    +0.047 A 
ATOM     22  C   UNL     1      -4.955 -10.523  16.810  0.00  0.00    +0.054 A 
ATOM     23  C   UNL     1      -5.888 -11.252  19.377  0.00  0.00    +0.252 A 
ATOM     24  C   UNL     1      -4.073 -11.173  17.750  0.00  0.00    +0.030 A 
ATOM     25  C   UNL     1      -4.491 -11.535  18.965  0.00  0.00    +0.072 A 
ENDROOT
BRANCH   4  15
ATOM      2  O   UNL     1      -7.051 -16.917  14.996  0.00  0.00    -0.276 OA
ATOM      6  N   UNL     1      -8.162 -15.103  15.930  0.00  0.00    -0.302 N 
ATOM     15  C   UNL     1      -9.458 -12.550  15.353  0.00  0.00    +0.060 C 
ATOM     18  C   UNL     1     -10.110 -13.618  16.244  0.00  0.00    +0.038 C 
ATOM     19  C   UNL     1      -8.480 -13.214  14.373  0.00  0.00    +0.038 C 
ATOM     20  C   UNL     1      -9.080 -14.526  16.920  0.00  0.00    +0.109 C 
ATOM     21  C   UNL     1      -7.476 -14.126  15.078  0.00  0.00    +0.109 C 
ATOM     26  C   UNL     1      -7.868 -16.460  15.798  0.00  0.00    +0.212 C 
ATOM     27  C   UNL     1      -8.616 -17.404  16.706  0.00  0.00    +0.109 C 
ENDBRANCH   4  15
BRANCH  22   7
ATOM      3  O   UNL     1      -4.436 -12.393  14.717  0.00  0.00    -0.268 OA
ATOM      7  N   UNL     1      -4.418 -10.236  15.584  0.00  0.00    -0.279 N 
ATOM     28  C   UNL     1      -4.192 -11.194  14.610  0.00  0.00    +0.268 C 
ATOM     33  H   UNL     1      -4.360  -9.262  15.300  0.00  0.00    +0.155 HD
BRANCH  28  29
ATOM      8  N   UNL     1      -4.519 -10.302  12.426  0.00  0.00    -0.247 NA
ATOM      9  N   UNL     1      -1.748 -10.185  12.004  0.00  0.00    -0.259 NA
ATOM     29  C   UNL     1      -3.623 -10.686  13.333  0.00  0.00    +0.144 A 
ATOM     30  C   UNL     1      -2.276 -10.641  13.158  0.00  0.00    +0.143 A 
ATOM     31  C   UNL     1      -3.990  -9.845  11.273  0.00  0.00    +0.131 A 
ATOM     32  C   UNL     1      -2.630  -9.788  11.066  0.00  0.00    +0.130 A 
ENDBRANCH  28  29
ENDBRANCH  22   7
TORSDOF 3
ENDMDL
MODEL 4
REMARK VINA RESULT:      -6.2      2.745      7.378
REMARK  Name = 9424622
REMARK  4 active torsions:
REMARK  status: ('A' for Active; 'I' for Inactive)
REMARK    1  A    between atoms: N_4  and  C_15
REMARK    2  A    between atoms: N_7  and  C_22
REMARK    3  A    between atoms: C_26  and  C_27
REMARK    4  A    between atoms: C_28  and  C_29
REMARK                            x       y       z     vdW  Elec       q    Type
REMARK                         _______ _______ _______ _____ _____    ______ ____
ROOT
ATOM      1  O   UNL     1      15.706   8.164  -0.549  0.00  0.00    -0.268 OA
ATOM      4  N   UNL     1      12.521   4.333   0.057  0.00  0.00    -0.298 NA
ATOM      5  N   UNL     1      14.871   6.388   0.730  0.00  0.00    -0.310 N 
ATOM     10  C   UNL     1      14.997   3.954  -0.068  0.00  0.00    +0.024 C 
ATOM     11  C   UNL     1      13.964   4.476   2.089  0.00  0.00    +0.052 C 
ATOM     12  C   UNL     1      15.044   3.631   1.416  0.00  0.00    +0.017 C 
ATOM     13  C   UNL     1      13.603   3.627  -0.641  0.00  0.00    +0.090 C 
ATOM     14  C   UNL     1      12.581   4.104   1.508  0.00  0.00    +0.094 C 
ATOM     16  C   UNL     1      15.384   5.424  -0.254  0.00  0.00    +0.130 C 
ATOM     17  C   UNL     1      14.230   5.970   1.911  0.00  0.00    +0.047 A 
ATOM     22  C   UNL     1      13.850   6.889   2.827  0.00  0.00    +0.054 A 
ATOM     23  C   UNL     1      15.136   7.743   0.458  0.00  0.00    +0.252 A 
ATOM     24  C   UNL     1      14.102   8.292   2.598  0.00  0.00    +0.030 A 
ATOM     25  C   UNL     1      14.700   8.721   1.484  0.00  0.00    +0.072 A 
ENDROOT
BRANCH   4  15
ATOM      2  O   UNL     1       8.311   7.846  -1.671  0.00  0.00    -0.276 OA
ATOM      6  N   UNL     1      10.113   6.379  -1.677  0.00  0.00    -0.302 N 
ATOM     15  C   UNL     1      11.214   3.953  -0.480  0.00  0.00    +0.060 C 
ATOM     18  C   UNL     1      11.175   4.173  -2.000  0.00  0.00    +0.038 C 
ATOM     19  C   UNL     1      10.101   4.769   0.194  0.00  0.00    +0.038 C 
ATOM     20  C   UNL     1      11.182   5.655  -2.379  0.00  0.00    +0.109 C 
ATOM     21  C   UNL     1      10.126   6.241  -0.218  0.00  0.00    +0.109 C 
ATOM     26  C   UNL     1       9.166   7.203  -2.285  0.00  0.00    +0.212 C 
ATOM     27  C   UNL     1       9.212   7.291  -3.790  0.00  0.00    +0.109 C 
ENDBRANCH   4  15
BRANCH  22   7
ATOM      3  O   UNL     1      11.023   6.867   3.218  0.00  0.00    -0.268 OA
ATOM      7  N   UNL     1      13.198   6.579   3.990  0.00  0.00    -0.279 N 
ATOM     28  C   UNL     1      11.818   6.587   4.113  0.00  0.00    +0.268 C 
ATOM     33  H   UNL     1      13.727   6.141   4.737  0.00  0.00    +0.155 HD
BRANCH  28  29
ATOM      8  N   UNL     1      10.208   5.426   5.429  0.00  0.00    -0.247 NA
ATOM      9  N   UNL     1      11.444   6.291   7.793  0.00  0.00    -0.259 NA
ATOM     29  C   UNL     1      11.292   6.200   5.448  0.00  0.00    +0.144 A 
ATOM     30  C   UNL     1      11.913   6.633   6.577  0.00  0.00    +0.143 A 
ATOM     31  C   UNL     1       9.741   5.083   6.646  0.00  0.00    +0.131 A 
ATOM     32  C   UNL     1      10.348   5.508   7.807  0.00  0.00    +0.130 A 
ENDBRANCH  28  29
ENDBRANCH  22   7
TORSDOF 3
ENDMDL
MODEL 5
REMARK VINA RESULT:      -6.2      2.565      5.201
REMARK  Name = 9424622
REMARK  4 active torsions:
REMARK  status: ('A' for Active; 'I' for Inactive)
REMARK    1  A    between atoms: N_4  and  C_15
REMARK    2  A    between atoms: N_7  and  C_22
REMARK    3  A    between atoms: C_26  and  C_27
REMARK    4  A    between atoms: C_28  and  C_29
REMARK                            x       y       z     vdW  Elec       q    Type
REMARK                         _______ _______ _______ _____ _____    ______ ____
ROOT
ATOM      1  O   UNL     1       7.123   9.115   4.209  0.00  0.00    -0.268 OA
ATOM      4  N   UNL     1      11.320   7.855   6.655  0.00  0.00    -0.298 NA
ATOM      5  N   UNL     1       8.753   7.534   4.783  0.00  0.00    -0.310 N 
ATOM     10  C   UNL     1       9.125   6.773   7.203  0.00  0.00    +0.024 C 
ATOM     11  C   UNL     1      10.511   5.849   5.410  0.00  0.00    +0.052 C 
ATOM     12  C   UNL     1       9.582   5.473   6.562  0.00  0.00    +0.017 C 
ATOM     13  C   UNL     1      10.341   7.573   7.713  0.00  0.00    +0.090 C 
ATOM     14  C   UNL     1      11.728   6.625   5.961  0.00  0.00    +0.094 C 
ATOM     16  C   UNL     1       8.293   7.550   6.178  0.00  0.00    +0.130 C 
ATOM     17  C   UNL     1       9.785   6.679   4.353  0.00  0.00    +0.047 A 
ATOM     22  C   UNL     1      10.117   6.638   3.043  0.00  0.00    +0.054 A 
ATOM     23  C   UNL     1       8.043   8.360   3.893  0.00  0.00    +0.252 A 
ATOM     24  C   UNL     1       9.418   7.463   2.089  0.00  0.00    +0.030 A 
ATOM     25  C   UNL     1       8.440   8.291   2.465  0.00  0.00    +0.072 A 
ENDROOT
BRANCH   4  15
ATOM      2  O   UNL     1      14.174  12.206   4.210  0.00  0.00    -0.276 OA
ATOM      6  N   UNL     1      12.745  10.986   5.577  0.00  0.00    -0.302 N 
ATOM     15  C   UNL     1      12.482   8.565   7.191  0.00  0.00    +0.060 C 
ATOM     18  C   UNL     1      12.069   9.949   7.714  0.00  0.00    +0.038 C 
ATOM     19  C   UNL     1      13.561   8.717   6.108  0.00  0.00    +0.038 C 
ATOM     20  C   UNL     1      11.683  10.911   6.589  0.00  0.00    +0.109 C 
ATOM     21  C   UNL     1      13.151   9.697   5.009  0.00  0.00    +0.109 C 
ATOM     26  C   UNL     1      13.322  12.163   5.101  0.00  0.00    +0.212 C 
ATOM     27  C   UNL     1      12.858  13.449   5.737  0.00  0.00    +0.109 C 
ENDBRANCH   4  15
BRANCH  22   7
ATOM      3  O   UNL     1      12.755   7.509   2.388  0.00  0.00    -0.268 OA
ATOM      7  N   UNL     1      11.124   5.859   2.539  0.00  0.00    -0.279 N 
ATOM     28  C   UNL     1      12.386   6.346   2.242  0.00  0.00    +0.268 C 
ATOM     33  H   UNL     1      11.010   4.850   2.561  0.00  0.00    +0.155 HD
BRANCH  28  29
ATOM      8  N   UNL     1      14.467   5.849   1.196  0.00  0.00    -0.247 NA
ATOM      9  N   UNL     1      13.938   3.098   1.339  0.00  0.00    -0.259 NA
ATOM     29  C   UNL     1      13.353   5.344   1.723  0.00  0.00    +0.144 A 
ATOM     30  C   UNL     1      13.070   4.016   1.807  0.00  0.00    +0.143 A 
ATOM     31  C   UNL     1      15.335   4.929   0.729  0.00  0.00    +0.131 A 
ATOM     32  C   UNL     1      15.075   3.579   0.799  0.00  0.00    +0.130 A 
ENDBRANCH  28  29
ENDBRANCH  22   7
TORSDOF 3
ENDMDL
MODEL 6
REMARK VINA RESULT:      -6.2      3.598      5.927
REMARK  Name = 9424622
REMARK  4 active torsions:
REMARK  status: ('A' for Active; 'I' for Inactive)
REMARK    1  A    between atoms: N_4  and  C_15
REMARK    2  A    between atoms: N_7  and  C_22
REMARK    3  A    between atoms: C_26  and  C_27
REMARK    4  A    between atoms: C_28  and  C_29
REMARK                            x       y       z     vdW  Elec       q    Type
REMARK                         _______ _______ _______ _____ _____    ______ ____
ROOT
ATOM      1  O   UNL     1      11.260   5.628   8.510  0.00  0.00    -0.268 OA
ATOM      4  N   UNL     1      11.902  10.174   6.483  0.00  0.00    -0.298 NA
ATOM      5  N   UNL     1      11.401   7.024   6.634  0.00  0.00    -0.310 N 
ATOM     10  C   UNL     1      13.536   8.321   6.055  0.00  0.00    +0.024 C 
ATOM     11  C   UNL     1      11.557   8.537   4.631  0.00  0.00    +0.052 C 
ATOM     12  C   UNL     1      13.045   8.190   4.624  0.00  0.00    +0.017 C 
ATOM     13  C   UNL     1      13.307   9.758   6.568  0.00  0.00    +0.090 C 
ATOM     14  C   UNL     1      11.369   9.989   5.125  0.00  0.00    +0.094 C 
ATOM     16  C   UNL     1      12.824   7.267   6.909  0.00  0.00    +0.130 C 
ATOM     17  C   UNL     1      10.761   7.570   5.506  0.00  0.00    +0.047 A 
ATOM     22  C   UNL     1       9.473   7.250   5.248  0.00  0.00    +0.054 A 
ATOM     23  C   UNL     1      10.746   6.147   7.518  0.00  0.00    +0.252 A 
ATOM     24  C   UNL     1       8.757   6.353   6.122  0.00  0.00    +0.030 A 
ATOM     25  C   UNL     1       9.333   5.825   7.204  0.00  0.00    +0.072 A 
ENDROOT
BRANCH   4  15
ATOM      2  O   UNL     1       8.012  12.203  10.199  0.00  0.00    -0.276 OA
ATOM      6  N   UNL     1      10.002  11.440   9.273  0.00  0.00    -0.302 N 
ATOM     15  C   UNL     1      11.737  11.560   6.926  0.00  0.00    +0.060 C 
ATOM     18  C   UNL     1      12.276  11.732   8.354  0.00  0.00    +0.038 C 
ATOM     19  C   UNL     1      10.257  11.965   6.874  0.00  0.00    +0.038 C 
ATOM     20  C   UNL     1      11.407  11.029   9.398  0.00  0.00    +0.109 C 
ATOM     21  C   UNL     1       9.420  11.257   7.940  0.00  0.00    +0.109 C 
ATOM     26  C   UNL     1       9.206  11.916  10.314  0.00  0.00    +0.212 C 
ATOM     27  C   UNL     1       9.876  12.082  11.655  0.00  0.00    +0.109 C 
ENDBRANCH   4  15
BRANCH  22   7
ATOM      3  O   UNL     1       7.732   9.511   5.313  0.00  0.00    -0.268 OA
ATOM      7  N   UNL     1       8.762   7.754   4.192  0.00  0.00    -0.279 N 
ATOM     28  C   UNL     1       7.932   8.858   4.291  0.00  0.00    +0.268 C 
ATOM     33  H   UNL     1       8.993   7.430   3.257  0.00  0.00    +0.155 HD
BRANCH  28  29
ATOM      8  N   UNL     1       6.037   9.774   3.177  0.00  0.00    -0.247 NA
ATOM      9  N   UNL     1       7.299   9.488   0.689  0.00  0.00    -0.259 NA
ATOM     29  C   UNL     1       7.261   9.270   3.031  0.00  0.00    +0.144 A 
ATOM     30  C   UNL     1       7.898   9.121   1.839  0.00  0.00    +0.143 A 
ATOM     31  C   UNL     1       5.439  10.142   2.027  0.00  0.00    +0.131 A 
ATOM     32  C   UNL     1       6.058  10.002   0.805  0.00  0.00    +0.130 A 
ENDBRANCH  28  29
ENDBRANCH  22   7
TORSDOF 3
ENDMDL
MODEL 7
REMARK VINA RESULT:      -6.1     23.440     27.882
REMARK  Name = 9424622
REMARK  4 active torsions:
REMARK  status: ('A' for Active; 'I' for Inactive)
REMARK    1  A    between atoms: N_4  and  C_15
REMARK    2  A    between atoms: N_7  and  C_22
REMARK    3  A    between atoms: C_26  and  C_27
REMARK    4  A    between atoms: C_28  and  C_29
REMARK                            x       y       z     vdW  Elec       q    Type
REMARK                         _______ _______ _______ _____ _____    ______ ____
ROOT
ATOM      1  O   UNL     1      -1.210 -11.724  14.702  0.00  0.00    -0.268 OA
ATOM      4  N   UNL     1      -5.846 -12.729  13.062  0.00  0.00    -0.298 NA
ATOM      5  N   UNL     1      -3.355 -12.596  15.056  0.00  0.00    -0.310 N 
ATOM     10  C   UNL     1      -4.268 -14.570  13.698  0.00  0.00    +0.024 C 
ATOM     11  C   UNL     1      -5.662 -13.529  15.419  0.00  0.00    +0.052 C 
ATOM     12  C   UNL     1      -5.077 -14.860  14.951  0.00  0.00    +0.017 C 
ATOM     13  C   UNL     1      -5.170 -13.952  12.611  0.00  0.00    +0.090 C 
ATOM     14  C   UNL     1      -6.579 -12.952  14.316  0.00  0.00    +0.094 C 
ATOM     16  C   UNL     1      -3.094 -13.664  14.081  0.00  0.00    +0.130 C 
ATOM     17  C   UNL     1      -4.564 -12.528  15.774  0.00  0.00    +0.047 A 
ATOM     22  C   UNL     1      -4.726 -11.578  16.722  0.00  0.00    +0.054 A 
ATOM     23  C   UNL     1      -2.294 -11.703  15.288  0.00  0.00    +0.252 A 
ATOM     24  C   UNL     1      -3.666 -10.639  17.000  0.00  0.00    +0.030 A 
ATOM     25  C   UNL     1      -2.511 -10.672  16.332  0.00  0.00    +0.072 A 
ENDROOT
BRANCH   4  15
ATOM      2  O   UNL     1      -5.357  -7.736  10.254  0.00  0.00    -0.276 OA
ATOM      6  N   UNL     1      -5.281  -9.998  10.777  0.00  0.00    -0.302 N 
ATOM     15  C   UNL     1      -6.733 -12.205  12.022  0.00  0.00    +0.060 C 
ATOM     18  C   UNL     1      -6.073 -12.333  10.641  0.00  0.00    +0.038 C 
ATOM     19  C   UNL     1      -7.076 -10.734  12.303  0.00  0.00    +0.038 C 
ATOM     20  C   UNL     1      -4.890 -11.380  10.465  0.00  0.00    +0.109 C 
ATOM     21  C   UNL     1      -5.877  -9.807  12.102  0.00  0.00    +0.109 C 
ATOM     26  C   UNL     1      -5.071  -8.896   9.948  0.00  0.00    +0.212 C 
ATOM     27  C   UNL     1      -4.457  -9.172   8.599  0.00  0.00    +0.109 C 
ENDBRANCH   4  15
BRANCH  22   7
ATOM      3  O   UNL     1      -6.771  -9.646  16.242  0.00  0.00    -0.268 OA
ATOM      7  N   UNL     1      -5.875 -11.419  17.450  0.00  0.00    -0.279 N 
ATOM     28  C   UNL     1      -6.830 -10.458  17.162  0.00  0.00    +0.268 C 
ATOM     33  H   UNL     1      -6.135 -12.150  18.106  0.00  0.00    +0.155 HD
BRANCH  28  29
ATOM      8  N   UNL     1      -9.096  -9.841  17.557  0.00  0.00    -0.247 NA
ATOM      9  N   UNL     1      -9.035 -11.047  20.088  0.00  0.00    -0.259 NA
ATOM     29  C   UNL     1      -8.021 -10.453  18.051  0.00  0.00    +0.144 A 
ATOM     30  C   UNL     1      -7.963 -11.047  19.273  0.00  0.00    +0.143 A 
ATOM     31  C   UNL     1     -10.169  -9.843  18.373  0.00  0.00    +0.131 A 
ATOM     32  C   UNL     1     -10.139 -10.435  19.616  0.00  0.00    +0.130 A 
ENDBRANCH  28  29
ENDBRANCH  22   7
TORSDOF 3
ENDMDL
MODEL 8
REMARK VINA RESULT:      -6.0     23.746     27.746
REMARK  Name = 9424622
REMARK  4 active torsions:
REMARK  status: ('A' for Active; 'I' for Inactive)
REMARK    1  A    between atoms: N_4  and  C_15
REMARK    2  A    between atoms: N_7  and  C_22
REMARK    3  A    between atoms: C_26  and  C_27
REMARK    4  A    between atoms: C_28  and  C_29
REMARK                            x       y       z     vdW  Elec       q    Type
REMARK                         _______ _______ _______ _____ _____    ______ ____
ROOT
ATOM      1  O   UNL     1      -5.736 -15.480  17.089  0.00  0.00    -0.268 OA
ATOM      4  N   UNL     1      -6.358 -10.501  17.078  0.00  0.00    -0.298 NA
ATOM      5  N   UNL     1      -4.974 -13.330  16.555  0.00  0.00    -0.310 N 
ATOM     10  C   UNL     1      -4.483 -11.570  18.354  0.00  0.00    +0.024 C 
ATOM     11  C   UNL     1      -4.171 -11.015  15.990  0.00  0.00    +0.052 C 
ATOM     12  C   UNL     1      -3.472 -11.047  17.348  0.00  0.00    +0.017 C 
ATOM     13  C   UNL     1      -5.722 -10.652  18.393  0.00  0.00    +0.090 C 
ATOM     14  C   UNL     1      -5.390 -10.067  16.060  0.00  0.00    +0.094 C 
ATOM     16  C   UNL     1      -4.829 -13.016  17.983  0.00  0.00    +0.130 C 
ATOM     17  C   UNL     1      -4.609 -12.412  15.553  0.00  0.00    +0.047 A 
ATOM     22  C   UNL     1      -4.680 -12.776  14.253  0.00  0.00    +0.054 A 
ATOM     23  C   UNL     1      -5.418 -14.631  16.255  0.00  0.00    +0.252 A 
ATOM     24  C   UNL     1      -5.126 -14.100  13.892  0.00  0.00    +0.030 A 
ATOM     25  C   UNL     1      -5.488 -14.992  14.818  0.00  0.00    +0.072 A 
ENDROOT
BRANCH   4  15
ATOM      2  O   UNL     1     -11.702 -11.408  15.161  0.00  0.00    -0.276 OA
ATOM      6  N   UNL     1      -9.858 -11.189  16.558  0.00  0.00    -0.302 N 
ATOM     15  C   UNL     1      -7.494  -9.579  17.147  0.00  0.00    +0.060 C 
ATOM     18  C   UNL     1      -8.477 -10.023  18.241  0.00  0.00    +0.038 C 
ATOM     19  C   UNL     1      -8.214  -9.516  15.792  0.00  0.00    +0.038 C 
ATOM     20  C   UNL     1      -9.219 -11.310  17.876  0.00  0.00    +0.109 C 
ATOM     21  C   UNL     1      -8.958 -10.810  15.466  0.00  0.00    +0.109 C 
ATOM     26  C   UNL     1     -11.199 -11.462  16.286  0.00  0.00    +0.212 C 
ATOM     27  C   UNL     1     -12.064 -11.841  17.462  0.00  0.00    +0.109 C 
ENDBRANCH   4  15
BRANCH  22   7
ATOM      3  O   UNL     1      -6.525 -11.186  12.766  0.00  0.00    -0.268 OA
ATOM      7  N   UNL     1      -4.372 -11.943  13.212  0.00  0.00    -0.279 N 
ATOM     28  C   UNL     1      -5.319 -11.195  12.531  0.00  0.00    +0.268 C 
ATOM     33  H   UNL     1      -3.396 -11.711  13.053  0.00  0.00    +0.155 HD
BRANCH  28  29
ATOM      8  N   UNL     1      -5.714  -9.741  10.687  0.00  0.00    -0.247 NA
ATOM      9  N   UNL     1      -2.957  -9.407  10.295  0.00  0.00    -0.259 NA
ATOM     29  C   UNL     1      -4.791 -10.331  11.444  0.00  0.00    +0.144 A 
ATOM     30  C   UNL     1      -3.449 -10.187  11.278  0.00  0.00    +0.143 A 
ATOM     31  C   UNL     1      -5.222  -8.960   9.705  0.00  0.00    +0.131 A 
ATOM     32  C   UNL     1      -3.868  -8.797   9.512  0.00  0.00    +0.130 A 
ENDBRANCH  28  29
ENDBRANCH  22   7
TORSDOF 3
ENDMDL
MODEL 9
REMARK VINA RESULT:      -5.8      3.689      8.116
REMARK  Name = 9424622
REMARK  4 active torsions:
REMARK  status: ('A' for Active; 'I' for Inactive)
REMARK    1  A    between atoms: N_4  and  C_15
REMARK    2  A    between atoms: N_7  and  C_22
REMARK    3  A    between atoms: C_26  and  C_27
REMARK    4  A    between atoms: C_28  and  C_29
REMARK                            x       y       z     vdW  Elec       q    Type
REMARK                         _______ _______ _______ _____ _____    ______ ____
ROOT
ATOM      1  O   UNL     1      13.819   7.454   5.882  0.00  0.00    -0.268 OA
ATOM      4  N   UNL     1       8.838   7.620   5.286  0.00  0.00    -0.298 NA
ATOM      5  N   UNL     1      11.662   7.629   6.779  0.00  0.00    -0.310 N 
ATOM     10  C   UNL     1       9.932   5.750   6.549  0.00  0.00    +0.024 C 
ATOM     11  C   UNL     1       9.339   7.814   7.724  0.00  0.00    +0.052 C 
ATOM     12  C   UNL     1       9.393   6.294   7.862  0.00  0.00    +0.017 C 
ATOM     13  C   UNL     1       9.012   6.165   5.383  0.00  0.00    +0.090 C 
ATOM     14  C   UNL     1       8.390   8.192   6.564  0.00  0.00    +0.094 C 
ATOM     16  C   UNL     1      11.370   6.246   6.375  0.00  0.00    +0.130 C 
ATOM     17  C   UNL     1      10.727   8.405   7.490  0.00  0.00    +0.047 A 
ATOM     22  C   UNL     1      11.071   9.642   7.914  0.00  0.00    +0.054 A 
ATOM     23  C   UNL     1      12.957   8.094   6.486  0.00  0.00    +0.252 A 
ATOM     24  C   UNL     1      12.388  10.165   7.643  0.00  0.00    +0.030 A 
ATOM     25  C   UNL     1      13.294   9.457   6.964  0.00  0.00    +0.072 A 
ENDROOT
BRANCH   4  15
ATOM      2  O   UNL     1       9.055  12.247   1.881  0.00  0.00    -0.276 OA
ATOM      6  N   UNL     1       9.247  10.072   2.676  0.00  0.00    -0.302 N 
ATOM     15  C   UNL     1       7.917   7.969   4.204  0.00  0.00    +0.060 C 
ATOM     18  C   UNL     1       8.569   7.703   2.840  0.00  0.00    +0.038 C 
ATOM     19  C   UNL     1       7.504   9.445   4.308  0.00  0.00    +0.038 C 
ATOM     20  C   UNL     1       9.703   8.683   2.530  0.00  0.00    +0.109 C 
ATOM     21  C   UNL     1       8.654  10.396   3.977  0.00  0.00    +0.109 C 
ATOM     26  C   UNL     1       9.395  11.073   1.716  0.00  0.00    +0.212 C 
ATOM     27  C   UNL     1      10.009  10.663   0.401  0.00  0.00    +0.109 C 
ENDBRANCH   4  15
BRANCH  22   7
ATOM      3  O   UNL     1       9.722  11.908   6.823  0.00  0.00    -0.268 OA
ATOM      7  N   UNL     1      10.221  10.478   8.587  0.00  0.00    -0.279 N 
ATOM     28  C   UNL     1       9.596  11.564   7.996  0.00  0.00    +0.268 C 
ATOM     33  H   UNL     1       9.881  10.187   9.499  0.00  0.00    +0.155 HD
BRANCH  28  29
ATOM      8  N   UNL     1       7.939  13.253   8.266  0.00  0.00    -0.247 NA
ATOM      9  N   UNL     1       7.856  12.798  11.033  0.00  0.00    -0.259 NA
ATOM     29  C   UNL     1       8.691  12.341   8.882  0.00  0.00    +0.144 A 
ATOM     30  C   UNL     1       8.671  12.098  10.219  0.00  0.00    +0.143 A 
ATOM     31  C   UNL     1       7.123  13.951   9.081  0.00  0.00    +0.131 A 
ATOM     32  C   UNL     1       7.083  13.729  10.439  0.00  0.00    +0.130 A 
ENDBRANCH  28  29
ENDBRANCH  22   7
TORSDOF 3
ENDMDL
MODEL 10
REMARK VINA RESULT:      -5.8     24.968     29.332
REMARK  Name = 9424622
REMARK  4 active torsions:
REMARK  status: ('A' for Active; 'I' for Inactive)
REMARK    1  A    between atoms: N_4  and  C_15
REMARK    2  A    between atoms: N_7  and  C_22
REMARK    3  A    between atoms: C_26  and  C_27
REMARK    4  A    between atoms: C_28  and  C_29
REMARK                            x       y       z     vdW  Elec       q    Type
REMARK                         _______ _______ _______ _____ _____    ______ ____
ROOT
ATOM      1  O   UNL     1     -10.028 -15.172  16.677  0.00  0.00    -0.268 OA
ATOM      4  N   UNL     1      -8.758 -10.514  18.044  0.00  0.00    -0.298 NA
ATOM      5  N   UNL     1      -8.471 -13.656  17.550  0.00  0.00    -0.310 N 
ATOM     10  C   UNL     1      -8.893 -12.367  19.727  0.00  0.00    +0.024 C 
ATOM     11  C   UNL     1      -6.812 -12.014  18.487  0.00  0.00    +0.052 C 
ATOM     12  C   UNL     1      -7.379 -12.391  19.854  0.00  0.00    +0.017 C 
ATOM     13  C   UNL     1      -9.371 -10.964  19.299  0.00  0.00    +0.090 C 
ATOM     14  C   UNL     1      -7.291 -10.595  18.104  0.00  0.00    +0.094 C 
ATOM     16  C   UNL     1      -9.311 -13.462  18.740  0.00  0.00    +0.130 C 
ATOM     17  C   UNL     1      -7.222 -13.021  17.414  0.00  0.00    +0.047 A 
ATOM     22  C   UNL     1      -6.446 -13.295  16.341  0.00  0.00    +0.054 A 
ATOM     23  C   UNL     1      -8.952 -14.577  16.602  0.00  0.00    +0.252 A 
ATOM     24  C   UNL     1      -6.892 -14.235  15.342  0.00  0.00    +0.030 A 
ATOM     25  C   UNL     1      -8.075 -14.847  15.437  0.00  0.00    +0.072 A 
ENDROOT
BRANCH   4  15
ATOM      2  O   UNL     1     -11.275  -8.786  13.172  0.00  0.00    -0.276 OA
ATOM      6  N   UNL     1     -10.931  -9.447  15.373  0.00  0.00    -0.302 N 
ATOM     15  C   UNL     1      -9.193  -9.158  17.703  0.00  0.00    +0.060 C 
ATOM     18  C   UNL     1     -10.722  -9.048  17.801  0.00  0.00    +0.038 C 
ATOM     19  C   UNL     1      -8.733  -8.789  16.285  0.00  0.00    +0.038 C 
ATOM     20  C   UNL     1     -11.439  -9.828  16.697  0.00  0.00    +0.109 C 
ATOM     21  C   UNL     1      -9.480  -9.574  15.206  0.00  0.00    +0.109 C 
ATOM     26  C   UNL     1     -11.718  -9.048  14.293  0.00  0.00    +0.212 C 
ATOM     27  C   UNL     1     -13.201  -8.935  14.542  0.00  0.00    +0.109 C 
ENDBRANCH   4  15
BRANCH  22   7
ATOM      3  O   UNL     1      -5.976 -10.960  14.769  0.00  0.00    -0.268 OA
ATOM      7  N   UNL     1      -5.232 -12.706  16.112  0.00  0.00    -0.279 N 
ATOM     28  C   UNL     1      -5.072 -11.570  15.336  0.00  0.00    +0.268 C 
ATOM     33  H   UNL     1      -4.442 -12.993  16.682  0.00  0.00    +0.155 HD
BRANCH  28  29
ATOM      8  N   UNL     1      -2.990 -11.032  16.359  0.00  0.00    -0.247 NA
ATOM      9  N   UNL     1      -1.934 -10.211  13.894  0.00  0.00    -0.259 NA
ATOM     29  C   UNL     1      -3.680 -11.064  15.220  0.00  0.00    +0.144 A 
ATOM     30  C   UNL     1      -3.194 -10.673  14.012  0.00  0.00    +0.143 A 
ATOM     31  C   UNL     1      -1.729 -10.571  16.241  0.00  0.00    +0.131 A 
ATOM     32  C   UNL     1      -1.211 -10.167  15.031  0.00  0.00    +0.130 A 
ENDBRANCH  28  29
ENDBRANCH  22   7
TORSDOF 3
ENDMDL
