MODEL 1
REMARK VINA RESULT:      -7.1      0.000      0.000
REMARK  Name = 75536547
REMARK  7 active torsions:
REMARK  status: ('A' for Active; 'I' for Inactive)
REMARK    1  A    between atoms: O_2  and  C_12
REMARK    2  A    between atoms: N_4  and  C_15
REMARK    3  A    between atoms: N_5  and  C_13
REMARK    4  A    between atoms: N_5  and  C_17
REMARK    5  A    between atoms: C_8  and  C_16
REMARK    6  A    between atoms: C_11  and  C_15
REMARK    7  A    between atoms: C_17  and  C_18
REMARK                            x       y       z     vdW  Elec       q    Type
REMARK                         _______ _______ _______ _____ _____    ______ ____
ROOT
ATOM      1  O   UNL     1      -4.286   3.637  26.139  0.00  0.00    -0.371 OA
ATOM     11  C   UNL     1      -4.503   2.962  24.890  0.00  0.00    +0.165 C 
ATOM     12  C   UNL     1      -3.119   2.670  24.324  0.00  0.00    +0.164 C 
ATOM     13  C   UNL     1      -2.351   3.895  24.786  0.00  0.00    +0.111 C 
ATOM     14  C   UNL     1      -2.925   4.102  26.179  0.00  0.00    +0.181 C 
ENDROOT
BRANCH  12   2
ATOM      2  O   UNL     1      -3.142   2.540  22.916  0.00  0.00    -0.388 OA
ATOM     23  H   UNL     1      -4.068   2.457  22.631  0.00  0.00    +0.210 HD
ENDBRANCH  12   2
BRANCH  13   5
ATOM      5  N   UNL     1      -0.909   3.711  24.791  0.00  0.00    -0.304 NA
ATOM     22  H   UNL     1      -0.462   4.592  25.047  0.00  0.00    +0.123 HD
BRANCH   5  17
ATOM     17  C   UNL     1      -0.514   2.684  25.748  0.00  0.00    +0.136 C 
BRANCH  17  18
ATOM      6  N   UNL     1      -0.613   0.164  25.717  0.00  0.00    -0.347 N 
ATOM      7  N   UNL     1       0.111  -0.387  23.692  0.00  0.00    -0.244 NA
ATOM     18  C   UNL     1      -0.329   1.343  25.088  0.00  0.00    +0.049 A 
ATOM     19  C   UNL     1       0.116   0.978  23.839  0.00  0.00    +0.134 A 
ATOM     20  C   UNL     1      -0.333  -0.847  24.840  0.00  0.00    +0.196 A 
ATOM     24  H   UNL     1      -0.966   0.055  26.659  0.00  0.00    +0.167 HD
ENDBRANCH  17  18
ENDBRANCH   5  17
ENDBRANCH  13   5
BRANCH  11  15
ATOM     15  C   UNL     1      -5.333   1.711  25.119  0.00  0.00    +0.138 C 
BRANCH  15   4
ATOM      3  O   UNL     1      -3.783  -0.530  26.134  0.00  0.00    -0.276 OA
ATOM      4  N   UNL     1      -4.815   0.598  24.377  0.00  0.00    -0.313 N 
ATOM     16  C   UNL     1      -4.082  -0.431  24.950  0.00  0.00    +0.216 C 
ATOM     21  H   UNL     1      -5.002   0.571  23.378  0.00  0.00    +0.149 HD
BRANCH  16   8
ATOM      8  C   UNL     1      -3.645  -1.486  23.989  0.00  0.00    +0.075 C 
ATOM      9  C   UNL     1      -4.561  -2.635  23.729  0.00  0.00    +0.013 C 
ATOM     10  C   UNL     1      -3.304  -2.837  24.520  0.00  0.00    +0.013 C 
ENDBRANCH  16   8
ENDBRANCH  15   4
ENDBRANCH  11  15
TORSDOF 7
ENDMDL
MODEL 2
REMARK VINA RESULT:      -6.2     15.845     18.496
REMARK  Name = 75536547
REMARK  7 active torsions:
REMARK  status: ('A' for Active; 'I' for Inactive)
REMARK    1  A    between atoms: O_2  and  C_12
REMARK    2  A    between atoms: N_4  and  C_15
REMARK    3  A    between atoms: N_5  and  C_13
REMARK    4  A    between atoms: N_5  and  C_17
REMARK    5  A    between atoms: C_8  and  C_16
REMARK    6  A    between atoms: C_11  and  C_15
REMARK    7  A    between atoms: C_17  and  C_18
REMARK                            x       y       z     vdW  Elec       q    Type
REMARK                         _______ _______ _______ _____ _____    ______ ____
ROOT
ATOM      1  O   UNL     1      12.998   6.783  20.761  0.00  0.00    -0.371 OA
ATOM     11  C   UNL     1      12.495   7.256  19.501  0.00  0.00    +0.165 C 
ATOM     12  C   UNL     1      11.473   8.336  19.836  0.00  0.00    +0.164 C 
ATOM     13  C   UNL     1      10.873   7.782  21.115  0.00  0.00    +0.111 C 
ATOM     14  C   UNL     1      12.103   7.212  21.802  0.00  0.00    +0.181 C 
ENDROOT
BRANCH  12   2
ATOM      2  O   UNL     1      10.516   8.492  18.807  0.00  0.00    -0.388 OA
ATOM     23  H   UNL     1      10.975   8.444  17.951  0.00  0.00    +0.210 HD
ENDBRANCH  12   2
BRANCH  13   5
ATOM      5  N   UNL     1      10.190   8.783  21.918  0.00  0.00    -0.304 NA
ATOM     22  H   UNL     1       9.412   8.341  22.409  0.00  0.00    +0.123 HD
BRANCH   5  17
ATOM     17  C   UNL     1      11.092   9.376  22.897  0.00  0.00    +0.136 C 
BRANCH  17  18
ATOM      6  N   UNL     1      10.432  11.514  24.061  0.00  0.00    -0.347 N 
ATOM      7  N   UNL     1      10.912  13.108  22.592  0.00  0.00    -0.244 NA
ATOM     18  C   UNL     1      10.940  10.872  22.967  0.00  0.00    +0.049 A 
ATOM     19  C   UNL     1      11.230  11.877  22.073  0.00  0.00    +0.134 A 
ATOM     20  C   UNL     1      10.435  12.854  23.789  0.00  0.00    +0.196 A 
ATOM     24  H   UNL     1      10.113  11.080  24.918  0.00  0.00    +0.167 HD
ENDBRANCH  17  18
ENDBRANCH   5  17
ENDBRANCH  13   5
BRANCH  11  15
ATOM     15  C   UNL     1      13.644   7.762  18.646  0.00  0.00    +0.138 C 
BRANCH  15   4
ATOM      3  O   UNL     1      15.977   6.030  18.554  0.00  0.00    -0.276 OA
ATOM      4  N   UNL     1      14.851   7.880  19.412  0.00  0.00    -0.313 N 
ATOM     16  C   UNL     1      15.918   7.001  19.300  0.00  0.00    +0.216 C 
ATOM     21  H   UNL     1      14.918   8.653  20.068  0.00  0.00    +0.149 HD
BRANCH  16   8
ATOM      8  C   UNL     1      17.073   7.316  20.192  0.00  0.00    +0.075 C 
ATOM      9  C   UNL     1      18.223   6.367  20.228  0.00  0.00    +0.013 C 
ATOM     10  C   UNL     1      17.293   6.467  21.399  0.00  0.00    +0.013 C 
ENDBRANCH  16   8
ENDBRANCH  15   4
ENDBRANCH  11  15
TORSDOF 7
ENDMDL
MODEL 3
REMARK VINA RESULT:      -6.2      1.727      4.025
REMARK  Name = 75536547
REMARK  7 active torsions:
REMARK  status: ('A' for Active; 'I' for Inactive)
REMARK    1  A    between atoms: O_2  and  C_12
REMARK    2  A    between atoms: N_4  and  C_15
REMARK    3  A    between atoms: N_5  and  C_13
REMARK    4  A    between atoms: N_5  and  C_17
REMARK    5  A    between atoms: C_8  and  C_16
REMARK    6  A    between atoms: C_11  and  C_15
REMARK    7  A    between atoms: C_17  and  C_18
REMARK                            x       y       z     vdW  Elec       q    Type
REMARK                         _______ _______ _______ _____ _____    ______ ____
ROOT
ATOM      1  O   UNL     1      -0.149   3.672  25.737  0.00  0.00    -0.371 OA
ATOM     11  C   UNL     1      -0.941   3.541  24.546  0.00  0.00    +0.165 C 
ATOM     12  C   UNL     1      -1.487   2.119  24.558  0.00  0.00    +0.164 C 
ATOM     13  C   UNL     1      -0.330   1.368  25.190  0.00  0.00    +0.111 C 
ATOM     14  C   UNL     1       0.127   2.357  26.251  0.00  0.00    +0.181 C 
ENDROOT
BRANCH  12   2
ATOM      2  O   UNL     1      -1.790   1.659  23.256  0.00  0.00    -0.388 OA
ATOM     23  H   UNL     1      -1.988   2.430  22.697  0.00  0.00    +0.210 HD
ENDBRANCH  12   2
BRANCH  13   5
ATOM      5  N   UNL     1      -0.707   0.078  25.745  0.00  0.00    -0.304 NA
ATOM     22  H   UNL     1      -1.656   0.140  26.116  0.00  0.00    +0.123 HD
BRANCH   5  17
ATOM     17  C   UNL     1      -0.664  -0.964  24.726  0.00  0.00    +0.136 C 
BRANCH  17  18
ATOM      6  N   UNL     1      -3.133  -0.846  24.228  0.00  0.00    -0.347 N 
ATOM      7  N   UNL     1      -3.797  -2.965  24.244  0.00  0.00    -0.244 NA
ATOM     18  C   UNL     1      -2.017  -1.585  24.501  0.00  0.00    +0.049 A 
ATOM     19  C   UNL     1      -2.451  -2.890  24.505  0.00  0.00    +0.134 A 
ATOM     20  C   UNL     1      -4.176  -1.718  24.081  0.00  0.00    +0.196 A 
ATOM     24  H   UNL     1      -3.182   0.161  24.146  0.00  0.00    +0.167 HD
ENDBRANCH  17  18
ENDBRANCH   5  17
ENDBRANCH  13   5
BRANCH  11  15
ATOM     15  C   UNL     1      -2.029   4.601  24.533  0.00  0.00    +0.138 C 
BRANCH  15   4
ATOM      3  O   UNL     1      -3.782   4.043  26.784  0.00  0.00    -0.276 OA
ATOM      4  N   UNL     1      -3.335   4.008  24.498  0.00  0.00    -0.313 N 
ATOM     16  C   UNL     1      -4.103   3.779  25.630  0.00  0.00    +0.216 C 
ATOM     21  H   UNL     1      -3.709   3.747  23.590  0.00  0.00    +0.149 HD
BRANCH  16   8
ATOM      8  C   UNL     1      -5.430   3.154  25.359  0.00  0.00    +0.075 C 
ATOM      9  C   UNL     1      -5.838   1.970  26.170  0.00  0.00    +0.013 C 
ATOM     10  C   UNL     1      -5.466   1.803  24.728  0.00  0.00    +0.013 C 
ENDBRANCH  16   8
ENDBRANCH  15   4
ENDBRANCH  11  15
TORSDOF 7
ENDMDL
MODEL 4
REMARK VINA RESULT:      -5.9     18.976     21.568
REMARK  Name = 75536547
REMARK  7 active torsions:
REMARK  status: ('A' for Active; 'I' for Inactive)
REMARK    1  A    between atoms: O_2  and  C_12
REMARK    2  A    between atoms: N_4  and  C_15
REMARK    3  A    between atoms: N_5  and  C_13
REMARK    4  A    between atoms: N_5  and  C_17
REMARK    5  A    between atoms: C_8  and  C_16
REMARK    6  A    between atoms: C_11  and  C_15
REMARK    7  A    between atoms: C_17  and  C_18
REMARK                            x       y       z     vdW  Elec       q    Type
REMARK                         _______ _______ _______ _____ _____    ______ ____
ROOT
ATOM      1  O   UNL     1      16.772   6.019  19.041  0.00  0.00    -0.371 OA
ATOM     11  C   UNL     1      17.927   6.297  19.849  0.00  0.00    +0.165 C 
ATOM     12  C   UNL     1      17.406   6.526  21.262  0.00  0.00    +0.164 C 
ATOM     13  C   UNL     1      16.081   7.209  20.977  0.00  0.00    +0.111 C 
ATOM     14  C   UNL     1      15.598   6.433  19.762  0.00  0.00    +0.181 C 
ENDROOT
BRANCH  12   2
ATOM      2  O   UNL     1      18.283   7.334  22.022  0.00  0.00    -0.388 OA
ATOM     23  H   UNL     1      17.944   8.245  22.016  0.00  0.00    +0.210 HD
ENDBRANCH  12   2
BRANCH  13   5
ATOM      5  N   UNL     1      15.148   7.156  22.090  0.00  0.00    -0.304 NA
ATOM     22  H   UNL     1      15.672   7.186  22.965  0.00  0.00    +0.123 HD
BRANCH   5  17
ATOM     17  C   UNL     1      14.223   8.284  22.053  0.00  0.00    +0.136 C 
BRANCH  17  18
ATOM      6  N   UNL     1      11.742   8.482  22.455  0.00  0.00    -0.347 N 
ATOM      7  N   UNL     1      10.867   6.787  21.317  0.00  0.00    -0.244 NA
ATOM     18  C   UNL     1      12.797   7.835  21.877  0.00  0.00    +0.049 A 
ATOM     19  C   UNL     1      12.233   6.793  21.179  0.00  0.00    +0.134 A 
ATOM     20  C   UNL     1      10.604   7.816  22.090  0.00  0.00    +0.196 A 
ATOM     24  H   UNL     1      11.789   9.303  23.044  0.00  0.00    +0.167 HD
ENDBRANCH  17  18
ENDBRANCH   5  17
ENDBRANCH  13   5
BRANCH  11  15
ATOM     15  C   UNL     1      18.911   5.143  19.752  0.00  0.00    +0.138 C 
BRANCH  15   4
ATOM      3  O   UNL     1      21.039   3.473  20.816  0.00  0.00    -0.276 OA
ATOM      4  N   UNL     1      20.231   5.551  20.139  0.00  0.00    -0.313 N 
ATOM     16  C   UNL     1      21.186   4.677  20.639  0.00  0.00    +0.216 C 
ATOM     21  H   UNL     1      20.470   6.533  20.035  0.00  0.00    +0.149 HD
BRANCH  16   8
ATOM      8  C   UNL     1      22.492   5.318  20.974  0.00  0.00    +0.075 C 
ATOM      9  C   UNL     1      23.742   4.709  20.435  0.00  0.00    +0.013 C 
ATOM     10  C   UNL     1      23.421   4.603  21.895  0.00  0.00    +0.013 C 
ENDBRANCH  16   8
ENDBRANCH  15   4
ENDBRANCH  11  15
TORSDOF 7
ENDMDL
MODEL 5
REMARK VINA RESULT:      -5.8     16.038     18.414
REMARK  Name = 75536547
REMARK  7 active torsions:
REMARK  status: ('A' for Active; 'I' for Inactive)
REMARK    1  A    between atoms: O_2  and  C_12
REMARK    2  A    between atoms: N_4  and  C_15
REMARK    3  A    between atoms: N_5  and  C_13
REMARK    4  A    between atoms: N_5  and  C_17
REMARK    5  A    between atoms: C_8  and  C_16
REMARK    6  A    between atoms: C_11  and  C_15
REMARK    7  A    between atoms: C_17  and  C_18
REMARK                            x       y       z     vdW  Elec       q    Type
REMARK                         _______ _______ _______ _____ _____    ______ ____
ROOT
ATOM      1  O   UNL     1      11.008   8.788  20.198  0.00  0.00    -0.371 OA
ATOM     11  C   UNL     1      10.817   7.805  21.229  0.00  0.00    +0.165 C 
ATOM     12  C   UNL     1      12.063   6.930  21.211  0.00  0.00    +0.164 C 
ATOM     13  C   UNL     1      12.385   6.911  19.728  0.00  0.00    +0.111 C 
ATOM     14  C   UNL     1      12.068   8.344  19.333  0.00  0.00    +0.181 C 
ENDROOT
BRANCH  12   2
ATOM      2  O   UNL     1      11.808   5.639  21.730  0.00  0.00    -0.388 OA
ATOM     23  H   UNL     1      12.394   5.494  22.492  0.00  0.00    +0.210 HD
ENDBRANCH  12   2
BRANCH  13   5
ATOM      5  N   UNL     1      13.758   6.534  19.435  0.00  0.00    -0.304 NA
ATOM     22  H   UNL     1      14.024   6.924  18.530  0.00  0.00    +0.123 HD
BRANCH   5  17
ATOM     17  C   UNL     1      14.670   7.037  20.455  0.00  0.00    +0.136 C 
BRANCH  17  18
ATOM      6  N   UNL     1      17.085   6.751  21.123  0.00  0.00    -0.347 N 
ATOM      7  N   UNL     1      18.042   5.841  19.337  0.00  0.00    -0.244 NA
ATOM     18  C   UNL     1      16.091   6.615  20.195  0.00  0.00    +0.049 A 
ATOM     19  C   UNL     1      16.706   6.051  19.101  0.00  0.00    +0.134 A 
ATOM     20  C   UNL     1      18.237   6.273  20.563  0.00  0.00    +0.196 A 
ATOM     24  H   UNL     1      16.989   7.134  22.054  0.00  0.00    +0.167 HD
ENDBRANCH  17  18
ENDBRANCH   5  17
ENDBRANCH  13   5
BRANCH  11  15
ATOM     15  C   UNL     1      10.588   8.497  22.562  0.00  0.00    +0.138 C 
BRANCH  15   4
ATOM      3  O   UNL     1      10.372  11.105  23.827  0.00  0.00    -0.276 OA
ATOM      4  N   UNL     1      11.650   9.413  22.862  0.00  0.00    -0.313 N 
ATOM     16  C   UNL     1      11.450  10.643  23.472  0.00  0.00    +0.216 C 
ATOM     21  H   UNL     1      12.595   9.136  22.613  0.00  0.00    +0.149 HD
BRANCH  16   8
ATOM      8  C   UNL     1      12.698  11.433  23.691  0.00  0.00    +0.075 C 
ATOM      9  C   UNL     1      12.961  12.606  22.808  0.00  0.00    +0.013 C 
ATOM     10  C   UNL     1      13.778  11.358  22.665  0.00  0.00    +0.013 C 
ENDBRANCH  16   8
ENDBRANCH  15   4
ENDBRANCH  11  15
TORSDOF 7
ENDMDL
MODEL 6
REMARK VINA RESULT:      -5.8     15.838     17.985
REMARK  Name = 75536547
REMARK  7 active torsions:
REMARK  status: ('A' for Active; 'I' for Inactive)
REMARK    1  A    between atoms: O_2  and  C_12
REMARK    2  A    between atoms: N_4  and  C_15
REMARK    3  A    between atoms: N_5  and  C_13
REMARK    4  A    between atoms: N_5  and  C_17
REMARK    5  A    between atoms: C_8  and  C_16
REMARK    6  A    between atoms: C_11  and  C_15
REMARK    7  A    between atoms: C_17  and  C_18
REMARK                            x       y       z     vdW  Elec       q    Type
REMARK                         _______ _______ _______ _____ _____    ______ ____
ROOT
ATOM      1  O   UNL     1      13.321   8.351  21.270  0.00  0.00    -0.371 OA
ATOM     11  C   UNL     1      12.265   7.402  21.045  0.00  0.00    +0.165 C 
ATOM     12  C   UNL     1      10.969   8.130  21.374  0.00  0.00    +0.164 C 
ATOM     13  C   UNL     1      11.416   9.017  22.522  0.00  0.00    +0.111 C 
ATOM     14  C   UNL     1      12.800   9.438  22.056  0.00  0.00    +0.181 C 
ENDROOT
BRANCH  12   2
ATOM      2  O   UNL     1       9.941   7.233  21.746  0.00  0.00    -0.388 OA
ATOM     23  H   UNL     1       9.134   7.472  21.259  0.00  0.00    +0.210 HD
ENDBRANCH  12   2
BRANCH  13   5
ATOM      5  N   UNL     1      10.533  10.146  22.764  0.00  0.00    -0.304 NA
ATOM     22  H   UNL     1       9.579   9.802  22.885  0.00  0.00    +0.123 HD
BRANCH   5  17
ATOM     17  C   UNL     1      10.929  10.875  23.963  0.00  0.00    +0.136 C 
BRANCH  17  18
ATOM      6  N   UNL     1      10.276  12.959  22.702  0.00  0.00    -0.347 N 
ATOM      7  N   UNL     1      10.053  14.505  24.280  0.00  0.00    -0.244 NA
ATOM     18  C   UNL     1      10.556  12.331  23.883  0.00  0.00    +0.049 A 
ATOM     19  C   UNL     1      10.412  13.306  24.843  0.00  0.00    +0.134 A 
ATOM     20  C   UNL     1       9.979  14.262  22.991  0.00  0.00    +0.196 A 
ATOM     24  H   UNL     1      10.284  12.539  21.782  0.00  0.00    +0.167 HD
ENDBRANCH  17  18
ENDBRANCH   5  17
ENDBRANCH  13   5
BRANCH  11  15
ATOM     15  C   UNL     1      12.324   6.900  19.612  0.00  0.00    +0.138 C 
BRANCH  15   4
ATOM      3  O   UNL     1      11.123   7.678  17.081  0.00  0.00    -0.276 OA
ATOM      4  N   UNL     1      12.764   7.929  18.716  0.00  0.00    -0.313 N 
ATOM     16  C   UNL     1      12.124   8.232  17.523  0.00  0.00    +0.216 C 
ATOM     21  H   UNL     1      13.589   8.461  18.979  0.00  0.00    +0.149 HD
BRANCH  16   8
ATOM      8  C   UNL     1      12.754   9.341  16.749  0.00  0.00    +0.075 C 
ATOM      9  C   UNL     1      14.022   9.065  16.013  0.00  0.00    +0.013 C 
ATOM     10  C   UNL     1      14.037   9.918  17.245  0.00  0.00    +0.013 C 
ENDBRANCH  16   8
ENDBRANCH  15   4
ENDBRANCH  11  15
TORSDOF 7
ENDMDL
MODEL 7
REMARK VINA RESULT:      -5.7     17.558     18.800
REMARK  Name = 75536547
REMARK  7 active torsions:
REMARK  status: ('A' for Active; 'I' for Inactive)
REMARK    1  A    between atoms: O_2  and  C_12
REMARK    2  A    between atoms: N_4  and  C_15
REMARK    3  A    between atoms: N_5  and  C_13
REMARK    4  A    between atoms: N_5  and  C_17
REMARK    5  A    between atoms: C_8  and  C_16
REMARK    6  A    between atoms: C_11  and  C_15
REMARK    7  A    between atoms: C_17  and  C_18
REMARK                            x       y       z     vdW  Elec       q    Type
REMARK                         _______ _______ _______ _____ _____    ______ ____
ROOT
ATOM      1  O   UNL     1      15.709   8.922  19.988  0.00  0.00    -0.371 OA
ATOM     11  C   UNL     1      15.143   7.607  19.869  0.00  0.00    +0.165 C 
ATOM     12  C   UNL     1      13.884   7.612  20.727  0.00  0.00    +0.164 C 
ATOM     13  C   UNL     1      14.310   8.520  21.865  0.00  0.00    +0.111 C 
ATOM     14  C   UNL     1      15.114   9.576  21.123  0.00  0.00    +0.181 C 
ENDROOT
BRANCH  12   2
ATOM      2  O   UNL     1      13.540   6.312  21.165  0.00  0.00    -0.388 OA
ATOM     23  H   UNL     1      13.356   5.764  20.383  0.00  0.00    +0.210 HD
ENDBRANCH  12   2
BRANCH  13   5
ATOM      5  N   UNL     1      13.196   9.079  22.613  0.00  0.00    -0.304 NA
ATOM     22  H   UNL     1      13.347   8.913  23.608  0.00  0.00    +0.123 HD
BRANCH   5  17
ATOM     17  C   UNL     1      13.078  10.515  22.385  0.00  0.00    +0.136 C 
BRANCH  17  18
ATOM      6  N   UNL     1      12.217  11.095  24.683  0.00  0.00    -0.347 N 
ATOM      7  N   UNL     1      10.364  12.256  24.295  0.00  0.00    -0.244 NA
ATOM     18  C   UNL     1      12.090  11.153  23.323  0.00  0.00    +0.049 A 
ATOM     19  C   UNL     1      10.939  11.875  23.108  0.00  0.00    +0.134 A 
ATOM     20  C   UNL     1      11.158  11.771  25.223  0.00  0.00    +0.196 A 
ATOM     24  H   UNL     1      12.958  10.638  25.198  0.00  0.00    +0.167 HD
ENDBRANCH  17  18
ENDBRANCH   5  17
ENDBRANCH  13   5
BRANCH  11  15
ATOM     15  C   UNL     1      14.873   7.295  18.408  0.00  0.00    +0.138 C 
BRANCH  15   4
ATOM      3  O   UNL     1      12.054   7.025  17.750  0.00  0.00    -0.276 OA
ATOM      4  N   UNL     1      14.015   8.280  17.814  0.00  0.00    -0.313 N 
ATOM     16  C   UNL     1      12.674   8.060  17.535  0.00  0.00    +0.216 C 
ATOM     21  H   UNL     1      14.421   9.185  17.592  0.00  0.00    +0.149 HD
BRANCH  16   8
ATOM      8  C   UNL     1      11.973   9.225  16.920  0.00  0.00    +0.075 C 
ATOM      9  C   UNL     1      10.828   8.962  16.001  0.00  0.00    +0.013 C 
ATOM     10  C   UNL     1      12.132   9.461  15.456  0.00  0.00    +0.013 C 
ENDBRANCH  16   8
ENDBRANCH  15   4
ENDBRANCH  11  15
TORSDOF 7
ENDMDL
MODEL 8
REMARK VINA RESULT:      -5.6     14.127     16.542
REMARK  Name = 75536547
REMARK  7 active torsions:
REMARK  status: ('A' for Active; 'I' for Inactive)
REMARK    1  A    between atoms: O_2  and  C_12
REMARK    2  A    between atoms: N_4  and  C_15
REMARK    3  A    between atoms: N_5  and  C_13
REMARK    4  A    between atoms: N_5  and  C_17
REMARK    5  A    between atoms: C_8  and  C_16
REMARK    6  A    between atoms: C_11  and  C_15
REMARK    7  A    between atoms: C_17  and  C_18
REMARK                            x       y       z     vdW  Elec       q    Type
REMARK                         _______ _______ _______ _____ _____    ______ ____
ROOT
ATOM      1  O   UNL     1      -4.219 -10.596  14.286  0.00  0.00    -0.371 OA
ATOM     11  C   UNL     1      -2.794 -10.548  14.460  0.00  0.00    +0.165 C 
ATOM     12  C   UNL     1      -2.481 -11.483  15.621  0.00  0.00    +0.164 C 
ATOM     13  C   UNL     1      -3.698 -11.272  16.502  0.00  0.00    +0.111 C 
ATOM     14  C   UNL     1      -4.806 -11.173  15.466  0.00  0.00    +0.181 C 
ENDROOT
BRANCH  12   2
ATOM      2  O   UNL     1      -1.272 -11.134  16.268  0.00  0.00    -0.388 OA
ATOM     23  H   UNL     1      -1.407 -10.292  16.736  0.00  0.00    +0.210 HD
ENDBRANCH  12   2
BRANCH  13   5
ATOM      5  N   UNL     1      -3.915 -12.343  17.462  0.00  0.00    -0.304 NA
ATOM     22  H   UNL     1      -3.103 -12.962  17.458  0.00  0.00    +0.123 HD
BRANCH   5  17
ATOM     17  C   UNL     1      -4.099 -11.812  18.808  0.00  0.00    +0.136 C 
BRANCH  17  18
ATOM      6  N   UNL     1      -6.439 -12.727  19.022  0.00  0.00    -0.347 N 
ATOM      7  N   UNL     1      -7.615 -11.035  19.850  0.00  0.00    -0.244 NA
ATOM     18  C   UNL     1      -5.555 -11.696  19.170  0.00  0.00    +0.049 A 
ATOM     19  C   UNL     1      -6.304 -10.662  19.683  0.00  0.00    +0.134 A 
ATOM     20  C   UNL     1      -7.662 -12.283  19.443  0.00  0.00    +0.196 A 
ATOM     24  H   UNL     1      -6.230 -13.651  18.667  0.00  0.00    +0.167 HD
ENDBRANCH  17  18
ENDBRANCH   5  17
ENDBRANCH  13   5
BRANCH  11  15
ATOM     15  C   UNL     1      -2.104 -10.945  13.167  0.00  0.00    +0.138 C 
BRANCH  15   4
ATOM      3  O   UNL     1      -3.415 -11.563  10.647  0.00  0.00    -0.276 OA
ATOM      4  N   UNL     1      -2.427 -10.038  12.104  0.00  0.00    -0.313 N 
ATOM     16  C   UNL     1      -3.057 -10.425  10.930  0.00  0.00    +0.216 C 
ATOM     21  H   UNL     1      -2.178  -9.061  12.228  0.00  0.00    +0.149 HD
BRANCH  16   8
ATOM      8  C   UNL     1      -3.297  -9.315   9.963  0.00  0.00    +0.075 C 
ATOM      9  C   UNL     1      -4.546  -8.510  10.100  0.00  0.00    +0.013 C 
ATOM     10  C   UNL     1      -4.388  -9.467   8.958  0.00  0.00    +0.013 C 
ENDBRANCH  16   8
ENDBRANCH  15   4
ENDBRANCH  11  15
TORSDOF 7
ENDMDL
MODEL 9
REMARK VINA RESULT:      -5.5     18.638     20.792
REMARK  Name = 75536547
REMARK  7 active torsions:
REMARK  status: ('A' for Active; 'I' for Inactive)
REMARK    1  A    between atoms: O_2  and  C_12
REMARK    2  A    between atoms: N_4  and  C_15
REMARK    3  A    between atoms: N_5  and  C_13
REMARK    4  A    between atoms: N_5  and  C_17
REMARK    5  A    between atoms: C_8  and  C_16
REMARK    6  A    between atoms: C_11  and  C_15
REMARK    7  A    between atoms: C_17  and  C_18
REMARK                            x       y       z     vdW  Elec       q    Type
REMARK                         _______ _______ _______ _____ _____    ______ ____
ROOT
ATOM      1  O   UNL     1      15.502   8.798  20.371  0.00  0.00    -0.371 OA
ATOM     11  C   UNL     1      15.819   7.706  19.492  0.00  0.00    +0.165 C 
ATOM     12  C   UNL     1      16.856   6.864  20.225  0.00  0.00    +0.164 C 
ATOM     13  C   UNL     1      17.636   7.937  20.960  0.00  0.00    +0.111 C 
ATOM     14  C   UNL     1      16.523   8.884  21.381  0.00  0.00    +0.181 C 
ENDROOT
BRANCH  12   2
ATOM      2  O   UNL     1      17.660   6.122  19.328  0.00  0.00    -0.388 OA
ATOM     23  H   UNL     1      18.583   6.405  19.439  0.00  0.00    +0.210 HD
ENDBRANCH  12   2
BRANCH  13   5
ATOM      5  N   UNL     1      18.404   7.431  22.086  0.00  0.00    -0.304 NA
ATOM     22  H   UNL     1      18.192   6.441  22.214  0.00  0.00    +0.123 HD
BRANCH   5  17
ATOM     17  C   UNL     1      19.836   7.583  21.856  0.00  0.00    +0.136 C 
BRANCH  17  18
ATOM      6  N   UNL     1      20.363   5.572  20.428  0.00  0.00    -0.347 N 
ATOM      7  N   UNL     1      21.704   4.338  21.697  0.00  0.00    -0.244 NA
ATOM     18  C   UNL     1      20.507   6.260  21.600  0.00  0.00    +0.049 A 
ATOM     19  C   UNL     1      21.339   5.479  22.368  0.00  0.00    +0.134 A 
ATOM     20  C   UNL     1      21.101   4.425  20.533  0.00  0.00    +0.196 A 
ATOM     24  H   UNL     1      19.815   5.857  19.627  0.00  0.00    +0.167 HD
ENDBRANCH  17  18
ENDBRANCH   5  17
ENDBRANCH  13   5
BRANCH  11  15
ATOM     15  C   UNL     1      14.554   6.938  19.151  0.00  0.00    +0.138 C 
BRANCH  15   4
ATOM      3  O   UNL     1      12.040   7.256  17.726  0.00  0.00    -0.276 OA
ATOM      4  N   UNL     1      13.383   7.640  19.591  0.00  0.00    -0.313 N 
ATOM     16  C   UNL     1      12.222   7.740  18.838  0.00  0.00    +0.216 C 
ATOM     21  H   UNL     1      13.415   8.083  20.504  0.00  0.00    +0.149 HD
BRANCH  16   8
ATOM      8  C   UNL     1      11.127   8.516  19.492  0.00  0.00    +0.075 C 
ATOM      9  C   UNL     1      11.482   9.448  20.601  0.00  0.00    +0.013 C 
ATOM     10  C   UNL     1      10.750   8.173  20.894  0.00  0.00    +0.013 C 
ENDBRANCH  16   8
ENDBRANCH  15   4
ENDBRANCH  11  15
TORSDOF 7
ENDMDL
MODEL 10
REMARK VINA RESULT:      -5.4     16.691     18.906
REMARK  Name = 75536547
REMARK  7 active torsions:
REMARK  status: ('A' for Active; 'I' for Inactive)
REMARK    1  A    between atoms: O_2  and  C_12
REMARK    2  A    between atoms: N_4  and  C_15
REMARK    3  A    between atoms: N_5  and  C_13
REMARK    4  A    between atoms: N_5  and  C_17
REMARK    5  A    between atoms: C_8  and  C_16
REMARK    6  A    between atoms: C_11  and  C_15
REMARK    7  A    between atoms: C_17  and  C_18
REMARK                            x       y       z     vdW  Elec       q    Type
REMARK                         _______ _______ _______ _____ _____    ______ ____
ROOT
ATOM      1  O   UNL     1      12.475   7.326  21.620  0.00  0.00    -0.371 OA
ATOM     11  C   UNL     1      13.862   7.431  21.258  0.00  0.00    +0.165 C 
ATOM     12  C   UNL     1      13.888   7.635  19.749  0.00  0.00    +0.164 C 
ATOM     13  C   UNL     1      12.707   6.783  19.319  0.00  0.00    +0.111 C 
ATOM     14  C   UNL     1      11.709   7.072  20.429  0.00  0.00    +0.181 C 
ENDROOT
BRANCH  12   2
ATOM      2  O   UNL     1      15.108   7.201  19.180  0.00  0.00    -0.388 OA
ATOM     23  H   UNL     1      14.958   6.341  18.752  0.00  0.00    +0.210 HD
ENDBRANCH  12   2
BRANCH  13   5
ATOM      5  N   UNL     1      12.197   7.118  18.000  0.00  0.00    -0.304 NA
ATOM     22  H   UNL     1      11.441   6.475  17.763  0.00  0.00    +0.123 HD
BRANCH   5  17
ATOM     17  C   UNL     1      11.687   8.483  17.964  0.00  0.00    +0.136 C 
BRANCH  17  18
ATOM      6  N   UNL     1      13.193  10.443  17.463  0.00  0.00    -0.347 N 
ATOM      7  N   UNL     1      13.513  10.339  15.268  0.00  0.00    -0.244 NA
ATOM     18  C   UNL     1      12.485   9.356  17.033  0.00  0.00    +0.049 A 
ATOM     19  C   UNL     1      12.698   9.312  15.675  0.00  0.00    +0.134 A 
ATOM     20  C   UNL     1      13.793  11.001  16.368  0.00  0.00    +0.196 A 
ATOM     24  H   UNL     1      13.263  10.776  18.416  0.00  0.00    +0.167 HD
ENDBRANCH  17  18
ENDBRANCH   5  17
ENDBRANCH  13   5
BRANCH  11  15
ATOM     15  C   UNL     1      14.509   8.570  22.028  0.00  0.00    +0.138 C 
BRANCH  15   4
ATOM      3  O   UNL     1      13.444  10.901  20.656  0.00  0.00    -0.276 OA
ATOM      4  N   UNL     1      13.526   9.496  22.512  0.00  0.00    -0.313 N 
ATOM     16  C   UNL     1      13.076  10.586  21.782  0.00  0.00    +0.216 C 
ATOM     21  H   UNL     1      13.145   9.335  23.440  0.00  0.00    +0.149 HD
BRANCH  16   8
ATOM      8  C   UNL     1      12.050  11.415  22.481  0.00  0.00    +0.075 C 
ATOM      9  C   UNL     1      12.117  11.525  23.967  0.00  0.00    +0.013 C 
ATOM     10  C   UNL     1      11.027  10.725  23.320  0.00  0.00    +0.013 C 
ENDBRANCH  16   8
ENDBRANCH  15   4
ENDBRANCH  11  15
TORSDOF 7
ENDMDL
