MODEL 1
REMARK VINA RESULT:      -6.5      0.000      0.000
REMARK  Name = 7144121
REMARK  3 active torsions:
REMARK  status: ('A' for Active; 'I' for Inactive)
REMARK    1  A    between atoms: O_2  and  C_21
REMARK    2  A    between atoms: O_2  and  C_22
REMARK    3  A    between atoms: C_12  and  C_16
REMARK                            x       y       z     vdW  Elec       q    Type
REMARK                         _______ _______ _______ _____ _____    ______ ____
ROOT
ATOM      1  O   UNL     1       7.032   9.327   4.467  0.00  0.00    -0.268 OA
ATOM      3  N   UNL     1       8.609   7.690   5.033  0.00  0.00    -0.311 N 
ATOM      4  N   UNL     1      11.197   7.981   6.880  0.00  0.00    -0.315 NA
ATOM      5  C   UNL     1       8.986   6.964   7.465  0.00  0.00    +0.023 C 
ATOM      6  C   UNL     1      10.324   5.969   5.673  0.00  0.00    +0.051 C 
ATOM      7  C   UNL     1       9.402   5.639   6.844  0.00  0.00    +0.017 C 
ATOM      8  C   UNL     1       8.170   7.748   6.435  0.00  0.00    +0.130 C 
ATOM      9  C   UNL     1       9.592   6.778   4.599  0.00  0.00    +0.034 A 
ATOM     10  C   UNL     1      10.227   7.739   7.947  0.00  0.00    +0.086 C 
ATOM     11  C   UNL     1      11.559   6.739   6.193  0.00  0.00    +0.090 C 
ATOM     12  C   UNL     1       9.865   6.658   3.274  0.00  0.00    +0.002 A 
ATOM     13  C   UNL     1       7.906   8.522   4.144  0.00  0.00    +0.252 A 
ATOM     14  C   UNL     1       9.163   7.504   2.326  0.00  0.00    +0.015 A 
ATOM     15  C   UNL     1       8.249   8.395   2.709  0.00  0.00    +0.071 A 
ATOM     23  H   UNL     1      12.032   8.415   7.268  0.00  0.00    +0.122 HD
ENDROOT
BRANCH  12  16
ATOM     16  C   UNL     1      10.883   5.721   2.804  0.00  0.00    -0.016 A 
ATOM     17  C   UNL     1      12.122   6.199   2.389  0.00  0.00    +0.012 A 
ATOM     18  C   UNL     1      10.606   4.358   2.776  0.00  0.00    +0.012 A 
ATOM     19  C   UNL     1      13.095   5.304   1.942  0.00  0.00    +0.046 A 
ATOM     20  C   UNL     1      11.579   3.464   2.330  0.00  0.00    +0.046 A 
ATOM     21  C   UNL     1      12.822   3.937   1.912  0.00  0.00    +0.120 A 
BRANCH  21   2
ATOM      2  O   UNL     1      13.770   3.063   1.476  0.00  0.00    -0.495 OA
ATOM     22  C   UNL     1      15.102   3.562   1.346  0.00  0.00    +0.277 C 
ENDBRANCH  21   2
ENDBRANCH  12  16
TORSDOF 2
ENDMDL
MODEL 2
REMARK VINA RESULT:      -6.2     24.121     26.382
REMARK  Name = 7144121
REMARK  3 active torsions:
REMARK  status: ('A' for Active; 'I' for Inactive)
REMARK    1  A    between atoms: O_2  and  C_21
REMARK    2  A    between atoms: O_2  and  C_22
REMARK    3  A    between atoms: C_12  and  C_16
REMARK                            x       y       z     vdW  Elec       q    Type
REMARK                         _______ _______ _______ _____ _____    ______ ____
ROOT
ATOM      1  O   UNL     1      -1.465 -10.071  12.385  0.00  0.00    -0.268 OA
ATOM      3  N   UNL     1      -3.557 -10.686  13.240  0.00  0.00    -0.311 N 
ATOM      4  N   UNL     1      -6.333  -9.127  13.006  0.00  0.00    -0.315 NA
ATOM      5  C   UNL     1      -5.567 -11.122  11.704  0.00  0.00    +0.023 C 
ATOM      6  C   UNL     1      -5.824 -11.303  14.132  0.00  0.00    +0.051 C 
ATOM      7  C   UNL     1      -6.020 -12.054  12.817  0.00  0.00    +0.017 C 
ATOM      8  C   UNL     1      -4.069 -10.858  11.872  0.00  0.00    +0.130 C 
ATOM      9  C   UNL     1      -4.348 -10.976  14.370  0.00  0.00    +0.034 A 
ATOM     10  C   UNL     1      -6.399  -9.826  11.723  0.00  0.00    +0.086 C 
ATOM     11  C   UNL     1      -6.677 -10.014  14.118  0.00  0.00    +0.090 C 
ATOM     12  C   UNL     1      -3.793 -10.940  15.610  0.00  0.00    +0.002 A 
ATOM     13  C   UNL     1      -2.203 -10.324  13.339  0.00  0.00    +0.252 A 
ATOM     14  C   UNL     1      -2.399 -10.566  15.752  0.00  0.00    +0.015 A 
ATOM     15  C   UNL     1      -1.635 -10.260  14.704  0.00  0.00    +0.071 A 
ATOM     23  H   UNL     1      -6.967  -8.329  12.994  0.00  0.00    +0.122 HD
ENDROOT
BRANCH  12  16
ATOM     16  C   UNL     1      -4.596 -11.234  16.795  0.00  0.00    -0.016 A 
ATOM     17  C   UNL     1      -5.182 -10.191  17.507  0.00  0.00    +0.012 A 
ATOM     18  C   UNL     1      -4.770 -12.553  17.201  0.00  0.00    +0.012 A 
ATOM     19  C   UNL     1      -5.950 -10.472  18.638  0.00  0.00    +0.046 A 
ATOM     20  C   UNL     1      -5.539 -12.832  18.331  0.00  0.00    +0.046 A 
ATOM     21  C   UNL     1      -6.128 -11.793  19.049  0.00  0.00    +0.120 A 
BRANCH  21   2
ATOM      2  O   UNL     1      -6.877 -12.067  20.152  0.00  0.00    -0.495 OA
ATOM     22  C   UNL     1      -8.107 -12.762  19.945  0.00  0.00    +0.277 C 
ENDBRANCH  21   2
ENDBRANCH  12  16
TORSDOF 2
ENDMDL
MODEL 3
REMARK VINA RESULT:      -6.2      2.457      3.351
REMARK  Name = 7144121
REMARK  3 active torsions:
REMARK  status: ('A' for Active; 'I' for Inactive)
REMARK    1  A    between atoms: O_2  and  C_21
REMARK    2  A    between atoms: O_2  and  C_22
REMARK    3  A    between atoms: C_12  and  C_16
REMARK                            x       y       z     vdW  Elec       q    Type
REMARK                         _______ _______ _______ _____ _____    ______ ____
ROOT
ATOM      1  O   UNL     1      13.093   8.548   7.335  0.00  0.00    -0.268 OA
ATOM      3  N   UNL     1      11.430   7.302   6.253  0.00  0.00    -0.311 N 
ATOM      4  N   UNL     1      10.251   4.447   7.057  0.00  0.00    -0.315 NA
ATOM      5  C   UNL     1       9.223   6.700   7.416  0.00  0.00    +0.023 C 
ATOM      6  C   UNL     1       9.649   5.929   5.132  0.00  0.00    +0.051 C 
ATOM      7  C   UNL     1       8.658   6.697   6.004  0.00  0.00    +0.017 C 
ATOM      8  C   UNL     1      10.540   7.480   7.409  0.00  0.00    +0.130 C 
ATOM      9  C   UNL     1      11.009   6.631   5.087  0.00  0.00    +0.034 A 
ATOM     10  C   UNL     1       9.397   5.257   7.924  0.00  0.00    +0.086 C 
ATOM     11  C   UNL     1       9.793   4.486   5.666  0.00  0.00    +0.090 C 
ATOM     12  C   UNL     1      11.810   6.612   3.990  0.00  0.00    +0.002 A 
ATOM     13  C   UNL     1      12.680   7.940   6.347  0.00  0.00    +0.252 A 
ATOM     14  C   UNL     1      13.109   7.256   4.051  0.00  0.00    +0.015 A 
ATOM     15  C   UNL     1      13.546   7.874   5.148  0.00  0.00    +0.071 A 
ATOM     23  H   UNL     1      10.260   3.483   7.388  0.00  0.00    +0.122 HD
ENDROOT
BRANCH  12  16
ATOM     16  C   UNL     1      11.393   5.919   2.774  0.00  0.00    -0.016 A 
ATOM     17  C   UNL     1      10.565   6.564   1.861  0.00  0.00    +0.012 A 
ATOM     18  C   UNL     1      11.828   4.619   2.537  0.00  0.00    +0.012 A 
ATOM     19  C   UNL     1      10.167   5.903   0.699  0.00  0.00    +0.046 A 
ATOM     20  C   UNL     1      11.432   3.958   1.374  0.00  0.00    +0.046 A 
ATOM     21  C   UNL     1      10.601   4.599   0.456  0.00  0.00    +0.120 A 
BRANCH  21   2
ATOM      2  O   UNL     1      10.214   3.953  -0.678  0.00  0.00    -0.495 OA
ATOM     22  C   UNL     1      11.233   3.648  -1.631  0.00  0.00    +0.277 C 
ENDBRANCH  21   2
ENDBRANCH  12  16
TORSDOF 2
ENDMDL
MODEL 4
REMARK VINA RESULT:      -6.1     14.943     18.549
REMARK  Name = 7144121
REMARK  3 active torsions:
REMARK  status: ('A' for Active; 'I' for Inactive)
REMARK    1  A    between atoms: O_2  and  C_21
REMARK    2  A    between atoms: O_2  and  C_22
REMARK    3  A    between atoms: C_12  and  C_16
REMARK                            x       y       z     vdW  Elec       q    Type
REMARK                         _______ _______ _______ _____ _____    ______ ____
ROOT
ATOM      1  O   UNL     1      13.721   8.677  17.075  0.00  0.00    -0.268 OA
ATOM      3  N   UNL     1      13.163   8.842  19.344  0.00  0.00    -0.311 N 
ATOM      4  N   UNL     1      10.577   7.714  20.839  0.00  0.00    -0.315 NA
ATOM      5  C   UNL     1      12.891   6.761  20.821  0.00  0.00    +0.023 C 
ATOM      6  C   UNL     1      12.521   8.987  21.769  0.00  0.00    +0.051 C 
ATOM      7  C   UNL     1      13.312   7.693  21.946  0.00  0.00    +0.017 C 
ATOM      8  C   UNL     1      13.312   7.386  19.489  0.00  0.00    +0.130 C 
ATOM      9  C   UNL     1      12.865   9.671  20.443  0.00  0.00    +0.034 A 
ATOM     10  C   UNL     1      11.376   6.491  20.891  0.00  0.00    +0.086 C 
ATOM     11  C   UNL     1      11.009   8.679  21.851  0.00  0.00    +0.090 C 
ATOM     12  C   UNL     1      12.876  11.022  20.294  0.00  0.00    +0.002 A 
ATOM     13  C   UNL     1      13.445   9.355  18.065  0.00  0.00    +0.252 A 
ATOM     14  C   UNL     1      13.159  11.588  18.989  0.00  0.00    +0.015 A 
ATOM     15  C   UNL     1      13.416  10.828  17.925  0.00  0.00    +0.071 A 
ATOM     23  H   UNL     1       9.594   7.487  20.977  0.00  0.00    +0.122 HD
ENDROOT
BRANCH  12  16
ATOM     16  C   UNL     1      12.568  11.899  21.421  0.00  0.00    -0.016 A 
ATOM     17  C   UNL     1      11.259  12.325  21.625  0.00  0.00    +0.012 A 
ATOM     18  C   UNL     1      13.584  12.300  22.282  0.00  0.00    +0.012 A 
ATOM     19  C   UNL     1      10.963  13.162  22.702  0.00  0.00    +0.046 A 
ATOM     20  C   UNL     1      13.288  13.136  23.359  0.00  0.00    +0.046 A 
ATOM     21  C   UNL     1      11.979  13.567  23.568  0.00  0.00    +0.120 A 
BRANCH  21   2
ATOM      2  O   UNL     1      11.691  14.383  24.619  0.00  0.00    -0.495 OA
ATOM     22  C   UNL     1      10.583  14.017  25.442  0.00  0.00    +0.277 C 
ENDBRANCH  21   2
ENDBRANCH  12  16
TORSDOF 2
ENDMDL
MODEL 5
REMARK VINA RESULT:      -5.9      2.647      5.538
REMARK  Name = 7144121
REMARK  3 active torsions:
REMARK  status: ('A' for Active; 'I' for Inactive)
REMARK    1  A    between atoms: O_2  and  C_21
REMARK    2  A    between atoms: O_2  and  C_22
REMARK    3  A    between atoms: C_12  and  C_16
REMARK                            x       y       z     vdW  Elec       q    Type
REMARK                         _______ _______ _______ _____ _____    ______ ____
ROOT
ATOM      1  O   UNL     1       8.867   8.559   0.309  0.00  0.00    -0.268 OA
ATOM      3  N   UNL     1      10.166   7.184   1.690  0.00  0.00    -0.311 N 
ATOM      4  N   UNL     1      10.556   4.019   1.538  0.00  0.00    -0.315 NA
ATOM      5  C   UNL     1      12.126   5.809   0.766  0.00  0.00    +0.023 C 
ATOM      6  C   UNL     1      11.547   5.667   3.140  0.00  0.00    +0.051 C 
ATOM      7  C   UNL     1      12.691   5.956   2.170  0.00  0.00    +0.017 C 
ATOM      8  C   UNL     1      11.056   6.883   0.559  0.00  0.00    +0.130 C 
ATOM      9  C   UNL     1      10.416   6.686   2.984  0.00  0.00    +0.034 A 
ATOM     10  C   UNL     1      11.578   4.385   0.558  0.00  0.00    +0.086 C 
ATOM     11  C   UNL     1      11.028   4.230   2.908  0.00  0.00    +0.090 C 
ATOM     12  C   UNL     1       9.652   7.102   4.028  0.00  0.00    +0.002 A 
ATOM     13  C   UNL     1       9.122   8.085   1.416  0.00  0.00    +0.252 A 
ATOM     14  C   UNL     1       8.562   8.029   3.784  0.00  0.00    +0.015 A 
ATOM     15  C   UNL     1       8.285   8.495   2.567  0.00  0.00    +0.071 A 
ATOM     23  H   UNL     1      10.294   3.043   1.411  0.00  0.00    +0.122 HD
ENDROOT
BRANCH  12  16
ATOM     16  C   UNL     1       9.893   6.595   5.377  0.00  0.00    -0.016 A 
ATOM     17  C   UNL     1       9.243   5.442   5.807  0.00  0.00    +0.012 A 
ATOM     18  C   UNL     1      10.770   7.267   6.221  0.00  0.00    +0.012 A 
ATOM     19  C   UNL     1       9.473   4.956   7.095  0.00  0.00    +0.046 A 
ATOM     20  C   UNL     1      11.001   6.781   7.508  0.00  0.00    +0.046 A 
ATOM     21  C   UNL     1      10.353   5.627   7.945  0.00  0.00    +0.120 A 
BRANCH  21   2
ATOM      2  O   UNL     1      10.578   5.154   9.201  0.00  0.00    -0.495 OA
ATOM     22  C   UNL     1       9.447   4.670   9.925  0.00  0.00    +0.277 C 
ENDBRANCH  21   2
ENDBRANCH  12  16
TORSDOF 2
ENDMDL
MODEL 6
REMARK VINA RESULT:      -5.8     25.577     27.903
REMARK  Name = 7144121
REMARK  3 active torsions:
REMARK  status: ('A' for Active; 'I' for Inactive)
REMARK    1  A    between atoms: O_2  and  C_21
REMARK    2  A    between atoms: O_2  and  C_22
REMARK    3  A    between atoms: C_12  and  C_16
REMARK                            x       y       z     vdW  Elec       q    Type
REMARK                         _______ _______ _______ _____ _____    ______ ____
ROOT
ATOM      1  O   UNL     1      -2.589 -15.483  14.031  0.00  0.00    -0.268 OA
ATOM      3  N   UNL     1      -3.373 -13.431  14.845  0.00  0.00    -0.311 N 
ATOM      4  N   UNL     1      -1.738 -11.136  16.346  0.00  0.00    -0.315 NA
ATOM      5  C   UNL     1      -2.478 -11.196  13.956  0.00  0.00    +0.023 C 
ATOM      6  C   UNL     1      -4.163 -11.217  15.731  0.00  0.00    +0.051 C 
ATOM      7  C   UNL     1      -3.852 -10.669  14.341  0.00  0.00    +0.017 C 
ATOM      8  C   UNL     1      -2.556 -12.721  13.850  0.00  0.00    +0.130 C 
ATOM      9  C   UNL     1      -4.237 -12.746  15.722  0.00  0.00    +0.034 A 
ATOM     10  C   UNL     1      -1.423 -10.731  14.977  0.00  0.00    +0.086 C 
ATOM     11  C   UNL     1      -3.090 -10.725  16.729  0.00  0.00    +0.090 C 
ATOM     12  C   UNL     1      -5.078 -13.446  16.527  0.00  0.00    +0.002 A 
ATOM     13  C   UNL     1      -3.316 -14.835  14.785  0.00  0.00    +0.252 A 
ATOM     14  C   UNL     1      -5.045 -14.897  16.496  0.00  0.00    +0.015 A 
ATOM     15  C   UNL     1      -4.219 -15.572  15.698  0.00  0.00    +0.071 A 
ATOM     23  H   UNL     1      -1.060 -10.729  16.989  0.00  0.00    +0.122 HD
ENDROOT
BRANCH  12  16
ATOM     16  C   UNL     1      -5.979 -12.755  17.446  0.00  0.00    -0.016 A 
ATOM     17  C   UNL     1      -5.541 -12.426  18.725  0.00  0.00    +0.012 A 
ATOM     18  C   UNL     1      -7.268 -12.429  17.035  0.00  0.00    +0.012 A 
ATOM     19  C   UNL     1      -6.401 -11.764  19.603  0.00  0.00    +0.046 A 
ATOM     20  C   UNL     1      -8.126 -11.767  17.912  0.00  0.00    +0.046 A 
ATOM     21  C   UNL     1      -7.694 -11.435  19.196  0.00  0.00    +0.120 A 
BRANCH  21   2
ATOM      2  O   UNL     1      -8.533 -10.789  20.051  0.00  0.00    -0.495 OA
ATOM     22  C   UNL     1      -9.929 -10.846  19.757  0.00  0.00    +0.277 C 
ENDBRANCH  21   2
ENDBRANCH  12  16
TORSDOF 2
ENDMDL
MODEL 7
REMARK VINA RESULT:      -5.6     22.482     24.947
REMARK  Name = 7144121
REMARK  3 active torsions:
REMARK  status: ('A' for Active; 'I' for Inactive)
REMARK    1  A    between atoms: O_2  and  C_21
REMARK    2  A    between atoms: O_2  and  C_22
REMARK    3  A    between atoms: C_12  and  C_16
REMARK                            x       y       z     vdW  Elec       q    Type
REMARK                         _______ _______ _______ _____ _____    ______ ____
ROOT
ATOM      1  O   UNL     1      18.738  -6.086  22.298  0.00  0.00    -0.268 OA
ATOM      3  N   UNL     1      18.311  -4.170  23.575  0.00  0.00    -0.311 N 
ATOM      4  N   UNL     1      17.570  -1.234  22.564  0.00  0.00    -0.315 NA
ATOM      5  C   UNL     1      16.039  -2.978  23.501  0.00  0.00    +0.023 C 
ATOM      6  C   UNL     1      17.839  -2.088  24.901  0.00  0.00    +0.051 C 
ATOM      7  C   UNL     1      16.386  -2.557  24.920  0.00  0.00    +0.017 C 
ATOM      8  C   UNL     1      16.911  -4.177  23.123  0.00  0.00    +0.130 C 
ATOM      9  C   UNL     1      18.785  -3.226  24.508  0.00  0.00    +0.034 A 
ATOM     10  C   UNL     1      16.219  -1.792  22.535  0.00  0.00    +0.086 C 
ATOM     11  C   UNL     1      17.981  -0.896  23.928  0.00  0.00    +0.090 C 
ATOM     12  C   UNL     1      20.044  -3.341  25.006  0.00  0.00    +0.002 A 
ATOM     13  C   UNL     1      19.105  -5.229  23.102  0.00  0.00    +0.252 A 
ATOM     14  C   UNL     1      20.895  -4.419  24.538  0.00  0.00    +0.015 A 
ATOM     15  C   UNL     1      20.484  -5.309  23.636  0.00  0.00    +0.071 A 
ATOM     23  H   UNL     1      17.610  -0.402  21.976  0.00  0.00    +0.122 HD
ENDROOT
BRANCH  12  16
ATOM     16  C   UNL     1      20.555  -2.371  25.971  0.00  0.00    -0.016 A 
ATOM     17  C   UNL     1      21.351  -1.316  25.533  0.00  0.00    +0.012 A 
ATOM     18  C   UNL     1      20.243  -2.508  27.320  0.00  0.00    +0.012 A 
ATOM     19  C   UNL     1      21.839  -0.388  26.455  0.00  0.00    +0.046 A 
ATOM     20  C   UNL     1      20.730  -1.580  28.240  0.00  0.00    +0.046 A 
ATOM     21  C   UNL     1      21.528  -0.521  27.808  0.00  0.00    +0.120 A 
BRANCH  21   2
ATOM      2  O   UNL     1      22.003   0.384  28.707  0.00  0.00    -0.495 OA
ATOM     22  C   UNL     1      22.991   1.304  28.242  0.00  0.00    +0.277 C 
ENDBRANCH  21   2
ENDBRANCH  12  16
TORSDOF 2
ENDMDL
MODEL 8
REMARK VINA RESULT:      -5.6     11.653     14.044
REMARK  Name = 7144121
REMARK  3 active torsions:
REMARK  status: ('A' for Active; 'I' for Inactive)
REMARK    1  A    between atoms: O_2  and  C_21
REMARK    2  A    between atoms: O_2  and  C_22
REMARK    3  A    between atoms: C_12  and  C_16
REMARK                            x       y       z     vdW  Elec       q    Type
REMARK                         _______ _______ _______ _____ _____    ______ ____
ROOT
ATOM      1  O   UNL     1       1.417  12.054   3.264  0.00  0.00    -0.268 OA
ATOM      3  N   UNL     1      -0.390  11.565   4.671  0.00  0.00    -0.311 N 
ATOM      4  N   UNL     1      -0.332  10.599   7.714  0.00  0.00    -0.315 NA
ATOM      5  C   UNL     1      -0.817  12.889   6.828  0.00  0.00    +0.023 C 
ATOM      6  C   UNL     1      -2.295  11.033   6.222  0.00  0.00    +0.051 C 
ATOM      7  C   UNL     1      -2.271  12.516   6.587  0.00  0.00    +0.017 C 
ATOM      8  C   UNL     1      -0.049  12.720   5.515  0.00  0.00    +0.130 C 
ATOM      9  C   UNL     1      -1.524  10.769   4.926  0.00  0.00    +0.034 A 
ATOM     10  C   UNL     1      -0.230  12.035   7.968  0.00  0.00    +0.086 C 
ATOM     11  C   UNL     1      -1.705  10.209   7.389  0.00  0.00    +0.090 C 
ATOM     12  C   UNL     1      -1.884   9.801   4.042  0.00  0.00    +0.002 A 
ATOM     13  C   UNL     1       0.423  11.381   3.539  0.00  0.00    +0.252 A 
ATOM     14  C   UNL     1      -1.066   9.579   2.864  0.00  0.00    +0.015 A 
ATOM     15  C   UNL     1       0.028  10.297   2.612  0.00  0.00    +0.071 A 
ATOM     23  H   UNL     1      -0.012  10.082   8.532  0.00  0.00    +0.122 HD
ENDROOT
BRANCH  12  16
ATOM     16  C   UNL     1      -3.054   8.963   4.289  0.00  0.00    -0.016 A 
ATOM     17  C   UNL     1      -2.935   7.830   5.088  0.00  0.00    +0.012 A 
ATOM     18  C   UNL     1      -4.279   9.304   3.725  0.00  0.00    +0.012 A 
ATOM     19  C   UNL     1      -4.053   7.029   5.326  0.00  0.00    +0.046 A 
ATOM     20  C   UNL     1      -5.397   8.504   3.963  0.00  0.00    +0.046 A 
ATOM     21  C   UNL     1      -5.284   7.367   4.762  0.00  0.00    +0.120 A 
BRANCH  21   2
ATOM      2  O   UNL     1      -6.375   6.587   4.993  0.00  0.00    -0.495 OA
ATOM     22  C   UNL     1      -7.435   6.655   4.039  0.00  0.00    +0.277 C 
ENDBRANCH  21   2
ENDBRANCH  12  16
TORSDOF 2
ENDMDL
MODEL 9
REMARK VINA RESULT:      -5.6     26.459     28.418
REMARK  Name = 7144121
REMARK  3 active torsions:
REMARK  status: ('A' for Active; 'I' for Inactive)
REMARK    1  A    between atoms: O_2  and  C_21
REMARK    2  A    between atoms: O_2  and  C_22
REMARK    3  A    between atoms: C_12  and  C_16
REMARK                            x       y       z     vdW  Elec       q    Type
REMARK                         _______ _______ _______ _____ _____    ______ ____
ROOT
ATOM      1  O   UNL     1     -15.455  -8.213  17.197  0.00  0.00    -0.268 OA
ATOM      3  N   UNL     1     -13.523  -7.741  15.960  0.00  0.00    -0.311 N 
ATOM      4  N   UNL     1     -10.806  -6.394  16.957  0.00  0.00    -0.315 NA
ATOM      5  C   UNL     1     -11.262  -8.817  16.524  0.00  0.00    +0.023 C 
ATOM      6  C   UNL     1     -11.426  -7.219  14.677  0.00  0.00    +0.051 C 
ATOM      7  C   UNL     1     -10.978  -8.632  15.042  0.00  0.00    +0.017 C 
ATOM      8  C   UNL     1     -12.775  -8.737  16.742  0.00  0.00    +0.130 C 
ATOM      9  C   UNL     1     -12.932  -7.042  14.888  0.00  0.00    +0.034 A 
ATOM     10  C   UNL     1     -10.493  -7.768  17.349  0.00  0.00    +0.086 C 
ATOM     11  C   UNL     1     -10.630  -6.195  15.517  0.00  0.00    +0.090 C 
ATOM     12  C   UNL     1     -13.695  -6.238  14.102  0.00  0.00    +0.002 A 
ATOM     13  C   UNL     1     -14.886  -7.619  16.280  0.00  0.00    +0.252 A 
ATOM     14  C   UNL     1     -15.106  -6.083  14.405  0.00  0.00    +0.015 A 
ATOM     15  C   UNL     1     -15.686  -6.709  15.429  0.00  0.00    +0.071 A 
ATOM     23  H   UNL     1     -10.208  -5.747  17.469  0.00  0.00    +0.122 HD
ENDROOT
BRANCH  12  16
ATOM     16  C   UNL     1     -13.101  -5.503  12.989  0.00  0.00    -0.016 A 
ATOM     17  C   UNL     1     -12.882  -6.146  11.774  0.00  0.00    +0.012 A 
ATOM     18  C   UNL     1     -12.759  -4.164  13.150  0.00  0.00    +0.012 A 
ATOM     19  C   UNL     1     -12.316  -5.443  10.710  0.00  0.00    +0.046 A 
ATOM     20  C   UNL     1     -12.194  -3.461  12.086  0.00  0.00    +0.046 A 
ATOM     21  C   UNL     1     -11.972  -4.101  10.867  0.00  0.00    +0.120 A 
BRANCH  21   2
ATOM      2  O   UNL     1     -11.420  -3.414   9.829  0.00  0.00    -0.495 OA
ATOM     22  C   UNL     1     -10.520  -4.130   8.983  0.00  0.00    +0.277 C 
ENDBRANCH  21   2
ENDBRANCH  12  16
TORSDOF 2
ENDMDL
MODEL 10
REMARK VINA RESULT:      -5.4     13.858     16.006
REMARK  Name = 7144121
REMARK  3 active torsions:
REMARK  status: ('A' for Active; 'I' for Inactive)
REMARK    1  A    between atoms: O_2  and  C_21
REMARK    2  A    between atoms: O_2  and  C_22
REMARK    3  A    between atoms: C_12  and  C_16
REMARK                            x       y       z     vdW  Elec       q    Type
REMARK                         _______ _______ _______ _____ _____    ______ ____
ROOT
ATOM      1  O   UNL     1      16.009  -6.565  -4.360  0.00  0.00    -0.268 OA
ATOM      3  N   UNL     1      17.310  -5.016  -3.178  0.00  0.00    -0.311 N 
ATOM      4  N   UNL     1      19.411  -2.904  -4.325  0.00  0.00    -0.315 NA
ATOM      5  C   UNL     1      17.067  -2.489  -3.551  0.00  0.00    +0.023 C 
ATOM      6  C   UNL     1      18.722  -3.335  -1.957  0.00  0.00    +0.051 C 
ATOM      7  C   UNL     1      17.535  -2.387  -2.107  0.00  0.00    +0.017 C 
ATOM      8  C   UNL     1      16.562  -3.912  -3.797  0.00  0.00    +0.130 C 
ATOM      9  C   UNL     1      18.309  -4.787  -2.212  0.00  0.00    +0.034 A 
ATOM     10  C   UNL     1      18.207  -2.095  -4.509  0.00  0.00    +0.086 C 
ATOM     11  C   UNL     1      19.847  -2.906  -2.927  0.00  0.00    +0.090 C 
ATOM     12  C   UNL     1      18.876  -5.837  -1.562  0.00  0.00    +0.002 A 
ATOM     13  C   UNL     1      16.884  -6.309  -3.532  0.00  0.00    +0.252 A 
ATOM     14  C   UNL     1      18.465  -7.186  -1.903  0.00  0.00    +0.015 A 
ATOM     15  C   UNL     1      17.543  -7.435  -2.832  0.00  0.00    +0.071 A 
ATOM     23  H   UNL     1      20.158  -2.546  -4.918  0.00  0.00    +0.122 HD
ENDROOT
BRANCH  12  16
ATOM     16  C   UNL     1      19.916  -5.620  -0.559  0.00  0.00    -0.016 A 
ATOM     17  C   UNL     1      21.244  -5.891  -0.873  0.00  0.00    +0.012 A 
ATOM     18  C   UNL     1      19.571  -5.143   0.701  0.00  0.00    +0.012 A 
ATOM     19  C   UNL     1      22.238  -5.683   0.084  0.00  0.00    +0.046 A 
ATOM     20  C   UNL     1      20.565  -4.934   1.657  0.00  0.00    +0.046 A 
ATOM     21  C   UNL     1      21.898  -5.204   1.349  0.00  0.00    +0.120 A 
BRANCH  21   2
ATOM      2  O   UNL     1      22.867  -5.001   2.283  0.00  0.00    -0.495 OA
ATOM     22  C   UNL     1      23.120  -6.067   3.198  0.00  0.00    +0.277 C 
ENDBRANCH  21   2
ENDBRANCH  12  16
TORSDOF 2
ENDMDL
