MODEL 1
REMARK VINA RESULT:      -8.5      0.000      0.000
REMARK  Name = 45783333
REMARK  5 active torsions:
REMARK  status: ('A' for Active; 'I' for Inactive)
REMARK    1  A    between atoms: N_4  and  C_15
REMARK    2  A    between atoms: C_10  and  C_18
REMARK    3  A    between atoms: C_14  and  C_23
REMARK    4  A    between atoms: C_15  and  C_21
REMARK    5  A    between atoms: C_24  and  C_27
REMARK                            x       y       z     vdW  Elec       q    Type
REMARK                         _______ _______ _______ _____ _____    ______ ____
ROOT
ATOM      1  O   UNL     1      20.371   7.221  22.827  0.00  0.00    -0.336 OA
ATOM      6  N   UNL     1      19.992   5.704  21.224  0.00  0.00    -0.190 NA
ATOM      7  N   UNL     1      19.150   7.574  22.239  0.00  0.00    -0.056 NA
ATOM     18  C   UNL     1      20.798   6.110  22.171  0.00  0.00    +0.245 A 
ATOM     24  C   UNL     1      18.995   6.633  21.302  0.00  0.00    +0.202 A 
ENDROOT
BRANCH  24  27
ATOM      5  N   UNL     1      14.516   8.025  20.162  0.00  0.00    -0.315 N 
ATOM      8  N   UNL     1      15.640   6.516  18.727  0.00  0.00    -0.240 NA
ATOM     14  C   UNL     1      12.156   9.562  20.869  0.00  0.00    +0.078 C 
ATOM     16  C   UNL     1      12.884   9.767  19.543  0.00  0.00    +0.031 C 
ATOM     17  C   UNL     1      13.087   8.975  21.929  0.00  0.00    +0.031 C 
ATOM     19  C   UNL     1      13.668   8.535  19.082  0.00  0.00    +0.107 C 
ATOM     20  C   UNL     1      13.843   7.741  21.436  0.00  0.00    +0.107 C 
ATOM     22  C   UNL     1      15.651   7.268  19.850  0.00  0.00    +0.122 A 
ATOM     26  C   UNL     1      16.722   7.340  20.725  0.00  0.00    +0.055 A 
ATOM     27  C   UNL     1      17.857   6.592  20.429  0.00  0.00    +0.027 A 
ATOM     30  C   UNL     1      17.884   5.807  19.282  0.00  0.00    +0.031 A 
ATOM     31  C   UNL     1      16.760   5.803  18.472  0.00  0.00    +0.113 A 
BRANCH  14  23
ATOM      3  O   UNL     1      10.514   8.380  19.594  0.00  0.00    -0.276 OA
ATOM      9  N   UNL     1      10.350   8.334  21.889  0.00  0.00    -0.329 N 
ATOM     23  C   UNL     1      10.939   8.701  20.701  0.00  0.00    +0.214 C 
ATOM     36  H   UNL     1       9.522   7.749  21.896  0.00  0.00    +0.145 HD
ATOM     37  H   UNL     1      10.679   8.660  22.792  0.00  0.00    +0.145 HD
ENDBRANCH  14  23
ENDBRANCH  24  27
BRANCH  18  10
ATOM      4  N   UNL     1      23.089   5.381  21.526  0.00  0.00    -0.284 NA
ATOM     10  C   UNL     1      22.116   5.522  22.629  0.00  0.00    +0.146 C 
ATOM     11  C   UNL     1      22.831   6.404  23.669  0.00  0.00    +0.030 C 
ATOM     12  C   UNL     1      24.217   6.656  23.092  0.00  0.00    +0.017 C 
ATOM     13  C   UNL     1      24.416   5.505  22.126  0.00  0.00    +0.085 C 
BRANCH   4  15
ATOM     15  C   UNL     1      22.937   4.136  20.783  0.00  0.00    +0.159 C 
BRANCH  15  21
ATOM      2  O   UNL     1      23.192   2.597  22.651  0.00  0.00    -0.458 OA
ATOM     21  C   UNL     1      23.668   2.997  21.442  0.00  0.00    +0.120 A 
ATOM     25  C   UNL     1      24.756   2.241  21.073  0.00  0.00    +0.054 A 
ATOM     28  C   UNL     1      24.971   1.309  22.124  0.00  0.00    +0.020 A 
ATOM     29  C   UNL     1      23.984   1.569  23.068  0.00  0.00    +0.135 A 
ATOM     32  C   UNL     1      25.890   0.276  22.379  0.00  0.00    +0.011 A 
ATOM     33  C   UNL     1      23.842   0.869  24.263  0.00  0.00    +0.047 A 
ATOM     34  C   UNL     1      25.773  -0.447  23.574  0.00  0.00    +0.001 A 
ATOM     35  C   UNL     1      24.766  -0.155  24.498  0.00  0.00    +0.004 A 
ENDBRANCH  15  21
ENDBRANCH   4  15
ENDBRANCH  18  10
TORSDOF 5
ENDMDL
MODEL 2
REMARK VINA RESULT:      -8.5      1.313      2.178
REMARK  Name = 45783333
REMARK  5 active torsions:
REMARK  status: ('A' for Active; 'I' for Inactive)
REMARK    1  A    between atoms: N_4  and  C_15
REMARK    2  A    between atoms: C_10  and  C_18
REMARK    3  A    between atoms: C_14  and  C_23
REMARK    4  A    between atoms: C_15  and  C_21
REMARK    5  A    between atoms: C_24  and  C_27
REMARK                            x       y       z     vdW  Elec       q    Type
REMARK                         _______ _______ _______ _____ _____    ______ ____
ROOT
ATOM      1  O   UNL     1      21.441   6.980  21.603  0.00  0.00    -0.336 OA
ATOM      6  N   UNL     1      19.370   7.263  22.408  0.00  0.00    -0.190 NA
ATOM      7  N   UNL     1      20.570   6.691  20.546  0.00  0.00    -0.056 NA
ATOM     18  C   UNL     1      20.654   7.308  22.661  0.00  0.00    +0.245 A 
ATOM     24  C   UNL     1      19.368   6.880  21.098  0.00  0.00    +0.202 A 
ENDROOT
BRANCH  24  27
ATOM      5  N   UNL     1      14.738   7.988  20.296  0.00  0.00    -0.315 N 
ATOM      8  N   UNL     1      15.764   6.333  18.950  0.00  0.00    -0.240 NA
ATOM     14  C   UNL     1      12.406   9.541  21.057  0.00  0.00    +0.078 C 
ATOM     16  C   UNL     1      12.979   9.587  19.643  0.00  0.00    +0.031 C 
ATOM     17  C   UNL     1      13.468   9.124  22.074  0.00  0.00    +0.031 C 
ATOM     19  C   UNL     1      13.759   8.327  19.260  0.00  0.00    +0.107 C 
ATOM     20  C   UNL     1      14.218   7.857  21.663  0.00  0.00    +0.107 C 
ATOM     22  C   UNL     1      15.863   7.227  19.958  0.00  0.00    +0.122 A 
ATOM     26  C   UNL     1      17.019   7.443  20.692  0.00  0.00    +0.055 A 
ATOM     27  C   UNL     1      18.145   6.694  20.370  0.00  0.00    +0.027 A 
ATOM     30  C   UNL     1      18.082   5.764  19.338  0.00  0.00    +0.031 A 
ATOM     31  C   UNL     1      16.879   5.623  18.665  0.00  0.00    +0.113 A 
BRANCH  14  23
ATOM      3  O   UNL     1      10.684   8.161  20.136  0.00  0.00    -0.276 OA
ATOM      9  N   UNL     1      10.777   8.404  22.422  0.00  0.00    -0.329 N 
ATOM     23  C   UNL     1      11.215   8.632  21.138  0.00  0.00    +0.214 C 
ATOM     36  H   UNL     1       9.979   7.803  22.597  0.00  0.00    +0.145 HD
ATOM     37  H   UNL     1      11.189   8.851  23.234  0.00  0.00    +0.145 HD
ENDBRANCH  14  23
ENDBRANCH  24  27
BRANCH  18  10
ATOM      4  N   UNL     1      22.569   6.844  24.180  0.00  0.00    -0.284 NA
ATOM     10  C   UNL     1      21.367   7.669  23.946  0.00  0.00    +0.146 C 
ATOM     11  C   UNL     1      21.883   9.120  23.952  0.00  0.00    +0.030 C 
ATOM     12  C   UNL     1      23.371   9.013  24.256  0.00  0.00    +0.017 C 
ATOM     13  C   UNL     1      23.497   7.671  24.950  0.00  0.00    +0.085 C 
BRANCH   4  15
ATOM     15  C   UNL     1      22.277   5.581  24.847  0.00  0.00    +0.159 C 
BRANCH  15  21
ATOM      2  O   UNL     1      23.073   4.601  22.767  0.00  0.00    -0.458 OA
ATOM     21  C   UNL     1      22.834   4.405  24.090  0.00  0.00    +0.120 A 
ATOM     25  C   UNL     1      23.166   3.122  24.460  0.00  0.00    +0.054 A 
ATOM     28  C   UNL     1      23.643   2.478  23.288  0.00  0.00    +0.020 A 
ATOM     29  C   UNL     1      23.566   3.430  22.276  0.00  0.00    +0.135 A 
ATOM     32  C   UNL     1      24.132   1.199  22.971  0.00  0.00    +0.011 A 
ATOM     33  C   UNL     1      23.943   3.198  20.955  0.00  0.00    +0.047 A 
ATOM     34  C   UNL     1      24.520   0.935  21.650  0.00  0.00    +0.001 A 
ATOM     35  C   UNL     1      24.427   1.919  20.662  0.00  0.00    +0.004 A 
ENDBRANCH  15  21
ENDBRANCH   4  15
ENDBRANCH  18  10
TORSDOF 5
ENDMDL
MODEL 3
REMARK VINA RESULT:      -8.3      2.335     11.482
REMARK  Name = 45783333
REMARK  5 active torsions:
REMARK  status: ('A' for Active; 'I' for Inactive)
REMARK    1  A    between atoms: N_4  and  C_15
REMARK    2  A    between atoms: C_10  and  C_18
REMARK    3  A    between atoms: C_14  and  C_23
REMARK    4  A    between atoms: C_15  and  C_21
REMARK    5  A    between atoms: C_24  and  C_27
REMARK                            x       y       z     vdW  Elec       q    Type
REMARK                         _______ _______ _______ _____ _____    ______ ____
ROOT
ATOM      1  O   UNL     1      17.124   6.471  19.916  0.00  0.00    -0.336 OA
ATOM      6  N   UNL     1      18.263   8.088  20.967  0.00  0.00    -0.190 NA
ATOM      7  N   UNL     1      18.456   6.041  19.963  0.00  0.00    -0.056 NA
ATOM     18  C   UNL     1      17.098   7.683  20.529  0.00  0.00    +0.245 A 
ATOM     24  C   UNL     1      19.065   7.048  20.598  0.00  0.00    +0.202 A 
ENDROOT
BRANCH  24  27
ATOM      5  N   UNL     1      23.320   4.773  20.753  0.00  0.00    -0.315 N 
ATOM      8  N   UNL     1      23.216   7.042  21.417  0.00  0.00    -0.240 NA
ATOM     14  C   UNL     1      24.817   2.315  20.370  0.00  0.00    +0.078 C 
ATOM     16  C   UNL     1      25.190   3.607  19.648  0.00  0.00    +0.031 C 
ATOM     17  C   UNL     1      23.344   2.310  20.775  0.00  0.00    +0.031 C 
ATOM     19  C   UNL     1      24.735   4.870  20.383  0.00  0.00    +0.107 C 
ATOM     20  C   UNL     1      22.929   3.580  21.516  0.00  0.00    +0.107 C 
ATOM     22  C   UNL     1      22.579   5.942  20.958  0.00  0.00    +0.122 A 
ATOM     26  C   UNL     1      21.223   5.892  20.676  0.00  0.00    +0.055 A 
ATOM     27  C   UNL     1      20.473   7.045  20.876  0.00  0.00    +0.027 A 
ATOM     30  C   UNL     1      21.093   8.198  21.347  0.00  0.00    +0.031 A 
ATOM     31  C   UNL     1      22.455   8.144  21.600  0.00  0.00    +0.113 A 
BRANCH  14  23
ATOM      3  O   UNL     1      26.638   2.817  21.837  0.00  0.00    -0.276 OA
ATOM      9  N   UNL     1      25.348   0.968  22.297  0.00  0.00    -0.329 N 
ATOM     23  C   UNL     1      25.694   2.080  21.565  0.00  0.00    +0.214 C 
ATOM     36  H   UNL     1      25.871   0.714  23.128  0.00  0.00    +0.145 HD
ATOM     37  H   UNL     1      24.604   0.336  22.023  0.00  0.00    +0.145 HD
ENDBRANCH  14  23
ENDBRANCH  24  27
BRANCH  18  10
ATOM      4  N   UNL     1      14.715   7.514  21.226  0.00  0.00    -0.284 NA
ATOM     10  C   UNL     1      15.750   8.368  20.610  0.00  0.00    +0.146 C 
ATOM     11  C   UNL     1      15.780   9.636  21.484  0.00  0.00    +0.030 C 
ATOM     12  C   UNL     1      14.688   9.428  22.525  0.00  0.00    +0.017 C 
ATOM     13  C   UNL     1      13.765   8.416  21.875  0.00  0.00    +0.085 C 
BRANCH   4  15
ATOM     15  C   UNL     1      14.063   6.625  20.272  0.00  0.00    +0.159 C 
BRANCH  15  21
ATOM      2  O   UNL     1      12.265   7.404  18.830  0.00  0.00    -0.458 OA
ATOM     21  C   UNL     1      13.606   7.361  19.041  0.00  0.00    +0.120 A 
ATOM     25  C   UNL     1      14.279   8.027  18.042  0.00  0.00    +0.054 A 
ATOM     28  C   UNL     1      13.287   8.515  17.150  0.00  0.00    +0.020 A 
ATOM     29  C   UNL     1      12.068   8.107  17.678  0.00  0.00    +0.135 A 
ATOM     32  C   UNL     1      13.287   9.258  15.956  0.00  0.00    +0.011 A 
ATOM     33  C   UNL     1      10.832   8.385  17.099  0.00  0.00    +0.047 A 
ATOM     34  C   UNL     1      12.059   9.554  15.349  0.00  0.00    +0.001 A 
ATOM     35  C   UNL     1      10.854   9.125  15.912  0.00  0.00    +0.004 A 
ENDBRANCH  15  21
ENDBRANCH   4  15
ENDBRANCH  18  10
TORSDOF 5
ENDMDL
MODEL 4
REMARK VINA RESULT:      -8.3     15.639     20.191
REMARK  Name = 45783333
REMARK  5 active torsions:
REMARK  status: ('A' for Active; 'I' for Inactive)
REMARK    1  A    between atoms: N_4  and  C_15
REMARK    2  A    between atoms: C_10  and  C_18
REMARK    3  A    between atoms: C_14  and  C_23
REMARK    4  A    between atoms: C_15  and  C_21
REMARK    5  A    between atoms: C_24  and  C_27
REMARK                            x       y       z     vdW  Elec       q    Type
REMARK                         _______ _______ _______ _____ _____    ______ ____
ROOT
ATOM      1  O   UNL     1      13.164   6.712   7.233  0.00  0.00    -0.336 OA
ATOM      6  N   UNL     1      12.965   7.455   5.129  0.00  0.00    -0.190 NA
ATOM      7  N   UNL     1      14.458   7.044   6.814  0.00  0.00    -0.056 NA
ATOM     18  C   UNL     1      12.346   6.984   6.182  0.00  0.00    +0.245 A 
ATOM     24  C   UNL     1      14.259   7.474   5.564  0.00  0.00    +0.202 A 
ENDROOT
BRANCH  24  27
ATOM      5  N   UNL     1      18.968   8.147   4.746  0.00  0.00    -0.315 N 
ATOM      8  N   UNL     1      17.417   8.810   3.086  0.00  0.00    -0.240 NA
ATOM     14  C   UNL     1      21.695   7.938   5.721  0.00  0.00    +0.078 C 
ATOM     16  C   UNL     1      21.252   7.278   4.418  0.00  0.00    +0.031 C 
ATOM     17  C   UNL     1      20.513   8.154   6.664  0.00  0.00    +0.031 C 
ATOM     19  C   UNL     1      20.044   7.960   3.769  0.00  0.00    +0.107 C 
ATOM     20  C   UNL     1      19.331   8.847   5.985  0.00  0.00    +0.107 C 
ATOM     22  C   UNL     1      17.647   8.266   4.302  0.00  0.00    +0.122 A 
ATOM     26  C   UNL     1      16.649   7.815   5.150  0.00  0.00    +0.055 A 
ATOM     27  C   UNL     1      15.330   7.928   4.723  0.00  0.00    +0.027 A 
ATOM     30  C   UNL     1      15.054   8.482   3.478  0.00  0.00    +0.031 A 
ATOM     31  C   UNL     1      16.123   8.903   2.704  0.00  0.00    +0.113 A 
BRANCH  14  23
ATOM      3  O   UNL     1      22.925   9.492   4.382  0.00  0.00    -0.276 OA
ATOM      9  N   UNL     1      22.444  10.071   6.556  0.00  0.00    -0.329 N 
ATOM     23  C   UNL     1      22.410   9.233   5.466  0.00  0.00    +0.214 C 
ATOM     36  H   UNL     1      22.900  10.976   6.498  0.00  0.00    +0.145 HD
ATOM     37  H   UNL     1      22.068   9.815   7.463  0.00  0.00    +0.145 HD
ENDBRANCH  14  23
ENDBRANCH  24  27
BRANCH  18  10
ATOM      4  N   UNL     1      10.327   5.765   5.389  0.00  0.00    -0.284 NA
ATOM     10  C   UNL     1      10.871   6.709   6.385  0.00  0.00    +0.146 C 
ATOM     11  C   UNL     1      10.572   6.055   7.747  0.00  0.00    +0.030 C 
ATOM     12  C   UNL     1       9.805   4.781   7.417  0.00  0.00    +0.017 C 
ATOM     13  C   UNL     1       9.227   5.059   6.044  0.00  0.00    +0.085 C 
BRANCH   4  15
ATOM     15  C   UNL     1       9.905   6.413   4.154  0.00  0.00    +0.159 C 
BRANCH  15  21
ATOM      2  O   UNL     1      11.547   4.932   3.140  0.00  0.00    -0.458 OA
ATOM     21  C   UNL     1      10.459   5.720   2.938  0.00  0.00    +0.120 A 
ATOM     25  C   UNL     1      10.088   5.710   1.613  0.00  0.00    +0.054 A 
ATOM     28  C   UNL     1      11.009   4.859   0.947  0.00  0.00    +0.020 A 
ATOM     29  C   UNL     1      11.884   4.406   1.928  0.00  0.00    +0.135 A 
ATOM     32  C   UNL     1      11.198   4.422  -0.376  0.00  0.00    +0.011 A 
ATOM     33  C   UNL     1      12.948   3.540   1.687  0.00  0.00    +0.047 A 
ATOM     34  C   UNL     1      12.261   3.549  -0.650  0.00  0.00    +0.001 A 
ATOM     35  C   UNL     1      13.118   3.116   0.365  0.00  0.00    +0.004 A 
ENDBRANCH  15  21
ENDBRANCH   4  15
ENDBRANCH  18  10
TORSDOF 5
ENDMDL
MODEL 5
REMARK VINA RESULT:      -8.0      1.730      2.269
REMARK  Name = 45783333
REMARK  5 active torsions:
REMARK  status: ('A' for Active; 'I' for Inactive)
REMARK    1  A    between atoms: N_4  and  C_15
REMARK    2  A    between atoms: C_10  and  C_18
REMARK    3  A    between atoms: C_14  and  C_23
REMARK    4  A    between atoms: C_15  and  C_21
REMARK    5  A    between atoms: C_24  and  C_27
REMARK                            x       y       z     vdW  Elec       q    Type
REMARK                         _______ _______ _______ _____ _____    ______ ____
ROOT
ATOM      1  O   UNL     1      20.801   8.283  23.030  0.00  0.00    -0.336 OA
ATOM      6  N   UNL     1      20.663   8.017  20.810  0.00  0.00    -0.190 NA
ATOM      7  N   UNL     1      19.533   7.743  22.781  0.00  0.00    -0.056 NA
ATOM     18  C   UNL     1      21.400   8.412  21.817  0.00  0.00    +0.245 A 
ATOM     24  C   UNL     1      19.527   7.615  21.450  0.00  0.00    +0.202 A 
ENDROOT
BRANCH  24  27
ATOM      5  N   UNL     1      14.817   7.659  20.395  0.00  0.00    -0.315 N 
ATOM      8  N   UNL     1      16.209   6.071  19.327  0.00  0.00    -0.240 NA
ATOM     14  C   UNL     1      12.193   8.808  20.873  0.00  0.00    +0.078 C 
ATOM     16  C   UNL     1      12.816   8.771  19.479  0.00  0.00    +0.031 C 
ATOM     17  C   UNL     1      13.263   8.755  21.962  0.00  0.00    +0.031 C 
ATOM     19  C   UNL     1      13.843   7.651  19.300  0.00  0.00    +0.107 C 
ATOM     20  C   UNL     1      14.263   7.618  21.755  0.00  0.00    +0.107 C 
ATOM     22  C   UNL     1      16.083   7.098  20.197  0.00  0.00    +0.122 A 
ATOM     26  C   UNL     1      17.136   7.639  20.916  0.00  0.00    +0.055 A 
ATOM     27  C   UNL     1      18.401   7.091  20.730  0.00  0.00    +0.027 A 
ATOM     30  C   UNL     1      18.571   6.034  19.843  0.00  0.00    +0.031 A 
ATOM     31  C   UNL     1      17.453   5.565  19.172  0.00  0.00    +0.113 A 
BRANCH  14  23
ATOM      3  O   UNL     1      11.290   6.632  20.460  0.00  0.00    -0.276 OA
ATOM      9  N   UNL     1      10.182   8.009  21.935  0.00  0.00    -0.329 N 
ATOM     23  C   UNL     1      11.197   7.701  21.059  0.00  0.00    +0.214 C 
ATOM     36  H   UNL     1       9.453   7.334  22.139  0.00  0.00    +0.145 HD
ATOM     37  H   UNL     1      10.087   8.920  22.372  0.00  0.00    +0.145 HD
ENDBRANCH  14  23
ENDBRANCH  24  27
BRANCH  18  10
ATOM      4  N   UNL     1      23.816   7.993  21.391  0.00  0.00    -0.284 NA
ATOM     10  C   UNL     1      22.804   8.980  21.815  0.00  0.00    +0.146 C 
ATOM     11  C   UNL     1      22.968  10.154  20.833  0.00  0.00    +0.030 C 
ATOM     12  C   UNL     1      24.133   9.762  19.935  0.00  0.00    +0.017 C 
ATOM     13  C   UNL     1      24.898   8.751  20.765  0.00  0.00    +0.085 C 
BRANCH   4  15
ATOM     15  C   UNL     1      24.294   7.155  22.484  0.00  0.00    +0.159 C 
BRANCH  15  21
ATOM      2  O   UNL     1      24.131   4.816  23.135  0.00  0.00    -0.458 OA
ATOM     21  C   UNL     1      24.296   5.696  22.113  0.00  0.00    +0.120 A 
ATOM     25  C   UNL     1      24.434   5.032  20.916  0.00  0.00    +0.054 A 
ATOM     28  C   UNL     1      24.350   3.646  21.215  0.00  0.00    +0.020 A 
ATOM     29  C   UNL     1      24.164   3.567  22.591  0.00  0.00    +0.135 A 
ATOM     32  C   UNL     1      24.410   2.452  20.476  0.00  0.00    +0.011 A 
ATOM     33  C   UNL     1      24.032   2.372  23.295  0.00  0.00    +0.047 A 
ATOM     34  C   UNL     1      24.280   1.233  21.155  0.00  0.00    +0.001 A 
ATOM     35  C   UNL     1      24.094   1.196  22.540  0.00  0.00    +0.004 A 
ENDBRANCH  15  21
ENDBRANCH   4  15
ENDBRANCH  18  10
TORSDOF 5
ENDMDL
MODEL 6
REMARK VINA RESULT:      -7.9     30.163     34.998
REMARK  Name = 45783333
REMARK  5 active torsions:
REMARK  status: ('A' for Active; 'I' for Inactive)
REMARK    1  A    between atoms: N_4  and  C_15
REMARK    2  A    between atoms: C_10  and  C_18
REMARK    3  A    between atoms: C_14  and  C_23
REMARK    4  A    between atoms: C_15  and  C_21
REMARK    5  A    between atoms: C_24  and  C_27
REMARK                            x       y       z     vdW  Elec       q    Type
REMARK                         _______ _______ _______ _____ _____    ______ ____
ROOT
ATOM      1  O   UNL     1     -12.227  -5.950  15.750  0.00  0.00    -0.336 OA
ATOM      6  N   UNL     1     -13.190  -7.907  16.258  0.00  0.00    -0.190 NA
ATOM      7  N   UNL     1     -11.236  -6.722  16.371  0.00  0.00    -0.056 NA
ATOM     18  C   UNL     1     -13.345  -6.722  15.724  0.00  0.00    +0.245 A 
ATOM     24  C   UNL     1     -11.881  -7.861  16.641  0.00  0.00    +0.202 A 
ENDROOT
BRANCH  24  27
ATOM      5  N   UNL     1      -7.906 -10.314  17.859  0.00  0.00    -0.315 N 
ATOM      8  N   UNL     1     -10.011 -11.133  18.566  0.00  0.00    -0.240 NA
ATOM     14  C   UNL     1      -5.018 -10.566  17.698  0.00  0.00    +0.078 C 
ATOM     16  C   UNL     1      -5.747 -10.486  19.037  0.00  0.00    +0.031 C 
ATOM     17  C   UNL     1      -5.838  -9.925  16.580  0.00  0.00    +0.031 C 
ATOM     19  C   UNL     1      -7.201 -10.960  18.970  0.00  0.00    +0.107 C 
ATOM     20  C   UNL     1      -7.280 -10.432  16.536  0.00  0.00    +0.107 C 
ATOM     22  C   UNL     1      -9.299 -10.193  17.905  0.00  0.00    +0.122 A 
ATOM     26  C   UNL     1      -9.863  -9.105  17.259  0.00  0.00    +0.055 A 
ATOM     27  C   UNL     1     -11.247  -8.971  17.294  0.00  0.00    +0.027 A 
ATOM     30  C   UNL     1     -12.014  -9.918  17.964  0.00  0.00    +0.031 A 
ATOM     31  C   UNL     1     -11.354 -10.970  18.579  0.00  0.00    +0.113 A 
BRANCH  14  23
ATOM      3  O   UNL     1      -4.740 -12.409  16.199  0.00  0.00    -0.276 OA
ATOM      9  N   UNL     1      -4.281 -12.742  18.429  0.00  0.00    -0.329 N 
ATOM     23  C   UNL     1      -4.666 -11.983  17.349  0.00  0.00    +0.214 C 
ATOM     36  H   UNL     1      -4.018 -13.714  18.310  0.00  0.00    +0.145 HD
ATOM     37  H   UNL     1      -4.286 -12.390  19.381  0.00  0.00    +0.145 HD
ENDBRANCH  14  23
ENDBRANCH  24  27
BRANCH  18  10
ATOM      4  N   UNL     1     -14.387  -5.808  13.657  0.00  0.00    -0.284 NA
ATOM     10  C   UNL     1     -14.575  -6.107  15.091  0.00  0.00    +0.146 C 
ATOM     11  C   UNL     1     -15.798  -7.040  15.139  0.00  0.00    +0.030 C 
ATOM     12  C   UNL     1     -16.264  -7.160  13.694  0.00  0.00    +0.017 C 
ATOM     13  C   UNL     1     -15.706  -5.914  13.036  0.00  0.00    +0.085 C 
BRANCH   4  15
ATOM     15  C   UNL     1     -13.770  -4.510  13.418  0.00  0.00    +0.159 C 
BRANCH  15  21
ATOM      2  O   UNL     1     -12.612  -5.741  11.667  0.00  0.00    -0.458 OA
ATOM     21  C   UNL     1     -12.900  -4.520  12.189  0.00  0.00    +0.120 A 
ATOM     25  C   UNL     1     -12.310  -3.522  11.448  0.00  0.00    +0.054 A 
ATOM     28  C   UNL     1     -11.607  -4.168  10.396  0.00  0.00    +0.020 A 
ATOM     29  C   UNL     1     -11.825  -5.530  10.575  0.00  0.00    +0.135 A 
ATOM     32  C   UNL     1     -10.813  -3.751   9.313  0.00  0.00    +0.011 A 
ATOM     33  C   UNL     1     -11.302  -6.520   9.746  0.00  0.00    +0.047 A 
ATOM     34  C   UNL     1     -10.273  -4.724   8.461  0.00  0.00    +0.001 A 
ATOM     35  C   UNL     1     -10.516  -6.084   8.675  0.00  0.00    +0.004 A 
ENDBRANCH  15  21
ENDBRANCH   4  15
ENDBRANCH  18  10
TORSDOF 5
ENDMDL
MODEL 7
REMARK VINA RESULT:      -7.9     17.755     21.377
REMARK  Name = 45783333
REMARK  5 active torsions:
REMARK  status: ('A' for Active; 'I' for Inactive)
REMARK    1  A    between atoms: N_4  and  C_15
REMARK    2  A    between atoms: C_10  and  C_18
REMARK    3  A    between atoms: C_14  and  C_23
REMARK    4  A    between atoms: C_15  and  C_21
REMARK    5  A    between atoms: C_24  and  C_27
REMARK                            x       y       z     vdW  Elec       q    Type
REMARK                         _______ _______ _______ _____ _____    ______ ____
ROOT
ATOM      1  O   UNL     1      15.266   7.778  -0.464  0.00  0.00    -0.336 OA
ATOM      6  N   UNL     1      15.598   6.157   1.046  0.00  0.00    -0.190 NA
ATOM      7  N   UNL     1      14.673   8.225   0.724  0.00  0.00    -0.056 NA
ATOM     18  C   UNL     1      15.787   6.554  -0.187  0.00  0.00    +0.245 A 
ATOM     24  C   UNL     1      14.910   7.215   1.566  0.00  0.00    +0.202 A 
ENDROOT
BRANCH  24  27
ATOM      5  N   UNL     1      11.411   6.831   4.869  0.00  0.00    -0.315 N 
ATOM      8  N   UNL     1      13.622   7.259   5.597  0.00  0.00    -0.240 NA
ATOM     14  C   UNL     1       8.591   6.443   5.440  0.00  0.00    +0.078 C 
ATOM     16  C   UNL     1       9.665   5.533   6.029  0.00  0.00    +0.031 C 
ATOM     17  C   UNL     1       9.071   7.109   4.152  0.00  0.00    +0.031 C 
ATOM     19  C   UNL     1      11.038   6.201   6.139  0.00  0.00    +0.107 C 
ATOM     20  C   UNL     1      10.439   7.775   4.303  0.00  0.00    +0.107 C 
ATOM     22  C   UNL     1      12.763   7.043   4.576  0.00  0.00    +0.122 A 
ATOM     26  C   UNL     1      13.134   7.019   3.241  0.00  0.00    +0.055 A 
ATOM     27  C   UNL     1      14.473   7.230   2.934  0.00  0.00    +0.027 A 
ATOM     30  C   UNL     1      15.388   7.455   3.957  0.00  0.00    +0.031 A 
ATOM     31  C   UNL     1      14.916   7.459   5.259  0.00  0.00    +0.113 A 
BRANCH  14  23
ATOM      3  O   UNL     1       8.293   7.329   7.642  0.00  0.00    -0.276 OA
ATOM      9  N   UNL     1       7.542   8.573   5.858  0.00  0.00    -0.329 N 
ATOM     23  C   UNL     1       8.143   7.477   6.432  0.00  0.00    +0.214 C 
ATOM     36  H   UNL     1       7.201   9.336   6.432  0.00  0.00    +0.145 HD
ATOM     37  H   UNL     1       7.370   8.649   4.860  0.00  0.00    +0.145 HD
ENDBRANCH  14  23
ENDBRANCH  24  27
BRANCH  18  10
ATOM      4  N   UNL     1      15.599   5.572  -2.466  0.00  0.00    -0.284 NA
ATOM     10  C   UNL     1      16.495   5.850  -1.325  0.00  0.00    +0.146 C 
ATOM     11  C   UNL     1      17.640   6.688  -1.922  0.00  0.00    +0.030 C 
ATOM     12  C   UNL     1      17.333   6.778  -3.411  0.00  0.00    +0.017 C 
ATOM     13  C   UNL     1      16.439   5.581  -3.663  0.00  0.00    +0.085 C 
BRANCH   4  15
ATOM     15  C   UNL     1      14.858   4.326  -2.324  0.00  0.00    +0.159 C 
BRANCH  15  21
ATOM      2  O   UNL     1      13.871   3.591  -0.225  0.00  0.00    -0.458 OA
ATOM     21  C   UNL     1      13.773   4.433  -1.287  0.00  0.00    +0.120 A 
ATOM     25  C   UNL     1      12.656   5.230  -1.175  0.00  0.00    +0.054 A 
ATOM     28  C   UNL     1      12.019   4.857   0.038  0.00  0.00    +0.020 A 
ATOM     29  C   UNL     1      12.805   3.847   0.584  0.00  0.00    +0.135 A 
ATOM     32  C   UNL     1      10.867   5.262   0.735  0.00  0.00    +0.011 A 
ATOM     33  C   UNL     1      12.524   3.202   1.786  0.00  0.00    +0.047 A 
ATOM     34  C   UNL     1      10.558   4.631   1.948  0.00  0.00    +0.001 A 
ATOM     35  C   UNL     1      11.374   3.620   2.462  0.00  0.00    +0.004 A 
ENDBRANCH  15  21
ENDBRANCH   4  15
ENDBRANCH  18  10
TORSDOF 5
ENDMDL
MODEL 8
REMARK VINA RESULT:      -7.8      2.945      5.079
REMARK  Name = 45783333
REMARK  5 active torsions:
REMARK  status: ('A' for Active; 'I' for Inactive)
REMARK    1  A    between atoms: N_4  and  C_15
REMARK    2  A    between atoms: C_10  and  C_18
REMARK    3  A    between atoms: C_14  and  C_23
REMARK    4  A    between atoms: C_15  and  C_21
REMARK    5  A    between atoms: C_24  and  C_27
REMARK                            x       y       z     vdW  Elec       q    Type
REMARK                         _______ _______ _______ _____ _____    ______ ____
ROOT
ATOM      1  O   UNL     1      20.580   7.117  23.012  0.00  0.00    -0.336 OA
ATOM      6  N   UNL     1      20.383   5.689  21.297  0.00  0.00    -0.190 NA
ATOM      7  N   UNL     1      19.346   7.398  22.412  0.00  0.00    -0.056 NA
ATOM     18  C   UNL     1      21.124   6.099  22.295  0.00  0.00    +0.245 A 
ATOM     24  C   UNL     1      19.302   6.515  21.408  0.00  0.00    +0.202 A 
ENDROOT
BRANCH  24  27
ATOM      5  N   UNL     1      14.822   7.762  20.114  0.00  0.00    -0.315 N 
ATOM      8  N   UNL     1      16.037   6.278  18.728  0.00  0.00    -0.240 NA
ATOM     14  C   UNL     1      12.395   9.232  20.733  0.00  0.00    +0.078 C 
ATOM     16  C   UNL     1      13.159   9.448  19.429  0.00  0.00    +0.031 C 
ATOM     17  C   UNL     1      13.308   8.681  21.827  0.00  0.00    +0.031 C 
ATOM     19  C   UNL     1      13.994   8.238  19.003  0.00  0.00    +0.107 C 
ATOM     20  C   UNL     1      14.117   7.467  21.368  0.00  0.00    +0.107 C 
ATOM     22  C   UNL     1      15.989   7.038  19.845  0.00  0.00    +0.122 A 
ATOM     26  C   UNL     1      17.029   7.149  20.753  0.00  0.00    +0.055 A 
ATOM     27  C   UNL     1      18.195   6.434  20.499  0.00  0.00    +0.027 A 
ATOM     30  C   UNL     1      18.282   5.641  19.360  0.00  0.00    +0.031 A 
ATOM     31  C   UNL     1      17.186   5.598  18.514  0.00  0.00    +0.113 A 
BRANCH  14  23
ATOM      3  O   UNL     1      10.779   7.613  21.429  0.00  0.00    -0.276 OA
ATOM      9  N   UNL     1      10.684   8.383  19.263  0.00  0.00    -0.329 N 
ATOM     23  C   UNL     1      11.211   8.333  20.533  0.00  0.00    +0.214 C 
ATOM     36  H   UNL     1       9.879   7.818  19.015  0.00  0.00    +0.145 HD
ATOM     37  H   UNL     1      11.092   8.937  18.517  0.00  0.00    +0.145 HD
ENDBRANCH  14  23
ENDBRANCH  24  27
BRANCH  18  10
ATOM      4  N   UNL     1      23.566   6.554  22.447  0.00  0.00    -0.284 NA
ATOM     10  C   UNL     1      22.480   5.602  22.752  0.00  0.00    +0.146 C 
ATOM     11  C   UNL     1      22.555   5.398  24.276  0.00  0.00    +0.030 C 
ATOM     12  C   UNL     1      23.749   6.226  24.730  0.00  0.00    +0.017 C 
ATOM     13  C   UNL     1      24.588   6.359  23.475  0.00  0.00    +0.085 C 
BRANCH   4  15
ATOM     15  C   UNL     1      24.105   6.399  21.102  0.00  0.00    +0.159 C 
BRANCH  15  21
ATOM      2  O   UNL     1      24.886   8.000  19.444  0.00  0.00    -0.458 OA
ATOM     21  C   UNL     1      23.865   7.622  20.258  0.00  0.00    +0.120 A 
ATOM     25  C   UNL     1      22.795   8.477  20.124  0.00  0.00    +0.054 A 
ATOM     28  C   UNL     1      23.177   9.450  19.164  0.00  0.00    +0.020 A 
ATOM     29  C   UNL     1      24.469   9.113  18.776  0.00  0.00    +0.135 A 
ATOM     32  C   UNL     1      22.573  10.577  18.579  0.00  0.00    +0.011 A 
ATOM     33  C   UNL     1      25.215   9.824  17.839  0.00  0.00    +0.047 A 
ATOM     34  C   UNL     1      23.299  11.313  17.632  0.00  0.00    +0.001 A 
ATOM     35  C   UNL     1      24.596  10.941  17.270  0.00  0.00    +0.004 A 
ENDBRANCH  15  21
ENDBRANCH   4  15
ENDBRANCH  18  10
TORSDOF 5
ENDMDL
MODEL 9
REMARK VINA RESULT:      -7.7     18.369     22.958
REMARK  Name = 45783333
REMARK  5 active torsions:
REMARK  status: ('A' for Active; 'I' for Inactive)
REMARK    1  A    between atoms: N_4  and  C_15
REMARK    2  A    between atoms: C_10  and  C_18
REMARK    3  A    between atoms: C_14  and  C_23
REMARK    4  A    between atoms: C_15  and  C_21
REMARK    5  A    between atoms: C_24  and  C_27
REMARK                            x       y       z     vdW  Elec       q    Type
REMARK                         _______ _______ _______ _____ _____    ______ ____
ROOT
ATOM      1  O   UNL     1       8.715   9.286  -1.423  0.00  0.00    -0.336 OA
ATOM      6  N   UNL     1       9.366   7.858   0.175  0.00  0.00    -0.190 NA
ATOM      7  N   UNL     1       8.128   9.738  -0.235  0.00  0.00    -0.056 NA
ATOM     18  C   UNL     1       9.426   8.176  -1.093  0.00  0.00    +0.245 A 
ATOM     24  C   UNL     1       8.559   8.845   0.662  0.00  0.00    +0.202 A 
ENDROOT
BRANCH  24  27
ATOM      5  N   UNL     1       9.328   7.622   5.267  0.00  0.00    -0.315 N 
ATOM      8  N   UNL     1       7.502   9.037   4.754  0.00  0.00    -0.240 NA
ATOM     14  C   UNL     1      10.901   6.119   7.190  0.00  0.00    +0.078 C 
ATOM     16  C   UNL     1      10.718   7.630   7.304  0.00  0.00    +0.031 C 
ATOM     17  C   UNL     1      10.712   5.643   5.750  0.00  0.00    +0.031 C 
ATOM     19  C   UNL     1       9.441   8.142   6.633  0.00  0.00    +0.107 C 
ATOM     20  C   UNL     1       9.422   6.164   5.118  0.00  0.00    +0.107 C 
ATOM     22  C   UNL     1       8.564   8.319   4.325  0.00  0.00    +0.122 A 
ATOM     26  C   UNL     1       8.950   8.224   2.998  0.00  0.00    +0.055 A 
ATOM     27  C   UNL     1       8.200   8.910   2.050  0.00  0.00    +0.027 A 
ATOM     30  C   UNL     1       7.100   9.660   2.453  0.00  0.00    +0.031 A 
ATOM     31  C   UNL     1       6.796   9.690   3.804  0.00  0.00    +0.113 A 
BRANCH  14  23
ATOM      3  O   UNL     1       9.122   5.960   8.780  0.00  0.00    -0.276 OA
ATOM      9  N   UNL     1      10.195   4.024   8.152  0.00  0.00    -0.329 N 
ATOM     23  C   UNL     1       9.977   5.382   8.114  0.00  0.00    +0.214 C 
ATOM     36  H   UNL     1       9.627   3.426   8.741  0.00  0.00    +0.145 HD
ATOM     37  H   UNL     1      10.947   3.572   7.643  0.00  0.00    +0.145 HD
ENDBRANCH  14  23
ENDBRANCH  24  27
BRANCH  18  10
ATOM      4  N   UNL     1       9.264   6.753  -3.128  0.00  0.00    -0.284 NA
ATOM     10  C   UNL     1      10.167   7.490  -2.221  0.00  0.00    +0.146 C 
ATOM     11  C   UNL     1      10.912   8.482  -3.133  0.00  0.00    +0.030 C 
ATOM     12  C   UNL     1      10.407   8.187  -4.539  0.00  0.00    +0.017 C 
ATOM     13  C   UNL     1       9.902   6.761  -4.444  0.00  0.00    +0.085 C 
BRANCH   4  15
ATOM     15  C   UNL     1       8.969   5.401  -2.670  0.00  0.00    +0.159 C 
BRANCH  15  21
ATOM      2  O   UNL     1       9.697   4.780  -0.433  0.00  0.00    -0.458 OA
ATOM     21  C   UNL     1      10.035   4.876  -1.745  0.00  0.00    +0.120 A 
ATOM     25  C   UNL     1      11.330   4.456  -1.947  0.00  0.00    +0.054 A 
ATOM     28  C   UNL     1      11.829   4.074  -0.674  0.00  0.00    +0.020 A 
ATOM     29  C   UNL     1      10.788   4.291   0.222  0.00  0.00    +0.135 A 
ATOM     32  C   UNL     1      13.044   3.567  -0.181  0.00  0.00    +0.011 A 
ATOM     33  C   UNL     1      10.868   4.039   1.590  0.00  0.00    +0.047 A 
ATOM     34  C   UNL     1      13.156   3.304   1.191  0.00  0.00    +0.001 A 
ATOM     35  C   UNL     1      12.086   3.536   2.059  0.00  0.00    +0.004 A 
ENDBRANCH  15  21
ENDBRANCH   4  15
ENDBRANCH  18  10
TORSDOF 5
ENDMDL
MODEL 10
REMARK VINA RESULT:      -7.6     30.298     35.638
REMARK  Name = 45783333
REMARK  5 active torsions:
REMARK  status: ('A' for Active; 'I' for Inactive)
REMARK    1  A    between atoms: N_4  and  C_15
REMARK    2  A    between atoms: C_10  and  C_18
REMARK    3  A    between atoms: C_14  and  C_23
REMARK    4  A    between atoms: C_15  and  C_21
REMARK    5  A    between atoms: C_24  and  C_27
REMARK                            x       y       z     vdW  Elec       q    Type
REMARK                         _______ _______ _______ _____ _____    ______ ____
ROOT
ATOM      1  O   UNL     1     -11.857  -5.781  15.795  0.00  0.00    -0.336 OA
ATOM      6  N   UNL     1     -12.701  -7.845  16.005  0.00  0.00    -0.190 NA
ATOM      7  N   UNL     1     -10.979  -6.476  16.636  0.00  0.00    -0.056 NA
ATOM     18  C   UNL     1     -12.842  -6.659  15.470  0.00  0.00    +0.245 A 
ATOM     24  C   UNL     1     -11.545  -7.685  16.712  0.00  0.00    +0.202 A 
ENDROOT
BRANCH  24  27
ATOM      5  N   UNL     1      -7.758 -10.353  18.070  0.00  0.00    -0.315 N 
ATOM      8  N   UNL     1      -9.882 -10.835  18.996  0.00  0.00    -0.240 NA
ATOM     14  C   UNL     1      -4.926 -10.933  17.798  0.00  0.00    +0.078 C 
ATOM     16  C   UNL     1      -5.553 -10.588  19.147  0.00  0.00    +0.031 C 
ATOM     17  C   UNL     1      -5.751 -10.371  16.642  0.00  0.00    +0.031 C 
ATOM     19  C   UNL     1      -7.047 -10.909  19.224  0.00  0.00    +0.107 C 
ATOM     20  C   UNL     1      -7.235 -10.722  16.747  0.00  0.00    +0.107 C 
ATOM     22  C   UNL     1      -9.127 -10.079  18.168  0.00  0.00    +0.122 A 
ATOM     26  C   UNL     1      -9.622  -9.038  17.400  0.00  0.00    +0.055 A 
ATOM     27  C   UNL     1     -10.981  -8.754  17.486  0.00  0.00    +0.027 A 
ATOM     30  C   UNL     1     -11.791  -9.510  18.327  0.00  0.00    +0.031 A 
ATOM     31  C   UNL     1     -11.198 -10.530  19.054  0.00  0.00    +0.113 A 
BRANCH  14  23
ATOM      3  O   UNL     1      -5.144 -13.022  16.655  0.00  0.00    -0.276 OA
ATOM      9  N   UNL     1      -4.099 -13.008  18.705  0.00  0.00    -0.329 N 
ATOM     23  C   UNL     1      -4.739 -12.414  17.642  0.00  0.00    +0.214 C 
ATOM     36  H   UNL     1      -3.917 -14.005  18.707  0.00  0.00    +0.145 HD
ATOM     37  H   UNL     1      -3.828 -12.499  19.541  0.00  0.00    +0.145 HD
ENDBRANCH  14  23
ENDBRANCH  24  27
BRANCH  18  10
ATOM      4  N   UNL     1     -13.612  -6.340  13.125  0.00  0.00    -0.284 NA
ATOM     10  C   UNL     1     -13.930  -6.142  14.553  0.00  0.00    +0.146 C 
ATOM     11  C   UNL     1     -15.273  -6.866  14.757  0.00  0.00    +0.030 C 
ATOM     12  C   UNL     1     -15.659  -7.386  13.380  0.00  0.00    +0.017 C 
ATOM     13  C   UNL     1     -14.891  -6.488  12.431  0.00  0.00    +0.085 C 
BRANCH   4  15
ATOM     15  C   UNL     1     -12.804  -5.266  12.562  0.00  0.00    +0.159 C 
BRANCH  15  21
ATOM      2  O   UNL     1     -13.432  -4.163  10.486  0.00  0.00    -0.458 OA
ATOM     21  C   UNL     1     -13.645  -4.259  11.824  0.00  0.00    +0.120 A 
ATOM     25  C   UNL     1     -14.622  -3.377  12.226  0.00  0.00    +0.054 A 
ATOM     28  C   UNL     1     -15.044  -2.688  11.058  0.00  0.00    +0.020 A 
ATOM     29  C   UNL     1     -14.282  -3.207  10.016  0.00  0.00    +0.135 A 
ATOM     32  C   UNL     1     -15.984  -1.684  10.767  0.00  0.00    +0.011 A 
ATOM     33  C   UNL     1     -14.388  -2.795   8.690  0.00  0.00    +0.047 A 
ATOM     34  C   UNL     1     -16.114  -1.249   9.441  0.00  0.00    +0.001 A 
ATOM     35  C   UNL     1     -15.330  -1.796   8.423  0.00  0.00    +0.004 A 
ENDBRANCH  15  21
ENDBRANCH   4  15
ENDBRANCH  18  10
TORSDOF 5
ENDMDL
