MODEL 1
REMARK VINA RESULT:      -7.9      0.000      0.000
REMARK  Name = 51138156
REMARK  11 active torsions:
REMARK  status: ('A' for Active; 'I' for Inactive)
REMARK    1  A    between atoms: N_5  and  C_21
REMARK    2  A    between atoms: N_6  and  C_26
REMARK    3  A    between atoms: C_8  and  C_12
REMARK    4  A    between atoms: C_11  and  C_19
REMARK    5  A    between atoms: C_12  and  C_16
REMARK    6  A    between atoms: C_16  and  C_23
REMARK    7  A    between atoms: C_16  and  C_24
REMARK    8  A    between atoms: C_21  and  C_25
REMARK    9  A    between atoms: C_26  and  C_28
REMARK   10  A    between atoms: C_29  and  C_31
REMARK   11  A    between atoms: C_32  and  C_34
REMARK                            x       y       z     vdW  Elec       q    Type
REMARK                         _______ _______ _______ _____ _____    ______ ____
ROOT
ATOM      4  N   UNL     1      -6.529 -10.984  16.735  0.00  0.00    -0.299 NA
ATOM      5  N   UNL     1      -3.550 -10.470  12.689  0.00  0.00    -0.340 N 
ATOM      8  C   UNL     1      -5.173 -10.774  17.262  0.00  0.00    +0.085 C 
ATOM      9  C   UNL     1      -4.045 -10.771  16.226  0.00  0.00    -0.021 A 
ATOM     10  C   UNL     1      -4.222 -10.616  14.821  0.00  0.00    +0.008 A 
ATOM     11  C   UNL     1      -7.003  -9.936  15.842  0.00  0.00    +0.145 C 
ATOM     13  C   UNL     1      -5.367 -10.418  13.973  0.00  0.00    -0.020 A 
ATOM     14  C   UNL     1      -6.800 -10.313  14.376  0.00  0.00    +0.065 C 
ATOM     15  C   UNL     1      -3.102 -10.618  13.980  0.00  0.00    +0.050 A 
ATOM     17  C   UNL     1      -4.908 -10.343  12.673  0.00  0.00    +0.091 A 
ATOM     18  C   UNL     1      -2.705 -10.851  16.682  0.00  0.00    +0.006 A 
ATOM     20  C   UNL     1      -1.793 -10.744  14.446  0.00  0.00    +0.026 A 
ATOM     22  C   UNL     1      -1.611 -10.849  15.818  0.00  0.00    +0.002 A 
ATOM     35  H   UNL     1      -6.612 -11.903  16.301  0.00  0.00    +0.123 HD
ENDROOT
BRANCH  11  19
ATOM      1  O   UNL     1      -8.939 -10.034  17.234  0.00  0.00    -0.274 OA
ATOM      6  N   UNL     1      -9.193  -9.476  14.988  0.00  0.00    -0.307 N 
ATOM     19  C   UNL     1      -8.471  -9.820  16.119  0.00  0.00    +0.231 C 
ATOM     36  H   UNL     1      -8.700  -9.297  14.118  0.00  0.00    +0.149 HD
BRANCH   6  26
ATOM     26  C   UNL     1     -10.629  -9.322  14.984  0.00  0.00    +0.178 C 
BRANCH  26  28
ATOM      3  O   UNL     1     -11.616  -7.211  14.297  0.00  0.00    -0.463 OA
ATOM     28  C   UNL     1     -11.046  -7.916  15.308  0.00  0.00    +0.122 A 
ATOM     30  C   UNL     1     -10.973  -7.153  16.450  0.00  0.00    +0.046 A 
ATOM     32  C   UNL     1     -11.912  -5.983  14.799  0.00  0.00    +0.102 A 
ATOM     33  C   UNL     1     -11.536  -5.897  16.119  0.00  0.00    +0.045 A 
ATOM     34  C   UNL     1     -12.545  -5.037  13.870  0.00  0.00    +0.086 C 
ENDBRANCH  26  28
ENDBRANCH   6  26
ENDBRANCH  11  19
BRANCH   8  12
ATOM     12  C   UNL     1      -4.995 -11.872  18.326  0.00  0.00    +0.026 C 
BRANCH  12  16
ATOM     16  C   UNL     1      -5.805 -11.608  19.599  0.00  0.00    -0.015 C 
ATOM     23  C   UNL     1      -6.128 -10.126  19.794  0.00  0.00    +0.007 C 
ATOM     24  C   UNL     1      -7.103 -12.418  19.549  0.00  0.00    +0.007 C 
ENDBRANCH  12  16
ENDBRANCH   8  12
BRANCH   5  21
ATOM     21  C   UNL     1      -2.716 -10.431  11.507  0.00  0.00    +0.180 C 
BRANCH  21  25
ATOM      2  O   UNL     1      -4.346  -8.886   8.684  0.00  0.00    -0.360 OA
ATOM      7  N   UNL     1      -3.602  -8.831   9.857  0.00  0.00    -0.081 NA
ATOM     25  C   UNL     1      -3.479 -10.102  10.247  0.00  0.00    +0.103 A 
ATOM     27  C   UNL     1      -4.118 -10.995   9.370  0.00  0.00    +0.072 A 
ATOM     29  C   UNL     1      -4.647 -10.180   8.404  0.00  0.00    +0.135 A 
ATOM     31  C   UNL     1      -5.434 -10.421   7.189  0.00  0.00    +0.089 C 
ENDBRANCH  21  25
ENDBRANCH   5  21
TORSDOF 7
ENDMDL
MODEL 2
REMARK VINA RESULT:      -7.8     25.582     29.807
REMARK  Name = 51138156
REMARK  11 active torsions:
REMARK  status: ('A' for Active; 'I' for Inactive)
REMARK    1  A    between atoms: N_5  and  C_21
REMARK    2  A    between atoms: N_6  and  C_26
REMARK    3  A    between atoms: C_8  and  C_12
REMARK    4  A    between atoms: C_11  and  C_19
REMARK    5  A    between atoms: C_12  and  C_16
REMARK    6  A    between atoms: C_16  and  C_23
REMARK    7  A    between atoms: C_16  and  C_24
REMARK    8  A    between atoms: C_21  and  C_25
REMARK    9  A    between atoms: C_26  and  C_28
REMARK   10  A    between atoms: C_29  and  C_31
REMARK   11  A    between atoms: C_32  and  C_34
REMARK                            x       y       z     vdW  Elec       q    Type
REMARK                         _______ _______ _______ _____ _____    ______ ____
ROOT
ATOM      4  N   UNL     1      15.399   6.770   2.481  0.00  0.00    -0.299 NA
ATOM      5  N   UNL     1      11.447   7.696   5.486  0.00  0.00    -0.340 N 
ATOM      8  C   UNL     1      14.243   6.147   1.822  0.00  0.00    +0.085 C 
ATOM      9  C   UNL     1      12.941   6.129   2.630  0.00  0.00    -0.021 A 
ATOM     10  C   UNL     1      12.675   6.935   3.773  0.00  0.00    +0.008 A 
ATOM     11  C   UNL     1      15.249   8.192   2.756  0.00  0.00    +0.145 C 
ATOM     13  C   UNL     1      13.421   7.936   4.487  0.00  0.00    -0.020 A 
ATOM     14  C   UNL     1      14.794   8.441   4.193  0.00  0.00    +0.065 C 
ATOM     15  C   UNL     1      11.435   6.833   4.416  0.00  0.00    +0.050 A 
ATOM     17  C   UNL     1      12.632   8.368   5.535  0.00  0.00    +0.091 A 
ATOM     18  C   UNL     1      11.875   5.311   2.179  0.00  0.00    +0.006 A 
ATOM     20  C   UNL     1      10.414   5.986   3.983  0.00  0.00    +0.026 A 
ATOM     22  C   UNL     1      10.651   5.233   2.841  0.00  0.00    +0.002 A 
ATOM     35  H   UNL     1      15.658   6.257   3.323  0.00  0.00    +0.123 HD
ENDROOT
BRANCH  11  19
ATOM      1  O   UNL     1      16.782   9.954   2.267  0.00  0.00    -0.274 OA
ATOM      6  N   UNL     1      17.616   7.834   2.744  0.00  0.00    -0.307 N 
ATOM     19  C   UNL     1      16.616   8.775   2.566  0.00  0.00    +0.231 C 
ATOM     36  H   UNL     1      17.368   6.888   3.017  0.00  0.00    +0.149 HD
BRANCH   6  26
ATOM     26  C   UNL     1      19.021   8.137   2.596  0.00  0.00    +0.178 C 
BRANCH  26  28
ATOM      3  O   UNL     1      19.478   8.529   4.950  0.00  0.00    -0.463 OA
ATOM     28  C   UNL     1      19.801   7.817   3.839  0.00  0.00    +0.122 A 
ATOM     30  C   UNL     1      20.812   6.927   4.112  0.00  0.00    +0.046 A 
ATOM     32  C   UNL     1      20.292   8.087   5.945  0.00  0.00    +0.102 A 
ATOM     33  C   UNL     1      21.131   7.102   5.480  0.00  0.00    +0.045 A 
ATOM     34  C   UNL     1      20.118   8.725   7.257  0.00  0.00    +0.086 C 
ENDBRANCH  26  28
ENDBRANCH   6  26
ENDBRANCH  11  19
BRANCH   8  12
ATOM     12  C   UNL     1      14.725   4.734   1.447  0.00  0.00    +0.026 C 
BRANCH  12  16
ATOM     16  C   UNL     1      14.885   4.539  -0.064  0.00  0.00    -0.015 C 
ATOM     23  C   UNL     1      16.266   4.006  -0.446  0.00  0.00    +0.007 C 
ATOM     24  C   UNL     1      13.803   3.579  -0.567  0.00  0.00    +0.007 C 
ENDBRANCH  12  16
ENDBRANCH   8  12
BRANCH   5  21
ATOM     21  C   UNL     1      10.361   7.893   6.422  0.00  0.00    +0.180 C 
BRANCH  21  25
ATOM      2  O   UNL     1      10.953   5.223   8.775  0.00  0.00    -0.360 OA
ATOM      7  N   UNL     1      11.368   6.104   7.783  0.00  0.00    -0.081 NA
ATOM     25  C   UNL     1      10.282   6.818   7.479  0.00  0.00    +0.103 A 
ATOM     27  C   UNL     1       9.162   6.438   8.238  0.00  0.00    +0.072 A 
ATOM     29  C   UNL     1       9.637   5.432   9.037  0.00  0.00    +0.135 A 
ATOM     31  C   UNL     1       9.031   4.581  10.068  0.00  0.00    +0.089 C 
ENDBRANCH  21  25
ENDBRANCH   5  21
TORSDOF 7
ENDMDL
MODEL 3
REMARK VINA RESULT:      -7.8      1.881      2.594
REMARK  Name = 51138156
REMARK  11 active torsions:
REMARK  status: ('A' for Active; 'I' for Inactive)
REMARK    1  A    between atoms: N_5  and  C_21
REMARK    2  A    between atoms: N_6  and  C_26
REMARK    3  A    between atoms: C_8  and  C_12
REMARK    4  A    between atoms: C_11  and  C_19
REMARK    5  A    between atoms: C_12  and  C_16
REMARK    6  A    between atoms: C_16  and  C_23
REMARK    7  A    between atoms: C_16  and  C_24
REMARK    8  A    between atoms: C_21  and  C_25
REMARK    9  A    between atoms: C_26  and  C_28
REMARK   10  A    between atoms: C_29  and  C_31
REMARK   11  A    between atoms: C_32  and  C_34
REMARK                            x       y       z     vdW  Elec       q    Type
REMARK                         _______ _______ _______ _____ _____    ______ ____
ROOT
ATOM      4  N   UNL     1      -6.687 -11.011  16.603  0.00  0.00    -0.299 NA
ATOM      5  N   UNL     1      -3.629 -10.415  12.628  0.00  0.00    -0.340 N 
ATOM      8  C   UNL     1      -5.341 -10.818  17.162  0.00  0.00    +0.085 C 
ATOM      9  C   UNL     1      -4.193 -10.795  16.147  0.00  0.00    -0.021 A 
ATOM     10  C   UNL     1      -4.343 -10.607  14.744  0.00  0.00    +0.008 A 
ATOM     11  C   UNL     1      -7.141  -9.941  15.726  0.00  0.00    +0.145 C 
ATOM     13  C   UNL     1      -5.470 -10.386  13.879  0.00  0.00    -0.020 A 
ATOM     14  C   UNL     1      -6.910 -10.285  14.256  0.00  0.00    +0.065 C 
ATOM     15  C   UNL     1      -3.207 -10.594  13.925  0.00  0.00    +0.050 A 
ATOM     17  C   UNL     1      -4.986 -10.283  12.590  0.00  0.00    +0.091 A 
ATOM     18  C   UNL     1      -2.862 -10.890  16.628  0.00  0.00    +0.006 A 
ATOM     20  C   UNL     1      -1.907 -10.736  14.412  0.00  0.00    +0.026 A 
ATOM     22  C   UNL     1      -1.752 -10.872  15.785  0.00  0.00    +0.002 A 
ATOM     35  H   UNL     1      -6.765 -11.919  16.147  0.00  0.00    +0.123 HD
ENDROOT
BRANCH  11  19
ATOM      1  O   UNL     1      -9.432 -10.493  15.351  0.00  0.00    -0.274 OA
ATOM      6  N   UNL     1      -8.907  -8.887  16.953  0.00  0.00    -0.307 N 
ATOM     19  C   UNL     1      -8.613  -9.826  15.977  0.00  0.00    +0.231 C 
ATOM     36  H   UNL     1      -8.147  -8.408  17.428  0.00  0.00    +0.149 HD
BRANCH   6  26
ATOM     26  C   UNL     1     -10.255  -8.571  17.365  0.00  0.00    +0.178 C 
BRANCH  26  28
ATOM      3  O   UNL     1     -12.015  -9.298  18.875  0.00  0.00    -0.463 OA
ATOM     28  C   UNL     1     -10.725  -9.459  18.481  0.00  0.00    +0.122 A 
ATOM     30  C   UNL     1     -10.112 -10.441  19.224  0.00  0.00    +0.046 A 
ATOM     32  C   UNL     1     -12.229 -10.187  19.881  0.00  0.00    +0.102 A 
ATOM     33  C   UNL     1     -11.089 -10.914  20.133  0.00  0.00    +0.045 A 
ATOM     34  C   UNL     1     -13.575 -10.190  20.469  0.00  0.00    +0.086 C 
ENDBRANCH  26  28
ENDBRANCH   6  26
ENDBRANCH  11  19
BRANCH   8  12
ATOM     12  C   UNL     1      -5.187 -11.941  18.203  0.00  0.00    +0.026 C 
BRANCH  12  16
ATOM     16  C   UNL     1      -5.877 -11.620  19.533  0.00  0.00    -0.015 C 
ATOM     23  C   UNL     1      -6.213 -10.136  19.680  0.00  0.00    +0.007 C 
ATOM     24  C   UNL     1      -7.155 -12.455  19.653  0.00  0.00    +0.007 C 
ENDBRANCH  12  16
ENDBRANCH   8  12
BRANCH   5  21
ATOM     21  C   UNL     1      -2.772 -10.352  11.464  0.00  0.00    +0.180 C 
BRANCH  21  25
ATOM      2  O   UNL     1      -4.418  -8.944   8.579  0.00  0.00    -0.360 OA
ATOM      7  N   UNL     1      -3.705  -8.830   9.767  0.00  0.00    -0.081 NA
ATOM     25  C   UNL     1      -3.524 -10.086  10.183  0.00  0.00    +0.103 A 
ATOM     27  C   UNL     1      -4.095 -11.026   9.308  0.00  0.00    +0.072 A 
ATOM     29  C   UNL     1      -4.645 -10.257   8.317  0.00  0.00    +0.135 A 
ATOM     31  C   UNL     1      -5.390 -10.560   7.090  0.00  0.00    +0.089 C 
ENDBRANCH  21  25
ENDBRANCH   5  21
TORSDOF 7
ENDMDL
MODEL 4
REMARK VINA RESULT:      -7.7     27.576     30.402
REMARK  Name = 51138156
REMARK  11 active torsions:
REMARK  status: ('A' for Active; 'I' for Inactive)
REMARK    1  A    between atoms: N_5  and  C_21
REMARK    2  A    between atoms: N_6  and  C_26
REMARK    3  A    between atoms: C_8  and  C_12
REMARK    4  A    between atoms: C_11  and  C_19
REMARK    5  A    between atoms: C_12  and  C_16
REMARK    6  A    between atoms: C_16  and  C_23
REMARK    7  A    between atoms: C_16  and  C_24
REMARK    8  A    between atoms: C_21  and  C_25
REMARK    9  A    between atoms: C_26  and  C_28
REMARK   10  A    between atoms: C_29  and  C_31
REMARK   11  A    between atoms: C_32  and  C_34
REMARK                            x       y       z     vdW  Elec       q    Type
REMARK                         _______ _______ _______ _____ _____    ______ ____
ROOT
ATOM      4  N   UNL     1      13.852   9.015  18.442  0.00  0.00    -0.299 NA
ATOM      5  N   UNL     1      11.494  11.636  22.059  0.00  0.00    -0.340 N 
ATOM      8  C   UNL     1      12.940   8.064  19.092  0.00  0.00    +0.085 C 
ATOM      9  C   UNL     1      12.232   8.571  20.354  0.00  0.00    -0.021 A 
ATOM     10  C   UNL     1      12.123   9.938  20.740  0.00  0.00    +0.008 A 
ATOM     11  C   UNL     1      13.211  10.211  17.914  0.00  0.00    +0.145 C 
ATOM     13  C   UNL     1      12.562  11.178  20.161  0.00  0.00    -0.020 A 
ATOM     14  C   UNL     1      13.317  11.382  18.889  0.00  0.00    +0.065 C 
ATOM     15  C   UNL     1      11.436  10.270  21.914  0.00  0.00    +0.050 A 
ATOM     17  C   UNL     1      12.162  12.193  21.008  0.00  0.00    +0.091 A 
ATOM     18  C   UNL     1      11.562   7.632  21.178  0.00  0.00    +0.006 A 
ATOM     20  C   UNL     1      10.822   9.325  22.738  0.00  0.00    +0.026 A 
ATOM     22  C   UNL     1      10.886   7.996  22.341  0.00  0.00    +0.002 A 
ATOM     35  H   UNL     1      14.627   9.255  19.060  0.00  0.00    +0.123 HD
ENDROOT
BRANCH  11  19
ATOM      1  O   UNL     1      14.484   9.672  15.970  0.00  0.00    -0.274 OA
ATOM      6  N   UNL     1      14.020  11.907  16.430  0.00  0.00    -0.307 N 
ATOM     19  C   UNL     1      13.968  10.543  16.665  0.00  0.00    +0.231 C 
ATOM     36  H   UNL     1      13.535  12.540  17.059  0.00  0.00    +0.149 HD
BRANCH   6  26
ATOM     26  C   UNL     1      14.710  12.488  15.302  0.00  0.00    +0.178 C 
BRANCH  26  28
ATOM      3  O   UNL     1      17.006  11.869  14.803  0.00  0.00    -0.463 OA
ATOM     28  C   UNL     1      16.182  12.640  15.559  0.00  0.00    +0.122 A 
ATOM     30  C   UNL     1      16.910  13.419  16.427  0.00  0.00    +0.046 A 
ATOM     32  C   UNL     1      18.276  12.159  15.193  0.00  0.00    +0.102 A 
ATOM     33  C   UNL     1      18.270  13.107  16.190  0.00  0.00    +0.045 A 
ATOM     34  C   UNL     1      19.349  11.433  14.501  0.00  0.00    +0.086 C 
ENDBRANCH  26  28
ENDBRANCH   6  26
ENDBRANCH  11  19
BRANCH   8  12
ATOM     12  C   UNL     1      13.801   6.818  19.359  0.00  0.00    +0.026 C 
BRANCH  12  16
ATOM     16  C   UNL     1      15.213   7.160  19.846  0.00  0.00    -0.015 C 
ATOM     23  C   UNL     1      15.360   7.032  21.362  0.00  0.00    +0.007 C 
ATOM     24  C   UNL     1      16.223   6.245  19.149  0.00  0.00    +0.007 C 
ENDBRANCH  12  16
ENDBRANCH   8  12
BRANCH   5  21
ATOM     21  C   UNL     1      10.916  12.393  23.148  0.00  0.00    +0.180 C 
BRANCH  21  25
ATOM      2  O   UNL     1      12.978  12.238  26.104  0.00  0.00    -0.360 OA
ATOM      7  N   UNL     1      12.037  11.706  25.231  0.00  0.00    -0.081 NA
ATOM     25  C   UNL     1      11.879  12.634  24.285  0.00  0.00    +0.103 A 
ATOM     27  C   UNL     1      12.686  13.764  24.505  0.00  0.00    +0.072 A 
ATOM     29  C   UNL     1      13.357  13.465  25.661  0.00  0.00    +0.135 A 
ATOM     31  C   UNL     1      14.354  14.174  26.470  0.00  0.00    +0.089 C 
ENDBRANCH  21  25
ENDBRANCH   5  21
TORSDOF 7
ENDMDL
MODEL 5
REMARK VINA RESULT:      -7.6      2.987      6.128
REMARK  Name = 51138156
REMARK  11 active torsions:
REMARK  status: ('A' for Active; 'I' for Inactive)
REMARK    1  A    between atoms: N_5  and  C_21
REMARK    2  A    between atoms: N_6  and  C_26
REMARK    3  A    between atoms: C_8  and  C_12
REMARK    4  A    between atoms: C_11  and  C_19
REMARK    5  A    between atoms: C_12  and  C_16
REMARK    6  A    between atoms: C_16  and  C_23
REMARK    7  A    between atoms: C_16  and  C_24
REMARK    8  A    between atoms: C_21  and  C_25
REMARK    9  A    between atoms: C_26  and  C_28
REMARK   10  A    between atoms: C_29  and  C_31
REMARK   11  A    between atoms: C_32  and  C_34
REMARK                            x       y       z     vdW  Elec       q    Type
REMARK                         _______ _______ _______ _____ _____    ______ ____
ROOT
ATOM      4  N   UNL     1      -5.817 -10.963  13.688  0.00  0.00    -0.299 NA
ATOM      5  N   UNL     1      -7.206  -8.621   9.434  0.00  0.00    -0.340 N 
ATOM      8  C   UNL     1      -4.568 -10.525  13.049  0.00  0.00    +0.085 C 
ATOM      9  C   UNL     1      -4.707  -9.942  11.639  0.00  0.00    -0.021 A 
ATOM     10  C   UNL     1      -5.925  -9.489  11.055  0.00  0.00    +0.008 A 
ATOM     11  C   UNL     1      -6.776  -9.898  13.944  0.00  0.00    +0.145 C 
ATOM     13  C   UNL     1      -7.285  -9.409  11.514  0.00  0.00    -0.020 A 
ATOM     14  C   UNL     1      -7.830  -9.815  12.843  0.00  0.00    +0.065 C 
ATOM     15  C   UNL     1      -5.914  -8.963   9.757  0.00  0.00    +0.050 A 
ATOM     17  C   UNL     1      -8.037  -8.879  10.484  0.00  0.00    +0.091 A 
ATOM     18  C   UNL     1      -3.535  -9.758  10.862  0.00  0.00    +0.006 A 
ATOM     20  C   UNL     1      -4.754  -8.833   8.991  0.00  0.00    +0.026 A 
ATOM     22  C   UNL     1      -3.558  -9.230   9.573  0.00  0.00    +0.002 A 
ATOM     35  H   UNL     1      -6.245 -11.726  13.164  0.00  0.00    +0.123 HD
ENDROOT
BRANCH  11  19
ATOM      1  O   UNL     1      -8.124 -11.286  15.340  0.00  0.00    -0.274 OA
ATOM      6  N   UNL     1      -7.208  -9.340  16.232  0.00  0.00    -0.307 N 
ATOM     19  C   UNL     1      -7.441 -10.271  15.233  0.00  0.00    +0.231 C 
ATOM     36  H   UNL     1      -6.605  -8.545  16.042  0.00  0.00    +0.149 HD
BRANCH   6  26
ATOM     26  C   UNL     1      -7.757  -9.456  17.564  0.00  0.00    +0.178 C 
BRANCH  26  28
ATOM      3  O   UNL     1      -5.650 -10.593  17.981  0.00  0.00    -0.463 OA
ATOM     28  C   UNL     1      -6.880 -10.279  18.464  0.00  0.00    +0.122 A 
ATOM     30  C   UNL     1      -7.056 -10.807  19.721  0.00  0.00    +0.046 A 
ATOM     32  C   UNL     1      -5.032 -11.331  18.942  0.00  0.00    +0.102 A 
ATOM     33  C   UNL     1      -5.856 -11.490  20.032  0.00  0.00    +0.045 A 
ATOM     34  C   UNL     1      -3.670 -11.788  18.634  0.00  0.00    +0.086 C 
ENDBRANCH  26  28
ENDBRANCH   6  26
ENDBRANCH  11  19
BRANCH   8  12
ATOM     12  C   UNL     1      -3.656 -11.763  13.088  0.00  0.00    +0.026 C 
BRANCH  12  16
ATOM     16  C   UNL     1      -2.617 -11.704  14.213  0.00  0.00    -0.015 C 
ATOM     23  C   UNL     1      -1.541 -12.782  14.078  0.00  0.00    +0.007 C 
ATOM     24  C   UNL     1      -1.963 -10.320  14.223  0.00  0.00    +0.007 C 
ENDBRANCH  12  16
ENDBRANCH   8  12
BRANCH   5  21
ATOM     21  C   UNL     1      -7.637  -8.049   8.177  0.00  0.00    +0.180 C 
BRANCH  21  25
ATOM      2  O   UNL     1      -8.860  -4.672   8.509  0.00  0.00    -0.360 OA
ATOM      7  N   UNL     1      -7.839  -5.600   8.343  0.00  0.00    -0.081 NA
ATOM     25  C   UNL     1      -8.449  -6.788   8.341  0.00  0.00    +0.103 A 
ATOM     27  C   UNL     1      -9.841  -6.674   8.501  0.00  0.00    +0.072 A 
ATOM     29  C   UNL     1     -10.048  -5.324   8.602  0.00  0.00    +0.135 A 
ATOM     31  C   UNL     1     -11.241  -4.489   8.780  0.00  0.00    +0.089 C 
ENDBRANCH  21  25
ENDBRANCH   5  21
TORSDOF 7
ENDMDL
MODEL 6
REMARK VINA RESULT:      -7.6     19.480     22.678
REMARK  Name = 51138156
REMARK  11 active torsions:
REMARK  status: ('A' for Active; 'I' for Inactive)
REMARK    1  A    between atoms: N_5  and  C_21
REMARK    2  A    between atoms: N_6  and  C_26
REMARK    3  A    between atoms: C_8  and  C_12
REMARK    4  A    between atoms: C_11  and  C_19
REMARK    5  A    between atoms: C_12  and  C_16
REMARK    6  A    between atoms: C_16  and  C_23
REMARK    7  A    between atoms: C_16  and  C_24
REMARK    8  A    between atoms: C_21  and  C_25
REMARK    9  A    between atoms: C_26  and  C_28
REMARK   10  A    between atoms: C_29  and  C_31
REMARK   11  A    between atoms: C_32  and  C_34
REMARK                            x       y       z     vdW  Elec       q    Type
REMARK                         _______ _______ _______ _____ _____    ______ ____
ROOT
ATOM      4  N   UNL     1     -12.951   9.344  21.168  0.00  0.00    -0.299 NA
ATOM      5  N   UNL     1     -10.806  12.031  17.469  0.00  0.00    -0.340 N 
ATOM      8  C   UNL     1     -12.168   8.382  20.380  0.00  0.00    +0.085 C 
ATOM      9  C   UNL     1     -11.559   8.920  19.080  0.00  0.00    -0.021 A 
ATOM     10  C   UNL     1     -11.405  10.298  18.756  0.00  0.00    +0.008 A 
ATOM     11  C   UNL     1     -12.187  10.470  21.688  0.00  0.00    +0.145 C 
ATOM     13  C   UNL     1     -11.707  11.526  19.440  0.00  0.00    -0.020 A 
ATOM     14  C   UNL     1     -12.317  11.698  20.791  0.00  0.00    +0.065 C 
ATOM     15  C   UNL     1     -10.819  10.658  17.536  0.00  0.00    +0.050 A 
ATOM     17  C   UNL     1     -11.331  12.563  18.609  0.00  0.00    +0.091 A 
ATOM     18  C   UNL     1     -11.033   7.994  18.144  0.00  0.00    +0.006 A 
ATOM     20  C   UNL     1     -10.349   9.730  16.606  0.00  0.00    +0.026 A 
ATOM     22  C   UNL     1     -10.455   8.386  16.938  0.00  0.00    +0.002 A 
ATOM     35  H   UNL     1     -13.767   9.662  20.646  0.00  0.00    +0.123 HD
ENDROOT
BRANCH  11  19
ATOM      1  O   UNL     1     -13.833  10.234  23.400  0.00  0.00    -0.274 OA
ATOM      6  N   UNL     1     -12.066  11.714  23.731  0.00  0.00    -0.307 N 
ATOM     19  C   UNL     1     -12.794  10.771  23.024  0.00  0.00    +0.231 C 
ATOM     36  H   UNL     1     -11.204  12.077  23.335  0.00  0.00    +0.149 HD
BRANCH   6  26
ATOM     26  C   UNL     1     -12.452  12.194  25.037  0.00  0.00    +0.178 C 
BRANCH  26  28
ATOM      3  O   UNL     1     -12.577  11.370  27.320  0.00  0.00    -0.463 OA
ATOM     28  C   UNL     1     -11.909  11.328  26.138  0.00  0.00    +0.122 A 
ATOM     30  C   UNL     1     -10.841  10.466  26.217  0.00  0.00    +0.046 A 
ATOM     32  C   UNL     1     -11.928  10.525  28.164  0.00  0.00    +0.102 A 
ATOM     33  C   UNL     1     -10.852   9.944  27.532  0.00  0.00    +0.045 A 
ATOM     34  C   UNL     1     -12.481  10.409  29.520  0.00  0.00    +0.086 C 
ENDBRANCH  26  28
ENDBRANCH   6  26
ENDBRANCH  11  19
BRANCH   8  12
ATOM     12  C   UNL     1     -13.127   7.203  20.140  0.00  0.00    +0.026 C 
BRANCH  12  16
ATOM     16  C   UNL     1     -13.702   6.627  21.438  0.00  0.00    -0.015 C 
ATOM     23  C   UNL     1     -15.113   6.065  21.258  0.00  0.00    +0.007 C 
ATOM     24  C   UNL     1     -12.770   5.529  21.959  0.00  0.00    +0.007 C 
ENDBRANCH  12  16
ENDBRANCH   8  12
BRANCH   5  21
ATOM     21  C   UNL     1     -10.294  12.816  16.366  0.00  0.00    +0.180 C 
BRANCH  21  25
ATOM      2  O   UNL     1      -7.889  15.267  17.472  0.00  0.00    -0.360 OA
ATOM      7  N   UNL     1      -9.191  14.821  17.277  0.00  0.00    -0.081 NA
ATOM     25  C   UNL     1      -9.063  13.614  16.721  0.00  0.00    +0.103 A 
ATOM     27  C   UNL     1      -7.718  13.248  16.543  0.00  0.00    +0.072 A 
ATOM     29  C   UNL     1      -7.021  14.321  17.030  0.00  0.00    +0.135 A 
ATOM     31  C   UNL     1      -5.592  14.630  17.163  0.00  0.00    +0.089 C 
ENDBRANCH  21  25
ENDBRANCH   5  21
TORSDOF 7
ENDMDL
MODEL 7
REMARK VINA RESULT:      -7.6     26.976     29.615
REMARK  Name = 51138156
REMARK  11 active torsions:
REMARK  status: ('A' for Active; 'I' for Inactive)
REMARK    1  A    between atoms: N_5  and  C_21
REMARK    2  A    between atoms: N_6  and  C_26
REMARK    3  A    between atoms: C_8  and  C_12
REMARK    4  A    between atoms: C_11  and  C_19
REMARK    5  A    between atoms: C_12  and  C_16
REMARK    6  A    between atoms: C_16  and  C_23
REMARK    7  A    between atoms: C_16  and  C_24
REMARK    8  A    between atoms: C_21  and  C_25
REMARK    9  A    between atoms: C_26  and  C_28
REMARK   10  A    between atoms: C_29  and  C_31
REMARK   11  A    between atoms: C_32  and  C_34
REMARK                            x       y       z     vdW  Elec       q    Type
REMARK                         _______ _______ _______ _____ _____    ______ ____
ROOT
ATOM      4  N   UNL     1      14.094   9.318  18.719  0.00  0.00    -0.299 NA
ATOM      5  N   UNL     1      11.250  10.936  22.567  0.00  0.00    -0.340 N 
ATOM      8  C   UNL     1      13.176   8.212  19.029  0.00  0.00    +0.085 C 
ATOM      9  C   UNL     1      12.322   8.384  20.289  0.00  0.00    -0.021 A 
ATOM     10  C   UNL     1      12.099   9.617  20.967  0.00  0.00    +0.008 A 
ATOM     11  C   UNL     1      13.441  10.584  18.416  0.00  0.00    +0.145 C 
ATOM     13  C   UNL     1      12.523  10.973  20.742  0.00  0.00    -0.020 A 
ATOM     14  C   UNL     1      13.385  11.494  19.641  0.00  0.00    +0.065 C 
ATOM     15  C   UNL     1      11.284   9.641  22.105  0.00  0.00    +0.050 A 
ATOM     17  C   UNL     1      11.985  11.745  21.753  0.00  0.00    +0.091 A 
ATOM     18  C   UNL     1      11.628   7.257  20.797  0.00  0.00    +0.006 A 
ATOM     20  C   UNL     1      10.645   8.510  22.616  0.00  0.00    +0.026 A 
ATOM     22  C   UNL     1      10.822   7.315  21.933  0.00  0.00    +0.002 A 
ATOM     35  H   UNL     1      14.790   9.430  19.456  0.00  0.00    +0.123 HD
ENDROOT
BRANCH  11  19
ATOM      1  O   UNL     1      14.910  12.268  17.579  0.00  0.00    -0.274 OA
ATOM      6  N   UNL     1      14.279  10.522  16.174  0.00  0.00    -0.307 N 
ATOM     19  C   UNL     1      14.296  11.225  17.367  0.00  0.00    +0.231 C 
ATOM     36  H   UNL     1      13.755   9.653  16.115  0.00  0.00    +0.149 HD
BRANCH   6  26
ATOM     26  C   UNL     1      15.004  10.942  14.998  0.00  0.00    +0.178 C 
BRANCH  26  28
ATOM      3  O   UNL     1      12.933  11.437  13.828  0.00  0.00    -0.463 OA
ATOM     28  C   UNL     1      14.189  11.857  14.131  0.00  0.00    +0.122 A 
ATOM     30  C   UNL     1      14.443  13.078  13.550  0.00  0.00    +0.046 A 
ATOM     32  C   UNL     1      12.378  12.401  13.046  0.00  0.00    +0.102 A 
ATOM     33  C   UNL     1      13.268  13.431  12.845  0.00  0.00    +0.045 A 
ATOM     34  C   UNL     1      11.003  12.156  12.591  0.00  0.00    +0.086 C 
ENDBRANCH  26  28
ENDBRANCH   6  26
ENDBRANCH  11  19
BRANCH   8  12
ATOM     12  C   UNL     1      14.077   6.966  19.091  0.00  0.00    +0.026 C 
BRANCH  12  16
ATOM     16  C   UNL     1      15.427   7.237  19.763  0.00  0.00    -0.015 C 
ATOM     23  C   UNL     1      15.377   7.053  21.280  0.00  0.00    +0.007 C 
ATOM     24  C   UNL     1      16.484   6.306  19.164  0.00  0.00    +0.007 C 
ENDBRANCH  12  16
ENDBRANCH   8  12
BRANCH   5  21
ATOM     21  C   UNL     1      10.527  11.395  23.733  0.00  0.00    +0.180 C 
BRANCH  21  25
ATOM      2  O   UNL     1      11.924  13.885  25.939  0.00  0.00    -0.360 OA
ATOM      7  N   UNL     1      10.920  13.400  25.109  0.00  0.00    -0.081 NA
ATOM     25  C   UNL     1      11.371  12.222  24.672  0.00  0.00    +0.103 A 
ATOM     27  C   UNL     1      12.642  11.912  25.187  0.00  0.00    +0.072 A 
ATOM     29  C   UNL     1      12.945  12.990  25.977  0.00  0.00    +0.135 A 
ATOM     31  C   UNL     1      14.097  13.344  26.814  0.00  0.00    +0.089 C 
ENDBRANCH  21  25
ENDBRANCH   5  21
TORSDOF 7
ENDMDL
MODEL 8
REMARK VINA RESULT:      -7.4     27.238     29.798
REMARK  Name = 51138156
REMARK  11 active torsions:
REMARK  status: ('A' for Active; 'I' for Inactive)
REMARK    1  A    between atoms: N_5  and  C_21
REMARK    2  A    between atoms: N_6  and  C_26
REMARK    3  A    between atoms: C_8  and  C_12
REMARK    4  A    between atoms: C_11  and  C_19
REMARK    5  A    between atoms: C_12  and  C_16
REMARK    6  A    between atoms: C_16  and  C_23
REMARK    7  A    between atoms: C_16  and  C_24
REMARK    8  A    between atoms: C_21  and  C_25
REMARK    9  A    between atoms: C_26  and  C_28
REMARK   10  A    between atoms: C_29  and  C_31
REMARK   11  A    between atoms: C_32  and  C_34
REMARK                            x       y       z     vdW  Elec       q    Type
REMARK                         _______ _______ _______ _____ _____    ______ ____
ROOT
ATOM      4  N   UNL     1      14.045   8.979  18.008  0.00  0.00    -0.299 NA
ATOM      5  N   UNL     1      12.431  12.884  20.775  0.00  0.00    -0.340 N 
ATOM      8  C   UNL     1      13.017   8.433  18.906  0.00  0.00    +0.085 C 
ATOM      9  C   UNL     1      12.494   9.389  19.983  0.00  0.00    -0.021 A 
ATOM     10  C   UNL     1      12.658  10.803  19.975  0.00  0.00    +0.008 A 
ATOM     11  C   UNL     1      13.599  10.086  17.175  0.00  0.00    +0.145 C 
ATOM     13  C   UNL     1      13.278  11.732  19.069  0.00  0.00    -0.020 A 
ATOM     14  C   UNL     1      13.976  11.434  17.784  0.00  0.00    +0.065 C 
ATOM     15  C   UNL     1      12.118  11.567  21.016  0.00  0.00    +0.050 A 
ATOM     17  C   UNL     1      13.122  12.996  19.604  0.00  0.00    +0.091 A 
ATOM     18  C   UNL     1      11.717   8.855  21.043  0.00  0.00    +0.006 A 
ATOM     20  C   UNL     1      11.395  11.017  22.076  0.00  0.00    +0.026 A 
ATOM     22  C   UNL     1      11.192   9.644  22.065  0.00  0.00    +0.002 A 
ATOM     35  H   UNL     1      14.888   9.224  18.527  0.00  0.00    +0.123 HD
ENDROOT
BRANCH  11  19
ATOM      1  O   UNL     1      14.198   8.902  15.191  0.00  0.00    -0.274 OA
ATOM      6  N   UNL     1      15.136  10.998  15.581  0.00  0.00    -0.307 N 
ATOM     19  C   UNL     1      14.324   9.915  15.875  0.00  0.00    +0.231 C 
ATOM     36  H   UNL     1      15.146  11.798  16.206  0.00  0.00    +0.149 HD
BRANCH   6  26
ATOM     26  C   UNL     1      15.958  11.070  14.395  0.00  0.00    +0.178 C 
BRANCH  26  28
ATOM      3  O   UNL     1      14.338  11.610  12.665  0.00  0.00    -0.463 OA
ATOM     28  C   UNL     1      15.407  12.037  13.386  0.00  0.00    +0.122 A 
ATOM     30  C   UNL     1      15.762  13.313  13.016  0.00  0.00    +0.046 A 
ATOM     32  C   UNL     1      14.006  12.625  11.825  0.00  0.00    +0.102 A 
ATOM     33  C   UNL     1      14.852  13.695  12.002  0.00  0.00    +0.045 A 
ATOM     34  C   UNL     1      12.861  12.384  10.936  0.00  0.00    +0.086 C 
ENDBRANCH  26  28
ENDBRANCH   6  26
ENDBRANCH  11  19
BRANCH   8  12
ATOM     12  C   UNL     1      13.654   7.164  19.501  0.00  0.00    +0.026 C 
BRANCH  12  16
ATOM     16  C   UNL     1      15.072   7.400  20.032  0.00  0.00    -0.015 C 
ATOM     23  C   UNL     1      15.140   7.375  21.559  0.00  0.00    +0.007 C 
ATOM     24  C   UNL     1      16.010   6.336  19.455  0.00  0.00    +0.007 C 
ENDBRANCH  12  16
ENDBRANCH   8  12
BRANCH   5  21
ATOM     21  C   UNL     1      12.069  14.004  21.616  0.00  0.00    +0.180 C 
BRANCH  21  25
ATOM      2  O   UNL     1       8.983  15.401  20.377  0.00  0.00    -0.360 OA
ATOM      7  N   UNL     1      10.333  15.097  20.253  0.00  0.00    -0.081 NA
ATOM     25  C   UNL     1      10.656  14.486  21.395  0.00  0.00    +0.103 A 
ATOM     27  C   UNL     1       9.562  14.376  22.270  0.00  0.00    +0.072 A 
ATOM     29  C   UNL     1       8.535  14.967  21.583  0.00  0.00    +0.135 A 
ATOM     31  C   UNL     1       7.118  15.207  21.881  0.00  0.00    +0.089 C 
ENDBRANCH  21  25
ENDBRANCH   5  21
TORSDOF 7
ENDMDL
MODEL 9
REMARK VINA RESULT:      -7.3      2.987      5.242
REMARK  Name = 51138156
REMARK  11 active torsions:
REMARK  status: ('A' for Active; 'I' for Inactive)
REMARK    1  A    between atoms: N_5  and  C_21
REMARK    2  A    between atoms: N_6  and  C_26
REMARK    3  A    between atoms: C_8  and  C_12
REMARK    4  A    between atoms: C_11  and  C_19
REMARK    5  A    between atoms: C_12  and  C_16
REMARK    6  A    between atoms: C_16  and  C_23
REMARK    7  A    between atoms: C_16  and  C_24
REMARK    8  A    between atoms: C_21  and  C_25
REMARK    9  A    between atoms: C_26  and  C_28
REMARK   10  A    between atoms: C_29  and  C_31
REMARK   11  A    between atoms: C_32  and  C_34
REMARK                            x       y       z     vdW  Elec       q    Type
REMARK                         _______ _______ _______ _____ _____    ______ ____
ROOT
ATOM      4  N   UNL     1      -4.924 -10.697  13.673  0.00  0.00    -0.299 NA
ATOM      5  N   UNL     1      -7.632  -9.076   9.730  0.00  0.00    -0.340 N 
ATOM      8  C   UNL     1      -3.946 -10.189  12.700  0.00  0.00    +0.085 C 
ATOM      9  C   UNL     1      -4.507  -9.802  11.328  0.00  0.00    -0.021 A 
ATOM     10  C   UNL     1      -5.883  -9.577  11.038  0.00  0.00    +0.008 A 
ATOM     11  C   UNL     1      -5.941  -9.735  14.073  0.00  0.00    +0.145 C 
ATOM     13  C   UNL     1      -7.089  -9.610  11.821  0.00  0.00    -0.020 A 
ATOM     14  C   UNL     1      -7.230  -9.917  13.275  0.00  0.00    +0.065 C 
ATOM     15  C   UNL     1      -6.265  -9.214   9.740  0.00  0.00    +0.050 A 
ATOM     17  C   UNL     1      -8.137  -9.305  10.976  0.00  0.00    +0.091 A 
ATOM     18  C   UNL     1      -3.598  -9.571  10.265  0.00  0.00    +0.006 A 
ATOM     20  C   UNL     1      -5.357  -9.036   8.695  0.00  0.00    +0.026 A 
ATOM     22  C   UNL     1      -4.010  -9.209   8.983  0.00  0.00    +0.002 A 
ATOM     35  H   UNL     1      -5.347 -11.565  13.344  0.00  0.00    +0.123 HD
ENDROOT
BRANCH  11  19
ATOM      1  O   UNL     1      -5.509 -10.800  16.164  0.00  0.00    -0.274 OA
ATOM      6  N   UNL     1      -7.329  -9.359  15.988  0.00  0.00    -0.307 N 
ATOM     19  C   UNL     1      -6.212 -10.029  15.516  0.00  0.00    +0.231 C 
ATOM     36  H   UNL     1      -7.826  -8.723  15.371  0.00  0.00    +0.149 HD
BRANCH   6  26
ATOM     26  C   UNL     1      -7.816  -9.488  17.341  0.00  0.00    +0.178 C 
BRANCH  26  28
ATOM      3  O   UNL     1      -9.783  -8.333  16.505  0.00  0.00    -0.463 OA
ATOM     28  C   UNL     1      -9.281  -9.174  17.445  0.00  0.00    +0.122 A 
ATOM     30  C   UNL     1     -10.267  -9.566  18.320  0.00  0.00    +0.046 A 
ATOM     32  C   UNL     1     -11.106  -8.186  16.780  0.00  0.00    +0.102 A 
ATOM     33  C   UNL     1     -11.452  -8.924  17.888  0.00  0.00    +0.045 A 
ATOM     34  C   UNL     1     -11.863  -7.306  15.880  0.00  0.00    +0.086 C 
ENDBRANCH  26  28
ENDBRANCH   6  26
ENDBRANCH  11  19
BRANCH   8  12
ATOM     12  C   UNL     1      -2.876 -11.291  12.612  0.00  0.00    +0.026 C 
BRANCH  12  16
ATOM     16  C   UNL     1      -2.352 -11.726  13.984  0.00  0.00    -0.015 C 
ATOM     23  C   UNL     1      -1.408 -12.926  13.900  0.00  0.00    +0.007 C 
ATOM     24  C   UNL     1      -1.633 -10.547  14.646  0.00  0.00    +0.007 C 
ENDBRANCH  12  16
ENDBRANCH   8  12
BRANCH   5  21
ATOM     21  C   UNL     1      -8.435  -8.718   8.581  0.00  0.00    +0.180 C 
BRANCH  21  25
ATOM      2  O   UNL     1      -8.740  -5.131   8.337  0.00  0.00    -0.360 OA
ATOM      7  N   UNL     1      -8.022  -6.316   8.221  0.00  0.00    -0.081 NA
ATOM     25  C   UNL     1      -8.877  -7.275   8.586  0.00  0.00    +0.103 A 
ATOM     27  C   UNL     1     -10.136  -6.761   8.940  0.00  0.00    +0.072 A 
ATOM     29  C   UNL     1      -9.997  -5.410   8.767  0.00  0.00    +0.135 A 
ATOM     31  C   UNL     1     -10.897  -4.264   8.944  0.00  0.00    +0.089 C 
ENDBRANCH  21  25
ENDBRANCH   5  21
TORSDOF 7
ENDMDL
MODEL 10
REMARK VINA RESULT:      -7.1     18.740     21.020
REMARK  Name = 51138156
REMARK  11 active torsions:
REMARK  status: ('A' for Active; 'I' for Inactive)
REMARK    1  A    between atoms: N_5  and  C_21
REMARK    2  A    between atoms: N_6  and  C_26
REMARK    3  A    between atoms: C_8  and  C_12
REMARK    4  A    between atoms: C_11  and  C_19
REMARK    5  A    between atoms: C_12  and  C_16
REMARK    6  A    between atoms: C_16  and  C_23
REMARK    7  A    between atoms: C_16  and  C_24
REMARK    8  A    between atoms: C_21  and  C_25
REMARK    9  A    between atoms: C_26  and  C_28
REMARK   10  A    between atoms: C_29  and  C_31
REMARK   11  A    between atoms: C_32  and  C_34
REMARK                            x       y       z     vdW  Elec       q    Type
REMARK                         _______ _______ _______ _____ _____    ______ ____
ROOT
ATOM      4  N   UNL     1     -14.791   7.368  23.114  0.00  0.00    -0.299 NA
ATOM      5  N   UNL     1     -11.064   8.788  20.015  0.00  0.00    -0.340 N 
ATOM      8  C   UNL     1     -15.050   8.780  22.801  0.00  0.00    +0.085 C 
ATOM      9  C   UNL     1     -13.951   9.504  22.015  0.00  0.00    -0.021 A 
ATOM     10  C   UNL     1     -12.902   8.864  21.294  0.00  0.00    +0.008 A 
ATOM     11  C   UNL     1     -14.691   6.496  21.952  0.00  0.00    +0.145 C 
ATOM     13  C   UNL     1     -12.543   7.492  21.058  0.00  0.00    -0.020 A 
ATOM     14  C   UNL     1     -13.236   6.265  21.548  0.00  0.00    +0.065 C 
ATOM     15  C   UNL     1     -11.966   9.643  20.604  0.00  0.00    +0.050 A 
ATOM     17  C   UNL     1     -11.405   7.493  20.276  0.00  0.00    +0.091 A 
ATOM     18  C   UNL     1     -14.005  10.918  21.920  0.00  0.00    +0.006 A 
ATOM     20  C   UNL     1     -12.009  11.037  20.561  0.00  0.00    +0.026 A 
ATOM     22  C   UNL     1     -13.056  11.664  21.223  0.00  0.00    +0.002 A 
ATOM     35  H   UNL     1     -13.975   7.272  23.718  0.00  0.00    +0.123 HD
ENDROOT
BRANCH  11  19
ATOM      1  O   UNL     1     -16.010   4.532  21.640  0.00  0.00    -0.274 OA
ATOM      6  N   UNL     1     -14.961   4.872  23.690  0.00  0.00    -0.307 N 
ATOM     19  C   UNL     1     -15.292   5.195  22.385  0.00  0.00    +0.231 C 
ATOM     36  H   UNL     1     -14.338   5.481  24.211  0.00  0.00    +0.149 HD
BRANCH   6  26
ATOM     26  C   UNL     1     -15.433   3.678  24.354  0.00  0.00    +0.178 C 
BRANCH  26  28
ATOM      3  O   UNL     1     -15.877   3.277  26.709  0.00  0.00    -0.463 OA
ATOM     28  C   UNL     1     -16.203   3.996  25.603  0.00  0.00    +0.122 A 
ATOM     30  C   UNL     1     -17.207   4.891  25.887  0.00  0.00    +0.046 A 
ATOM     32  C   UNL     1     -16.683   3.718  27.711  0.00  0.00    +0.102 A 
ATOM     33  C   UNL     1     -17.519   4.710  27.256  0.00  0.00    +0.045 A 
ATOM     34  C   UNL     1     -16.505   3.072  29.019  0.00  0.00    +0.086 C 
ENDBRANCH  26  28
ENDBRANCH   6  26
ENDBRANCH  11  19
BRANCH   8  12
ATOM     12  C   UNL     1     -15.329   9.436  24.165  0.00  0.00    +0.026 C 
BRANCH  12  16
ATOM     16  C   UNL     1     -16.705  10.106  24.235  0.00  0.00    -0.015 C 
ATOM     23  C   UNL     1     -17.792   9.167  24.760  0.00  0.00    +0.007 C 
ATOM     24  C   UNL     1     -16.617  11.347  25.129  0.00  0.00    +0.007 C 
ENDBRANCH  12  16
ENDBRANCH   8  12
BRANCH   5  21
ATOM     21  C   UNL     1      -9.926   9.184  19.214  0.00  0.00    +0.180 C 
BRANCH  21  25
ATOM      2  O   UNL     1     -10.501  10.029  15.754  0.00  0.00    -0.360 OA
ATOM      7  N   UNL     1     -10.200  10.363  17.069  0.00  0.00    -0.081 NA
ATOM     25  C   UNL     1     -10.217   9.205  17.733  0.00  0.00    +0.103 A 
ATOM     27  C   UNL     1     -10.519   8.115  16.899  0.00  0.00    +0.072 A 
ATOM     29  C   UNL     1     -10.689   8.687  15.666  0.00  0.00    +0.135 A 
ATOM     31  C   UNL     1     -11.016   8.158  14.337  0.00  0.00    +0.089 C 
ENDBRANCH  21  25
ENDBRANCH   5  21
TORSDOF 7
ENDMDL
