MODEL 1
REMARK VINA RESULT:      -7.7      0.000      0.000
REMARK  Name = 7674792
REMARK  4 active torsions:
REMARK  status: ('A' for Active; 'I' for Inactive)
REMARK    1  A    between atoms: O_3  and  C_27
REMARK    2  A    between atoms: O_3  and  C_35
REMARK    3  A    between atoms: N_6  and  C_23
REMARK    4  A    between atoms: C_14  and  C_19
REMARK                            x       y       z     vdW  Elec       q    Type
REMARK                         _______ _______ _______ _____ _____    ______ ____
ROOT
ATOM      1  O   UNL     1      -8.073 -14.502  17.599  0.00  0.00    -0.268 OA
ATOM      2  O   UNL     1      -9.054  -9.572  18.203  0.00  0.00    -0.252 OA
ATOM      4  N   UNL     1      -6.541 -12.809  17.079  0.00  0.00    -0.311 N 
ATOM      5  N   UNL     1      -6.845  -9.716  17.540  0.00  0.00    -0.284 N 
ATOM      6  N   UNL     1      -8.531  -9.204  15.973  0.00  0.00    -0.266 N 
ATOM      7  C   UNL     1      -5.526 -11.314  18.901  0.00  0.00    +0.027 C 
ATOM      8  C   UNL     1      -4.940 -10.947  16.537  0.00  0.00    +0.054 C 
ATOM      9  C   UNL     1      -4.358 -11.182  17.932  0.00  0.00    +0.018 C 
ATOM     10  C   UNL     1      -6.331 -12.556  18.512  0.00  0.00    +0.130 C 
ATOM     11  C   UNL     1      -6.393 -10.041  18.893  0.00  0.00    +0.114 C 
ATOM     12  C   UNL     1      -5.762  -9.642  16.548  0.00  0.00    +0.119 C 
ATOM     13  C   UNL     1      -5.814 -12.120  16.086  0.00  0.00    +0.034 A 
ATOM     14  C   UNL     1      -5.931 -12.489  14.784  0.00  0.00    +0.002 A 
ATOM     15  C   UNL     1      -7.425 -13.858  16.772  0.00  0.00    +0.252 A 
ATOM     16  C   UNL     1      -8.217  -9.486  17.302  0.00  0.00    +0.307 C 
ATOM     17  C   UNL     1      -6.837 -13.564  14.430  0.00  0.00    +0.015 A 
ATOM     18  C   UNL     1      -7.561 -14.213  15.342  0.00  0.00    +0.071 A 
ATOM     36  H   UNL     1      -7.928  -9.570  15.246  0.00  0.00    +0.156 HD
ENDROOT
BRANCH  14  19
ATOM     19  C   UNL     1      -5.170 -11.810  13.712  0.00  0.00    -0.016 A 
ATOM     20  C   UNL     1      -5.761 -10.773  12.995  0.00  0.00    +0.017 A 
ATOM     21  C   UNL     1      -3.871 -12.211  13.429  0.00  0.00    +0.009 A 
ATOM     22  C   UNL     1      -5.052 -10.118  11.975  0.00  0.00    -0.017 A 
ATOM     24  C   UNL     1      -3.152 -11.572  12.418  0.00  0.00    +0.009 A 
ATOM     25  C   UNL     1      -3.727 -10.524  11.682  0.00  0.00    -0.018 A 
ATOM     26  C   UNL     1      -5.627  -9.070  11.238  0.00  0.00    +0.008 A 
ATOM     29  C   UNL     1      -3.019  -9.869  10.662  0.00  0.00    +0.008 A 
ATOM     30  C   UNL     1      -4.909  -8.431  10.228  0.00  0.00    +0.001 A 
ATOM     31  C   UNL     1      -3.607  -8.830   9.940  0.00  0.00    +0.001 A 
ENDBRANCH  14  19
BRANCH   6  23
ATOM     23  C   UNL     1      -9.653  -8.484  15.492  0.00  0.00    +0.077 A 
ATOM     27  C   UNL     1     -10.413  -8.982  14.437  0.00  0.00    +0.141 A 
ATOM     28  C   UNL     1      -9.988  -7.270  16.088  0.00  0.00    +0.027 A 
ATOM     32  C   UNL     1     -11.515  -8.263  13.975  0.00  0.00    +0.047 A 
ATOM     33  C   UNL     1     -11.090  -6.551  15.625  0.00  0.00    +0.002 A 
ATOM     34  C   UNL     1     -11.854  -7.048  14.569  0.00  0.00    +0.004 A 
BRANCH  27   3
ATOM      3  O   UNL     1     -10.098 -10.168  13.842  0.00  0.00    -0.493 OA
ATOM     35  C   UNL     1      -9.472 -10.102  12.562  0.00  0.00    +0.277 C 
ENDBRANCH  27   3
ENDBRANCH   6  23
TORSDOF 3
ENDMDL
MODEL 2
REMARK VINA RESULT:      -7.5     24.926     28.454
REMARK  Name = 7674792
REMARK  4 active torsions:
REMARK  status: ('A' for Active; 'I' for Inactive)
REMARK    1  A    between atoms: O_3  and  C_27
REMARK    2  A    between atoms: O_3  and  C_35
REMARK    3  A    between atoms: N_6  and  C_23
REMARK    4  A    between atoms: C_14  and  C_19
REMARK                            x       y       z     vdW  Elec       q    Type
REMARK                         _______ _______ _______ _____ _____    ______ ____
ROOT
ATOM      1  O   UNL     1       7.055   9.251   4.716  0.00  0.00    -0.268 OA
ATOM      2  O   UNL     1      11.236  10.077   7.451  0.00  0.00    -0.252 OA
ATOM      4  N   UNL     1       8.646   7.594   5.174  0.00  0.00    -0.311 N 
ATOM      5  N   UNL     1      11.202   7.814   6.988  0.00  0.00    -0.284 N 
ATOM      6  N   UNL     1      12.529   9.275   5.699  0.00  0.00    -0.266 N 
ATOM      7  C   UNL     1       9.042   6.739   7.560  0.00  0.00    +0.027 C 
ATOM      8  C   UNL     1      10.389   5.859   5.695  0.00  0.00    +0.054 C 
ATOM      9  C   UNL     1       9.490   5.459   6.867  0.00  0.00    +0.018 C 
ATOM     10  C   UNL     1       8.196   7.546   6.573  0.00  0.00    +0.130 C 
ATOM     11  C   UNL     1      10.254   7.541   8.069  0.00  0.00    +0.114 C 
ATOM     12  C   UNL     1      11.616   6.617   6.239  0.00  0.00    +0.119 C 
ATOM     13  C   UNL     1       9.639   6.723   4.679  0.00  0.00    +0.034 A 
ATOM     14  C   UNL     1       9.917   6.700   3.350  0.00  0.00    +0.002 A 
ATOM     15  C   UNL     1       7.940   8.481   4.341  0.00  0.00    +0.252 A 
ATOM     16  C   UNL     1      11.643   9.135   6.767  0.00  0.00    +0.307 C 
ATOM     17  C   UNL     1       9.213   7.605   2.462  0.00  0.00    +0.015 A 
ATOM     18  C   UNL     1       8.291   8.461   2.904  0.00  0.00    +0.071 A 
ATOM     36  H   UNL     1      12.479   8.607   4.940  0.00  0.00    +0.156 HD
ENDROOT
BRANCH  14  19
ATOM     19  C   UNL     1      10.935   5.788   2.785  0.00  0.00    -0.016 A 
ATOM     20  C   UNL     1      12.182   6.285   2.419  0.00  0.00    +0.017 A 
ATOM     21  C   UNL     1      10.639   4.441   2.623  0.00  0.00    +0.009 A 
ATOM     22  C   UNL     1      13.160   5.430   1.881  0.00  0.00    -0.017 A 
ATOM     24  C   UNL     1      11.597   3.578   2.090  0.00  0.00    +0.009 A 
ATOM     25  C   UNL     1      12.862   4.056   1.714  0.00  0.00    -0.018 A 
ATOM     26  C   UNL     1      14.425   5.909   1.505  0.00  0.00    +0.008 A 
ATOM     29  C   UNL     1      13.838   3.203   1.175  0.00  0.00    +0.008 A 
ATOM     30  C   UNL     1      15.384   5.047   0.972  0.00  0.00    +0.001 A 
ATOM     31  C   UNL     1      15.090   3.696   0.807  0.00  0.00    +0.001 A 
ENDBRANCH  14  19
BRANCH   6  23
ATOM     23  C   UNL     1      13.491  10.298   5.512  0.00  0.00    +0.077 A 
ATOM     27  C   UNL     1      14.799  10.130   5.959  0.00  0.00    +0.141 A 
ATOM     28  C   UNL     1      13.113  11.477   4.872  0.00  0.00    +0.027 A 
ATOM     32  C   UNL     1      15.735  11.146   5.766  0.00  0.00    +0.047 A 
ATOM     33  C   UNL     1      14.050  12.493   4.680  0.00  0.00    +0.002 A 
ATOM     34  C   UNL     1      15.361  12.327   5.127  0.00  0.00    +0.004 A 
BRANCH  27   3
ATOM      3  O   UNL     1      15.184   8.984   6.588  0.00  0.00    -0.493 OA
ATOM     35  C   UNL     1      15.984   8.072   5.838  0.00  0.00    +0.277 C 
ENDBRANCH  27   3
ENDBRANCH   6  23
TORSDOF 3
ENDMDL
MODEL 3
REMARK VINA RESULT:      -7.4     28.294     30.394
REMARK  Name = 7674792
REMARK  4 active torsions:
REMARK  status: ('A' for Active; 'I' for Inactive)
REMARK    1  A    between atoms: O_3  and  C_27
REMARK    2  A    between atoms: O_3  and  C_35
REMARK    3  A    between atoms: N_6  and  C_23
REMARK    4  A    between atoms: C_14  and  C_19
REMARK                            x       y       z     vdW  Elec       q    Type
REMARK                         _______ _______ _______ _____ _____    ______ ____
ROOT
ATOM      1  O   UNL     1      16.364   7.573  21.547  0.00  0.00    -0.268 OA
ATOM      2  O   UNL     1      14.457   8.251  16.906  0.00  0.00    -0.252 OA
ATOM      4  N   UNL     1      14.156   8.241  21.145  0.00  0.00    -0.311 N 
ATOM      5  N   UNL     1      12.699   8.543  18.377  0.00  0.00    -0.284 N 
ATOM      6  N   UNL     1      13.833  10.408  17.487  0.00  0.00    -0.266 N 
ATOM      7  C   UNL     1      12.471   6.681  19.998  0.00  0.00    +0.027 C 
ATOM      8  C   UNL     1      11.797   8.958  20.650  0.00  0.00    +0.054 C 
ATOM      9  C   UNL     1      11.432   7.478  20.775  0.00  0.00    +0.018 C 
ATOM     10  C   UNL     1      13.831   6.887  20.670  0.00  0.00    +0.130 C 
ATOM     11  C   UNL     1      12.491   7.101  18.517  0.00  0.00    +0.114 C 
ATOM     12  C   UNL     1      11.762   9.361  19.162  0.00  0.00    +0.119 C 
ATOM     13  C   UNL     1      13.176   9.250  21.246  0.00  0.00    +0.034 A 
ATOM     14  C   UNL     1      13.486  10.437  21.828  0.00  0.00    +0.002 A 
ATOM     15  C   UNL     1      15.475   8.423  21.597  0.00  0.00    +0.252 A 
ATOM     16  C   UNL     1      13.718   9.019  17.525  0.00  0.00    +0.307 C 
ATOM     17  C   UNL     1      14.838  10.662  22.303  0.00  0.00    +0.015 A 
ATOM     18  C   UNL     1      15.794   9.739  22.193  0.00  0.00    +0.071 A 
ATOM     36  H   UNL     1      13.538  10.939  18.298  0.00  0.00    +0.156 HD
ENDROOT
BRANCH  14  19
ATOM     19  C   UNL     1      12.485  11.516  21.977  0.00  0.00    -0.016 A 
ATOM     20  C   UNL     1      12.368  12.491  20.990  0.00  0.00    +0.017 A 
ATOM     21  C   UNL     1      11.668  11.548  23.099  0.00  0.00    +0.009 A 
ATOM     22  C   UNL     1      11.422  13.522  21.116  0.00  0.00    -0.017 A 
ATOM     24  C   UNL     1      10.723  12.565  23.241  0.00  0.00    +0.009 A 
ATOM     25  C   UNL     1      10.587  13.559  22.259  0.00  0.00    -0.018 A 
ATOM     26  C   UNL     1      11.286  14.516  20.134  0.00  0.00    +0.008 A 
ATOM     29  C   UNL     1       9.642  14.589  22.385  0.00  0.00    +0.008 A 
ATOM     30  C   UNL     1      10.341  15.532  20.275  0.00  0.00    +0.001 A 
ATOM     31  C   UNL     1       9.521  15.569  21.399  0.00  0.00    +0.001 A 
ENDBRANCH  14  19
BRANCH   6  23
ATOM     23  C   UNL     1      14.375  11.195  16.441  0.00  0.00    +0.077 A 
ATOM     27  C   UNL     1      15.487  12.003  16.666  0.00  0.00    +0.141 A 
ATOM     28  C   UNL     1      13.782  11.151  15.181  0.00  0.00    +0.027 A 
ATOM     32  C   UNL     1      16.009  12.771  15.625  0.00  0.00    +0.047 A 
ATOM     33  C   UNL     1      14.304  11.919  14.141  0.00  0.00    +0.002 A 
ATOM     34  C   UNL     1      15.418  12.729  14.363  0.00  0.00    +0.004 A 
BRANCH  27   3
ATOM      3  O   UNL     1      16.078  12.059  17.893  0.00  0.00    -0.493 OA
ATOM     35  C   UNL     1      16.697  13.291  18.257  0.00  0.00    +0.277 C 
ENDBRANCH  27   3
ENDBRANCH   6  23
TORSDOF 3
ENDMDL
MODEL 4
REMARK VINA RESULT:      -7.4     24.398     28.565
REMARK  Name = 7674792
REMARK  4 active torsions:
REMARK  status: ('A' for Active; 'I' for Inactive)
REMARK    1  A    between atoms: O_3  and  C_27
REMARK    2  A    between atoms: O_3  and  C_35
REMARK    3  A    between atoms: N_6  and  C_23
REMARK    4  A    between atoms: C_14  and  C_19
REMARK                            x       y       z     vdW  Elec       q    Type
REMARK                         _______ _______ _______ _____ _____    ______ ____
ROOT
ATOM      1  O   UNL     1       9.152  10.897   1.188  0.00  0.00    -0.268 OA
ATOM      2  O   UNL     1      12.986   7.916  -0.247  0.00  0.00    -0.252 OA
ATOM      4  N   UNL     1      10.495   9.709   2.693  0.00  0.00    -0.311 N 
ATOM      5  N   UNL     1      13.028   7.960   2.063  0.00  0.00    -0.284 N 
ATOM      6  N   UNL     1      12.038   6.151   0.922  0.00  0.00    -0.266 N 
ATOM      7  C   UNL     1      12.984  10.258   2.992  0.00  0.00    +0.027 C 
ATOM      8  C   UNL     1      11.969   8.408   4.261  0.00  0.00    +0.054 C 
ATOM      9  C   UNL     1      12.787   9.694   4.392  0.00  0.00    +0.018 C 
ATOM     10  C   UNL     1      11.610  10.630   2.429  0.00  0.00    +0.130 C 
ATOM     11  C   UNL     1      13.720   9.249   2.091  0.00  0.00    +0.114 C 
ATOM     12  C   UNL     1      12.752   7.400   3.396  0.00  0.00    +0.119 C 
ATOM     13  C   UNL     1      10.592   8.676   3.649  0.00  0.00    +0.034 A 
ATOM     14  C   UNL     1       9.494   7.944   3.968  0.00  0.00    +0.002 A 
ATOM     15  C   UNL     1       9.297   9.999   2.018  0.00  0.00    +0.252 A 
ATOM     16  C   UNL     1      12.712   7.367   0.823  0.00  0.00    +0.307 C 
ATOM     17  C   UNL     1       8.241   8.213   3.288  0.00  0.00    +0.015 A 
ATOM     18  C   UNL     1       8.125   9.161   2.358  0.00  0.00    +0.071 A 
ATOM     36  H   UNL     1      11.471   5.978   1.744  0.00  0.00    +0.156 HD
ENDROOT
BRANCH  14  19
ATOM     19  C   UNL     1       9.544   6.867   4.980  0.00  0.00    -0.016 A 
ATOM     20  C   UNL     1       9.307   7.164   6.319  0.00  0.00    +0.017 A 
ATOM     21  C   UNL     1       9.826   5.565   4.587  0.00  0.00    +0.009 A 
ATOM     22  C   UNL     1       9.350   6.152   7.292  0.00  0.00    -0.017 A 
ATOM     24  C   UNL     1       9.874   4.547   5.540  0.00  0.00    +0.009 A 
ATOM     25  C   UNL     1       9.639   4.823   6.896  0.00  0.00    -0.018 A 
ATOM     26  C   UNL     1       9.115   6.428   8.649  0.00  0.00    +0.008 A 
ATOM     29  C   UNL     1       9.682   3.812   7.869  0.00  0.00    +0.008 A 
ATOM     30  C   UNL     1       9.162   5.411   9.601  0.00  0.00    +0.001 A 
ATOM     31  C   UNL     1       9.446   4.105   9.212  0.00  0.00    +0.001 A 
ENDBRANCH  14  19
BRANCH   6  23
ATOM     23  C   UNL     1      12.005   5.108  -0.037  0.00  0.00    +0.077 A 
ATOM     27  C   UNL     1      13.104   4.272  -0.211  0.00  0.00    +0.141 A 
ATOM     28  C   UNL     1      10.856   4.927  -0.805  0.00  0.00    +0.027 A 
ATOM     32  C   UNL     1      13.056   3.249  -1.159  0.00  0.00    +0.047 A 
ATOM     33  C   UNL     1      10.808   3.905  -1.752  0.00  0.00    +0.002 A 
ATOM     34  C   UNL     1      11.908   3.066  -1.929  0.00  0.00    +0.004 A 
BRANCH  27   3
ATOM      3  O   UNL     1      14.236   4.436   0.531  0.00  0.00    -0.493 OA
ATOM     35  C   UNL     1      14.432   3.535   1.619  0.00  0.00    +0.277 C 
ENDBRANCH  27   3
ENDBRANCH   6  23
TORSDOF 3
ENDMDL
MODEL 5
REMARK VINA RESULT:      -6.9     25.747     28.098
REMARK  Name = 7674792
REMARK  4 active torsions:
REMARK  status: ('A' for Active; 'I' for Inactive)
REMARK    1  A    between atoms: O_3  and  C_27
REMARK    2  A    between atoms: O_3  and  C_35
REMARK    3  A    between atoms: N_6  and  C_23
REMARK    4  A    between atoms: C_14  and  C_19
REMARK                            x       y       z     vdW  Elec       q    Type
REMARK                         _______ _______ _______ _____ _____    ______ ____
ROOT
ATOM      1  O   UNL     1      16.403 -10.718  27.525  0.00  0.00    -0.268 OA
ATOM      2  O   UNL     1      18.171  -7.287  30.802  0.00  0.00    -0.252 OA
ATOM      4  N   UNL     1      17.887  -9.008  26.927  0.00  0.00    -0.311 N 
ATOM      5  N   UNL     1      19.261  -6.894  28.803  0.00  0.00    -0.284 N 
ATOM      6  N   UNL     1      17.400  -5.588  29.425  0.00  0.00    -0.266 N 
ATOM      7  C   UNL     1      20.285  -8.935  27.838  0.00  0.00    +0.027 C 
ATOM      8  C   UNL     1      19.479  -7.151  26.345  0.00  0.00    +0.054 C 
ATOM      9  C   UNL     1      20.591  -8.180  26.552  0.00  0.00    +0.018 C 
ATOM     10  C   UNL     1      18.972  -9.696  27.644  0.00  0.00    +0.130 C 
ATOM     11  C   UNL     1      20.220  -7.973  29.039  0.00  0.00    +0.114 C 
ATOM     12  C   UNL     1      19.470  -6.173  27.537  0.00  0.00    +0.119 C 
ATOM     13  C   UNL     1      18.111  -7.821  26.199  0.00  0.00    +0.034 A 
ATOM     14  C   UNL     1      17.118  -7.302  25.431  0.00  0.00    +0.002 A 
ATOM     15  C   UNL     1      16.648  -9.673  26.921  0.00  0.00    +0.252 A 
ATOM     16  C   UNL     1      18.268  -6.623  29.767  0.00  0.00    +0.307 C 
ATOM     17  C   UNL     1      15.825  -7.959  25.405  0.00  0.00    +0.015 A 
ATOM     18  C   UNL     1      15.574  -9.064  26.106  0.00  0.00    +0.071 A 
ATOM     36  H   UNL     1      17.242  -5.395  28.443  0.00  0.00    +0.156 HD
ENDROOT
BRANCH  14  19
ATOM     19  C   UNL     1      17.315  -6.072  24.634  0.00  0.00    -0.016 A 
ATOM     20  C   UNL     1      16.950  -4.838  25.164  0.00  0.00    +0.017 A 
ATOM     21  C   UNL     1      17.863  -6.157  23.361  0.00  0.00    +0.009 A 
ATOM     22  C   UNL     1      17.131  -3.661  24.419  0.00  0.00    -0.017 A 
ATOM     24  C   UNL     1      18.049  -4.998  22.606  0.00  0.00    +0.009 A 
ATOM     25  C   UNL     1      17.689  -3.743  23.120  0.00  0.00    -0.018 A 
ATOM     26  C   UNL     1      16.770  -2.405  24.934  0.00  0.00    +0.008 A 
ATOM     29  C   UNL     1      17.869  -2.566  22.376  0.00  0.00    +0.008 A 
ATOM     30  C   UNL     1      16.956  -1.246  24.180  0.00  0.00    +0.001 A 
ATOM     31  C   UNL     1      17.505  -1.327  22.903  0.00  0.00    +0.001 A 
ENDBRANCH  14  19
BRANCH   6  23
ATOM     23  C   UNL     1      16.648  -4.772  30.307  0.00  0.00    +0.077 A 
ATOM     27  C   UNL     1      17.101  -3.503  30.658  0.00  0.00    +0.141 A 
ATOM     28  C   UNL     1      15.445  -5.255  30.818  0.00  0.00    +0.027 A 
ATOM     32  C   UNL     1      16.349  -2.713  31.526  0.00  0.00    +0.047 A 
ATOM     33  C   UNL     1      14.693  -4.464  31.687  0.00  0.00    +0.002 A 
ATOM     34  C   UNL     1      15.145  -3.192  32.041  0.00  0.00    +0.004 A 
BRANCH  27   3
ATOM      3  O   UNL     1      18.277  -3.017  30.167  0.00  0.00    -0.493 OA
ATOM     35  C   UNL     1      18.541  -1.631  30.379  0.00  0.00    +0.277 C 
ENDBRANCH  27   3
ENDBRANCH   6  23
TORSDOF 3
ENDMDL
MODEL 6
REMARK VINA RESULT:      -6.9     25.933     28.068
REMARK  Name = 7674792
REMARK  4 active torsions:
REMARK  status: ('A' for Active; 'I' for Inactive)
REMARK    1  A    between atoms: O_3  and  C_27
REMARK    2  A    between atoms: O_3  and  C_35
REMARK    3  A    between atoms: N_6  and  C_23
REMARK    4  A    between atoms: C_14  and  C_19
REMARK                            x       y       z     vdW  Elec       q    Type
REMARK                         _______ _______ _______ _____ _____    ______ ____
ROOT
ATOM      1  O   UNL     1      16.416 -10.328  28.105  0.00  0.00    -0.268 OA
ATOM      2  O   UNL     1      18.539  -6.759  31.002  0.00  0.00    -0.252 OA
ATOM      4  N   UNL     1      17.896  -8.711  27.282  0.00  0.00    -0.311 N 
ATOM      5  N   UNL     1      19.476  -6.530  28.902  0.00  0.00    -0.284 N 
ATOM      6  N   UNL     1      17.709  -5.125  29.580  0.00  0.00    -0.266 N 
ATOM      7  C   UNL     1      20.361  -8.662  27.996  0.00  0.00    +0.027 C 
ATOM      8  C   UNL     1      19.489  -6.949  26.457  0.00  0.00    +0.054 C 
ATOM      9  C   UNL     1      20.584  -8.000  26.643  0.00  0.00    +0.018 C 
ATOM     10  C   UNL     1      19.014  -9.389  27.956  0.00  0.00    +0.130 C 
ATOM     11  C   UNL     1      20.420  -7.624  29.132  0.00  0.00    +0.114 C 
ATOM     12  C   UNL     1      19.604  -5.898  27.579  0.00  0.00    +0.119 C 
ATOM     13  C   UNL     1      18.095  -7.581  26.462  0.00  0.00    +0.034 A 
ATOM     14  C   UNL     1      17.059  -7.078  25.742  0.00  0.00    +0.002 A 
ATOM     15  C   UNL     1      16.642  -9.333  27.417  0.00  0.00    +0.252 A 
ATOM     16  C   UNL     1      18.571  -6.166  29.921  0.00  0.00    +0.307 C 
ATOM     17  C   UNL     1      15.750  -7.690  25.860  0.00  0.00    +0.015 A 
ATOM     18  C   UNL     1      15.524  -8.740  26.650  0.00  0.00    +0.071 A 
ATOM     36  H   UNL     1      17.478  -4.989  28.603  0.00  0.00    +0.156 HD
ENDROOT
BRANCH  14  19
ATOM     19  C   UNL     1      17.227  -5.908  24.853  0.00  0.00    -0.016 A 
ATOM     20  C   UNL     1      16.918  -4.634  25.320  0.00  0.00    +0.017 A 
ATOM     21  C   UNL     1      17.691  -6.089  23.557  0.00  0.00    +0.009 A 
ATOM     22  C   UNL     1      17.072  -3.513  24.487  0.00  0.00    -0.017 A 
ATOM     24  C   UNL     1      17.850  -4.987  22.715  0.00  0.00    +0.009 A 
ATOM     25  C   UNL     1      17.545  -3.692  23.165  0.00  0.00    -0.018 A 
ATOM     26  C   UNL     1      16.766  -2.217  24.937  0.00  0.00    +0.008 A 
ATOM     29  C   UNL     1      17.698  -2.572  22.333  0.00  0.00    +0.008 A 
ATOM     30  C   UNL     1      16.925  -1.116  24.097  0.00  0.00    +0.001 A 
ATOM     31  C   UNL     1      17.390  -1.293  22.797  0.00  0.00    +0.001 A 
ENDBRANCH  14  19
BRANCH   6  23
ATOM     23  C   UNL     1      17.054  -4.230  30.463  0.00  0.00    +0.077 A 
ATOM     27  C   UNL     1      15.732  -4.450  30.841  0.00  0.00    +0.141 A 
ATOM     28  C   UNL     1      17.750  -3.126  30.951  0.00  0.00    +0.027 A 
ATOM     32  C   UNL     1      15.101  -3.561  31.711  0.00  0.00    +0.047 A 
ATOM     33  C   UNL     1      17.118  -2.237  31.820  0.00  0.00    +0.002 A 
ATOM     34  C   UNL     1      15.794  -2.455  32.200  0.00  0.00    +0.004 A 
BRANCH  27   3
ATOM      3  O   UNL     1      15.037  -5.525  30.371  0.00  0.00    -0.493 OA
ATOM     35  C   UNL     1      13.766  -5.783  30.967  0.00  0.00    +0.277 C 
ENDBRANCH  27   3
ENDBRANCH   6  23
TORSDOF 3
ENDMDL
MODEL 7
REMARK VINA RESULT:      -6.8     24.599     28.889
REMARK  Name = 7674792
REMARK  4 active torsions:
REMARK  status: ('A' for Active; 'I' for Inactive)
REMARK    1  A    between atoms: O_3  and  C_27
REMARK    2  A    between atoms: O_3  and  C_35
REMARK    3  A    between atoms: N_6  and  C_23
REMARK    4  A    between atoms: C_14  and  C_19
REMARK                            x       y       z     vdW  Elec       q    Type
REMARK                         _______ _______ _______ _____ _____    ______ ____
ROOT
ATOM      1  O   UNL     1      10.165  10.763   0.320  0.00  0.00    -0.268 OA
ATOM      2  O   UNL     1      13.311   7.095  -1.192  0.00  0.00    -0.252 OA
ATOM      4  N   UNL     1      11.357   9.394   1.800  0.00  0.00    -0.311 N 
ATOM      5  N   UNL     1      13.493   7.196   1.109  0.00  0.00    -0.284 N 
ATOM      6  N   UNL     1      12.130   5.565   0.090  0.00  0.00    -0.266 N 
ATOM      7  C   UNL     1      13.917   9.490   1.949  0.00  0.00    +0.027 C 
ATOM      8  C   UNL     1      12.660   7.892   3.339  0.00  0.00    +0.054 C 
ATOM      9  C   UNL     1      13.702   9.011   3.379  0.00  0.00    +0.018 C 
ATOM     10  C   UNL     1      12.603  10.090   1.444  0.00  0.00    +0.130 C 
ATOM     11  C   UNL     1      14.406   8.338   1.052  0.00  0.00    +0.114 C 
ATOM     12  C   UNL     1      13.198   6.734   2.474  0.00  0.00    +0.119 C 
ATOM     13  C   UNL     1      11.321   8.388   2.788  0.00  0.00    +0.034 A 
ATOM     14  C   UNL     1      10.129   7.878   3.191  0.00  0.00    +0.002 A 
ATOM     15  C   UNL     1      10.193   9.878   1.176  0.00  0.00    +0.252 A 
ATOM     16  C   UNL     1      13.005   6.635  -0.090  0.00  0.00    +0.307 C 
ATOM     17  C   UNL     1       8.908   8.350   2.566  0.00  0.00    +0.015 A 
ATOM     18  C   UNL     1       8.911   9.277   1.608  0.00  0.00    +0.071 A 
ATOM     36  H   UNL     1      11.589   5.523   0.946  0.00  0.00    +0.156 HD
ENDROOT
BRANCH  14  19
ATOM     19  C   UNL     1      10.042   6.839   4.240  0.00  0.00    -0.016 A 
ATOM     20  C   UNL     1       9.851   7.211   5.568  0.00  0.00    +0.017 A 
ATOM     21  C   UNL     1      10.151   5.499   3.893  0.00  0.00    +0.009 A 
ATOM     22  C   UNL     1       9.766   6.235   6.575  0.00  0.00    -0.017 A 
ATOM     24  C   UNL     1      10.069   4.516   4.881  0.00  0.00    +0.009 A 
ATOM     25  C   UNL     1       9.877   4.868   6.226  0.00  0.00    -0.018 A 
ATOM     26  C   UNL     1       9.574   6.587   7.922  0.00  0.00    +0.008 A 
ATOM     29  C   UNL     1       9.793   3.893   7.233  0.00  0.00    +0.008 A 
ATOM     30  C   UNL     1       9.492   5.605   8.909  0.00  0.00    +0.001 A 
ATOM     31  C   UNL     1       9.601   4.261   8.565  0.00  0.00    +0.001 A 
ENDBRANCH  14  19
BRANCH   6  23
ATOM     23  C   UNL     1      11.855   4.519  -0.825  0.00  0.00    +0.077 A 
ATOM     27  C   UNL     1      10.757   4.596  -1.678  0.00  0.00    +0.141 A 
ATOM     28  C   UNL     1      12.698   3.411  -0.863  0.00  0.00    +0.027 A 
ATOM     32  C   UNL     1      10.501   3.557  -2.574  0.00  0.00    +0.047 A 
ATOM     33  C   UNL     1      12.441   2.373  -1.758  0.00  0.00    +0.002 A 
ATOM     34  C   UNL     1      11.342   2.447  -2.614  0.00  0.00    +0.004 A 
BRANCH  27   3
ATOM      3  O   UNL     1       9.921   5.672  -1.653  0.00  0.00    -0.493 OA
ATOM     35  C   UNL     1      10.014   6.588  -2.743  0.00  0.00    +0.277 C 
ENDBRANCH  27   3
ENDBRANCH   6  23
TORSDOF 3
ENDMDL
MODEL 8
REMARK VINA RESULT:      -6.7     25.630     28.814
REMARK  Name = 7674792
REMARK  4 active torsions:
REMARK  status: ('A' for Active; 'I' for Inactive)
REMARK    1  A    between atoms: O_3  and  C_27
REMARK    2  A    between atoms: O_3  and  C_35
REMARK    3  A    between atoms: N_6  and  C_23
REMARK    4  A    between atoms: C_14  and  C_19
REMARK                            x       y       z     vdW  Elec       q    Type
REMARK                         _______ _______ _______ _____ _____    ______ ____
ROOT
ATOM      1  O   UNL     1      15.347   7.098  -0.499  0.00  0.00    -0.268 OA
ATOM      2  O   UNL     1      11.255   5.004  -2.624  0.00  0.00    -0.252 OA
ATOM      4  N   UNL     1      13.790   5.814   0.689  0.00  0.00    -0.311 N 
ATOM      5  N   UNL     1      11.297   4.267  -0.434  0.00  0.00    -0.284 N 
ATOM      6  N   UNL     1       9.911   6.068  -1.061  0.00  0.00    -0.266 N 
ATOM      7  C   UNL     1      13.485   3.308   0.226  0.00  0.00    +0.027 C 
ATOM      8  C   UNL     1      12.084   4.429   1.912  0.00  0.00    +0.054 C 
ATOM      9  C   UNL     1      13.027   3.248   1.677  0.00  0.00    +0.018 C 
ATOM     10  C   UNL     1      14.288   4.596   0.032  0.00  0.00    +0.130 C 
ATOM     11  C   UNL     1      12.283   3.229  -0.734  0.00  0.00    +0.114 C 
ATOM     12  C   UNL     1      10.868   4.297   0.973  0.00  0.00    +0.119 C 
ATOM     13  C   UNL     1      12.789   5.768   1.682  0.00  0.00    +0.034 A 
ATOM     14  C   UNL     1      12.465   6.894   2.368  0.00  0.00    +0.002 A 
ATOM     15  C   UNL     1      14.457   7.003   0.347  0.00  0.00    +0.252 A 
ATOM     16  C   UNL     1      10.834   5.107  -1.469  0.00  0.00    +0.307 C 
ATOM     17  C   UNL     1      13.129   8.141   2.039  0.00  0.00    +0.015 A 
ATOM     18  C   UNL     1      14.057   8.223   1.084  0.00  0.00    +0.071 A 
ATOM     36  H   UNL     1       9.941   6.389  -0.101  0.00  0.00    +0.156 HD
ENDROOT
BRANCH  14  19
ATOM     19  C   UNL     1      11.438   6.888   3.432  0.00  0.00    -0.016 A 
ATOM     20  C   UNL     1      11.810   6.639   4.750  0.00  0.00    +0.017 A 
ATOM     21  C   UNL     1      10.110   7.132   3.110  0.00  0.00    +0.009 A 
ATOM     22  C   UNL     1      10.846   6.630   5.773  0.00  0.00    -0.017 A 
ATOM     24  C   UNL     1       9.139   7.126   4.112  0.00  0.00    +0.009 A 
ATOM     25  C   UNL     1       9.490   6.877   5.448  0.00  0.00    -0.018 A 
ATOM     26  C   UNL     1      11.198   6.381   7.110  0.00  0.00    +0.008 A 
ATOM     29  C   UNL     1       8.528   6.868   6.470  0.00  0.00    +0.008 A 
ATOM     30  C   UNL     1      10.228   6.376   8.112  0.00  0.00    +0.001 A 
ATOM     31  C   UNL     1       8.895   6.619   7.793  0.00  0.00    +0.001 A 
ENDBRANCH  14  19
BRANCH   6  23
ATOM     23  C   UNL     1       8.932   6.710  -1.860  0.00  0.00    +0.077 A 
ATOM     27  C   UNL     1       8.678   8.071  -1.710  0.00  0.00    +0.141 A 
ATOM     28  C   UNL     1       8.226   5.963  -2.801  0.00  0.00    +0.027 A 
ATOM     32  C   UNL     1       7.711   8.689  -2.504  0.00  0.00    +0.047 A 
ATOM     33  C   UNL     1       7.260   6.581  -3.594  0.00  0.00    +0.002 A 
ATOM     34  C   UNL     1       7.003   7.944  -3.446  0.00  0.00    +0.004 A 
BRANCH  27   3
ATOM      3  O   UNL     1       9.359   8.816  -0.793  0.00  0.00    -0.493 OA
ATOM     35  C   UNL     1       8.615   9.312   0.318  0.00  0.00    +0.277 C 
ENDBRANCH  27   3
ENDBRANCH   6  23
TORSDOF 3
ENDMDL
MODEL 9
REMARK VINA RESULT:      -6.7     24.934     28.394
REMARK  Name = 7674792
REMARK  4 active torsions:
REMARK  status: ('A' for Active; 'I' for Inactive)
REMARK    1  A    between atoms: O_3  and  C_27
REMARK    2  A    between atoms: O_3  and  C_35
REMARK    3  A    between atoms: N_6  and  C_23
REMARK    4  A    between atoms: C_14  and  C_19
REMARK                            x       y       z     vdW  Elec       q    Type
REMARK                         _______ _______ _______ _____ _____    ______ ____
ROOT
ATOM      1  O   UNL     1      10.149  10.322   8.819  0.00  0.00    -0.268 OA
ATOM      2  O   UNL     1      12.931   6.795   6.482  0.00  0.00    -0.252 OA
ATOM      4  N   UNL     1       9.301   8.894   7.168  0.00  0.00    -0.311 N 
ATOM      5  N   UNL     1      10.767   6.522   5.720  0.00  0.00    -0.284 N 
ATOM      6  N   UNL     1      12.346   7.706   4.430  0.00  0.00    -0.266 N 
ATOM      7  C   UNL     1       9.105   6.365   7.553  0.00  0.00    +0.027 C 
ATOM      8  C   UNL     1       8.447   7.337   5.388  0.00  0.00    +0.054 C 
ATOM      9  C   UNL     1       7.972   6.449   6.539  0.00  0.00    +0.018 C 
ATOM     10  C   UNL     1       9.351   7.768   8.112  0.00  0.00    +0.130 C 
ATOM     11  C   UNL     1      10.373   5.770   6.911  0.00  0.00    +0.114 C 
ATOM     12  C   UNL     1       9.687   6.692   4.735  0.00  0.00    +0.119 C 
ATOM     13  C   UNL     1       8.776   8.753   5.866  0.00  0.00    +0.034 A 
ATOM     14  C   UNL     1       8.610   9.848   5.081  0.00  0.00    +0.002 A 
ATOM     15  C   UNL     1       9.700  10.138   7.687  0.00  0.00    +0.252 A 
ATOM     16  C   UNL     1      12.093   6.987   5.598  0.00  0.00    +0.307 C 
ATOM     17  C   UNL     1       9.015  11.147   5.582  0.00  0.00    +0.015 A 
ATOM     18  C   UNL     1       9.543  11.309   6.796  0.00  0.00    +0.071 A 
ATOM     36  H   UNL     1      11.577   8.196   3.989  0.00  0.00    +0.156 HD
ENDROOT
BRANCH  14  19
ATOM     19  C   UNL     1       8.043   9.750   3.719  0.00  0.00    -0.016 A 
ATOM     20  C   UNL     1       6.666   9.842   3.535  0.00  0.00    +0.017 A 
ATOM     21  C   UNL     1       8.888   9.567   2.632  0.00  0.00    +0.009 A 
ATOM     22  C   UNL     1       6.112   9.751   2.247  0.00  0.00    -0.017 A 
ATOM     24  C   UNL     1       8.355   9.474   1.345  0.00  0.00    +0.009 A 
ATOM     25  C   UNL     1       6.970   9.564   1.136  0.00  0.00    -0.018 A 
ATOM     26  C   UNL     1       4.726   9.841   2.037  0.00  0.00    +0.008 A 
ATOM     29  C   UNL     1       6.416   9.473  -0.151  0.00  0.00    +0.008 A 
ATOM     30  C   UNL     1       4.193   9.748   0.751  0.00  0.00    +0.001 A 
ATOM     31  C   UNL     1       5.037   9.564  -0.341  0.00  0.00    +0.001 A 
ENDBRANCH  14  19
BRANCH   6  23
ATOM     23  C   UNL     1      13.595   7.883   3.786  0.00  0.00    +0.077 A 
ATOM     27  C   UNL     1      14.422   8.951   4.126  0.00  0.00    +0.141 A 
ATOM     28  C   UNL     1      13.990   6.973   2.807  0.00  0.00    +0.027 A 
ATOM     32  C   UNL     1      15.649   9.111   3.483  0.00  0.00    +0.047 A 
ATOM     33  C   UNL     1      15.217   7.134   2.164  0.00  0.00    +0.002 A 
ATOM     34  C   UNL     1      16.047   8.203   2.503  0.00  0.00    +0.004 A 
BRANCH  27   3
ATOM      3  O   UNL     1      14.050   9.851   5.081  0.00  0.00    -0.493 OA
ATOM     35  C   UNL     1      14.829   9.884   6.276  0.00  0.00    +0.277 C 
ENDBRANCH  27   3
ENDBRANCH   6  23
TORSDOF 3
ENDMDL
MODEL 10
REMARK VINA RESULT:      -6.7     26.280     29.283
REMARK  Name = 7674792
REMARK  4 active torsions:
REMARK  status: ('A' for Active; 'I' for Inactive)
REMARK    1  A    between atoms: O_3  and  C_27
REMARK    2  A    between atoms: O_3  and  C_35
REMARK    3  A    between atoms: N_6  and  C_23
REMARK    4  A    between atoms: C_14  and  C_19
REMARK                            x       y       z     vdW  Elec       q    Type
REMARK                         _______ _______ _______ _____ _____    ______ ____
ROOT
ATOM      1  O   UNL     1      18.135  -0.416  31.128  0.00  0.00    -0.268 OA
ATOM      2  O   UNL     1      20.286  -1.100  26.596  0.00  0.00    -0.252 OA
ATOM      4  N   UNL     1      18.873  -2.498  30.352  0.00  0.00    -0.311 N 
ATOM      5  N   UNL     1      20.396  -3.138  27.679  0.00  0.00    -0.284 N 
ATOM      6  N   UNL     1      18.699  -2.718  26.097  0.00  0.00    -0.266 N 
ATOM      7  C   UNL     1      21.363  -2.976  29.956  0.00  0.00    +0.027 C 
ATOM      8  C   UNL     1      19.681  -4.707  29.463  0.00  0.00    +0.054 C 
ATOM      9  C   UNL     1      20.975  -4.423  30.229  0.00  0.00    +0.018 C 
ATOM     10  C   UNL     1      20.269  -2.072  30.529  0.00  0.00    +0.130 C 
ATOM     11  C   UNL     1      21.573  -2.739  28.449  0.00  0.00    +0.114 C 
ATOM     12  C   UNL     1      19.936  -4.509  27.955  0.00  0.00    +0.119 C 
ATOM     13  C   UNL     1      18.539  -3.803  29.931  0.00  0.00    +0.034 A 
ATOM     14  C   UNL     1      17.240  -4.199  29.924  0.00  0.00    +0.002 A 
ATOM     15  C   UNL     1      17.899  -1.560  30.740  0.00  0.00    +0.252 A 
ATOM     16  C   UNL     1      19.827  -2.234  26.758  0.00  0.00    +0.307 C 
ATOM     17  C   UNL     1      16.209  -3.257  30.313  0.00  0.00    +0.015 A 
ATOM     18  C   UNL     1      16.490  -2.008  30.686  0.00  0.00    +0.071 A 
ATOM     36  H   UNL     1      18.132  -3.418  26.560  0.00  0.00    +0.156 HD
ENDROOT
BRANCH  14  19
ATOM     19  C   UNL     1      16.846  -5.564  29.513  0.00  0.00    -0.016 A 
ATOM     20  C   UNL     1      16.547  -5.825  28.178  0.00  0.00    +0.017 A 
ATOM     21  C   UNL     1      16.778  -6.577  30.460  0.00  0.00    +0.009 A 
ATOM     22  C   UNL     1      16.172  -7.116  27.772  0.00  0.00    -0.017 A 
ATOM     24  C   UNL     1      16.407  -7.866  30.074  0.00  0.00    +0.009 A 
ATOM     25  C   UNL     1      16.100  -8.152  28.734  0.00  0.00    -0.018 A 
ATOM     26  C   UNL     1      15.865  -7.402  26.431  0.00  0.00    +0.008 A 
ATOM     29  C   UNL     1      15.725  -9.442  28.328  0.00  0.00    +0.008 A 
ATOM     30  C   UNL     1      15.494  -8.690  26.045  0.00  0.00    +0.001 A 
ATOM     31  C   UNL     1      15.424  -9.708  26.992  0.00  0.00    +0.001 A 
ENDBRANCH  14  19
BRANCH   6  23
ATOM     23  C   UNL     1      18.200  -2.304  24.837  0.00  0.00    +0.077 A 
ATOM     27  C   UNL     1      18.529  -3.007  23.681  0.00  0.00    +0.141 A 
ATOM     28  C   UNL     1      17.372  -1.186  24.768  0.00  0.00    +0.027 A 
ATOM     32  C   UNL     1      18.030  -2.588  22.448  0.00  0.00    +0.047 A 
ATOM     33  C   UNL     1      16.873  -0.767  23.535  0.00  0.00    +0.002 A 
ATOM     34  C   UNL     1      17.201  -1.469  22.374  0.00  0.00    +0.004 A 
BRANCH  27   3
ATOM      3  O   UNL     1      19.339  -4.103  23.731  0.00  0.00    -0.493 OA
ATOM     35  C   UNL     1      18.765  -5.349  23.342  0.00  0.00    +0.277 C 
ENDBRANCH  27   3
ENDBRANCH   6  23
TORSDOF 3
ENDMDL
