MODEL 1
REMARK VINA RESULT:      -6.2      0.000      0.000
REMARK  Name = 75536951
REMARK  6 active torsions:
REMARK  status: ('A' for Active; 'I' for Inactive)
REMARK    1  A    between atoms: O_2  and  C_6
REMARK    2  A    between atoms: N_3  and  C_8
REMARK    3  A    between atoms: N_4  and  C_14
REMARK    4  A    between atoms: N_4  and  C_17
REMARK    5  A    between atoms: N_4  and  C_18
REMARK    6  A    between atoms: C_8  and  C_11
REMARK                            x       y       z     vdW  Elec       q    Type
REMARK                         _______ _______ _______ _____ _____    ______ ____
ROOT
ATOM      8  C   UNL     1      14.593   7.749  18.804  0.00  0.00    +0.119 C 
ENDROOT
BRANCH   8   3
ATOM      1  O   UNL     1      10.913   8.884  21.197  0.00  0.00    -0.376 OA
ATOM      3  N   UNL     1      13.529   7.934  19.791  0.00  0.00    -0.293 NA
ATOM      5  C   UNL     1      13.024   6.631  20.237  0.00  0.00    +0.118 C 
ATOM      6  C   UNL     1      11.668   6.597  20.959  0.00  0.00    +0.154 C 
ATOM      7  C   UNL     1      12.495   8.847  19.299  0.00  0.00    +0.113 C 
ATOM      9  C   UNL     1      11.431   7.765  21.907  0.00  0.00    +0.192 C 
ATOM     10  C   UNL     1      11.884   9.621  20.468  0.00  0.00    +0.175 C 
BRANCH   6   2
ATOM      2  O   UNL     1      11.600   5.391  21.722  0.00  0.00    -0.388 OA
ATOM     19  H   UNL     1      12.234   5.473  22.455  0.00  0.00    +0.210 HD
ENDBRANCH   6   2
ENDBRANCH   8   3
BRANCH   8  11
ATOM     11  C   UNL     1      15.895   7.357  19.451  0.00  0.00    -0.033 A 
ATOM     12  C   UNL     1      16.566   6.208  19.031  0.00  0.00    +0.007 A 
ATOM     13  C   UNL     1      16.432   8.143  20.471  0.00  0.00    +0.007 A 
ATOM     14  C   UNL     1      18.308   6.631  20.650  0.00  0.00    +0.029 A 
ATOM     15  C   UNL     1      17.771   5.845  19.630  0.00  0.00    +0.023 A 
ATOM     16  C   UNL     1      17.638   7.780  21.071  0.00  0.00    +0.023 A 
BRANCH  14   4
ATOM      4  N   UNL     1      19.528   6.265  21.256  0.00  0.00    -0.336 N 
ATOM     17  C   UNL     1      20.450   5.379  20.571  0.00  0.00    +0.129 C 
ATOM     18  C   UNL     1      19.873   6.763  22.572  0.00  0.00    +0.129 C 
ENDBRANCH  14   4
ENDBRANCH   8  11
TORSDOF 4
ENDMDL
MODEL 2
REMARK VINA RESULT:      -5.7     28.999     30.814
REMARK  Name = 75536951
REMARK  6 active torsions:
REMARK  status: ('A' for Active; 'I' for Inactive)
REMARK    1  A    between atoms: O_2  and  C_6
REMARK    2  A    between atoms: N_3  and  C_8
REMARK    3  A    between atoms: N_4  and  C_14
REMARK    4  A    between atoms: N_4  and  C_17
REMARK    5  A    between atoms: N_4  and  C_18
REMARK    6  A    between atoms: C_8  and  C_11
REMARK                            x       y       z     vdW  Elec       q    Type
REMARK                         _______ _______ _______ _____ _____    ______ ____
ROOT
ATOM      8  C   UNL     1       1.088   0.769  -5.146  0.00  0.00    +0.119 C 
ENDROOT
BRANCH   8   3
ATOM      1  O   UNL     1      -2.051   0.532  -8.410  0.00  0.00    -0.376 OA
ATOM      3  N   UNL     1      -0.105   0.589  -5.974  0.00  0.00    -0.293 NA
ATOM      5  C   UNL     1      -0.625  -0.774  -5.819  0.00  0.00    +0.118 C 
ATOM      6  C   UNL     1      -1.617  -1.288  -6.874  0.00  0.00    +0.154 C 
ATOM      7  C   UNL     1       0.140   0.988  -7.361  0.00  0.00    +0.113 C 
ATOM      9  C   UNL     1      -2.614  -0.244  -7.359  0.00  0.00    +0.192 C 
ATOM     10  C   UNL     1      -1.146   1.540  -7.980  0.00  0.00    +0.175 C 
BRANCH   6   2
ATOM      2  O   UNL     1      -2.355  -2.369  -6.302  0.00  0.00    -0.388 OA
ATOM     19  H   UNL     1      -3.239  -2.032  -6.078  0.00  0.00    +0.210 HD
ENDBRANCH   6   2
ENDBRANCH   8   3
BRANCH   8  11
ATOM     11  C   UNL     1       1.494   2.216  -5.056  0.00  0.00    -0.033 A 
ATOM     12  C   UNL     1       0.627   3.150  -4.487  0.00  0.00    +0.007 A 
ATOM     13  C   UNL     1       2.737   2.624  -5.540  0.00  0.00    +0.007 A 
ATOM     14  C   UNL     1       2.246   4.898  -4.888  0.00  0.00    +0.029 A 
ATOM     15  C   UNL     1       1.003   4.490  -4.403  0.00  0.00    +0.023 A 
ATOM     16  C   UNL     1       3.113   3.965  -5.455  0.00  0.00    +0.023 A 
BRANCH  14   4
ATOM      4  N   UNL     1       2.627   6.253  -4.801  0.00  0.00    -0.336 N 
ATOM     17  C   UNL     1       3.984   6.612  -4.439  0.00  0.00    +0.129 C 
ATOM     18  C   UNL     1       1.665   7.304  -5.067  0.00  0.00    +0.129 C 
ENDBRANCH  14   4
ENDBRANCH   8  11
TORSDOF 4
ENDMDL
MODEL 3
REMARK VINA RESULT:      -5.4      3.779      7.461
REMARK  Name = 75536951
REMARK  6 active torsions:
REMARK  status: ('A' for Active; 'I' for Inactive)
REMARK    1  A    between atoms: O_2  and  C_6
REMARK    2  A    between atoms: N_3  and  C_8
REMARK    3  A    between atoms: N_4  and  C_14
REMARK    4  A    between atoms: N_4  and  C_17
REMARK    5  A    between atoms: N_4  and  C_18
REMARK    6  A    between atoms: C_8  and  C_11
REMARK                            x       y       z     vdW  Elec       q    Type
REMARK                         _______ _______ _______ _____ _____    ______ ____
ROOT
ATOM      8  C   UNL     1      11.473   8.661  22.125  0.00  0.00    +0.119 C 
ENDROOT
BRANCH   8   3
ATOM      1  O   UNL     1      15.023   7.575  19.521  0.00  0.00    -0.376 OA
ATOM      3  N   UNL     1      12.453   8.441  21.061  0.00  0.00    -0.293 NA
ATOM      5  C   UNL     1      11.820   7.762  19.925  0.00  0.00    +0.118 C 
ATOM      6  C   UNL     1      12.737   7.096  18.887  0.00  0.00    +0.154 C 
ATOM      7  C   UNL     1      13.655   7.777  21.570  0.00  0.00    +0.113 C 
ATOM      9  C   UNL     1      14.005   7.879  18.574  0.00  0.00    +0.192 C 
ATOM     10  C   UNL     1      14.879   8.232  20.773  0.00  0.00    +0.175 C 
BRANCH   6   2
ATOM      2  O   UNL     1      12.000   6.949  17.672  0.00  0.00    -0.388 OA
ATOM     19  H   UNL     1      12.605   7.149  16.937  0.00  0.00    +0.210 HD
ENDBRANCH   6   2
ENDBRANCH   8   3
BRANCH   8  11
ATOM     11  C   UNL     1      11.307  10.125  22.440  0.00  0.00    -0.033 A 
ATOM     12  C   UNL     1      10.914  10.524  23.717  0.00  0.00    +0.007 A 
ATOM     13  C   UNL     1      11.547  11.081  21.453  0.00  0.00    +0.007 A 
ATOM     14  C   UNL     1      11.001  12.836  23.021  0.00  0.00    +0.029 A 
ATOM     15  C   UNL     1      10.761  11.879  24.008  0.00  0.00    +0.023 A 
ATOM     16  C   UNL     1      11.394  12.437  21.744  0.00  0.00    +0.023 A 
BRANCH  14   4
ATOM      4  N   UNL     1      10.847  14.207  23.316  0.00  0.00    -0.336 N 
ATOM     17  C   UNL     1      11.337  15.215  22.396  0.00  0.00    +0.129 C 
ATOM     18  C   UNL     1      10.203  14.625  24.545  0.00  0.00    +0.129 C 
ENDBRANCH  14   4
ENDBRANCH   8  11
TORSDOF 4
ENDMDL
MODEL 4
REMARK VINA RESULT:      -5.4      1.998      3.039
REMARK  Name = 75536951
REMARK  6 active torsions:
REMARK  status: ('A' for Active; 'I' for Inactive)
REMARK    1  A    between atoms: O_2  and  C_6
REMARK    2  A    between atoms: N_3  and  C_8
REMARK    3  A    between atoms: N_4  and  C_14
REMARK    4  A    between atoms: N_4  and  C_17
REMARK    5  A    between atoms: N_4  and  C_18
REMARK    6  A    between atoms: C_8  and  C_11
REMARK                            x       y       z     vdW  Elec       q    Type
REMARK                         _______ _______ _______ _____ _____    ______ ____
ROOT
ATOM      8  C   UNL     1      15.508   8.295  21.344  0.00  0.00    +0.119 C 
ENDROOT
BRANCH   8   3
ATOM      1  O   UNL     1      12.153   7.342  18.446  0.00  0.00    -0.376 OA
ATOM      3  N   UNL     1      14.648   7.997  20.199  0.00  0.00    -0.293 NA
ATOM      5  C   UNL     1      14.829   9.012  19.155  0.00  0.00    +0.118 C 
ATOM      6  C   UNL     1      13.759   9.110  18.056  0.00  0.00    +0.154 C 
ATOM      7  C   UNL     1      13.257   7.794  20.610  0.00  0.00    +0.113 C 
ATOM      9  C   UNL     1      13.209   7.768  17.594  0.00  0.00    +0.192 C 
ATOM     10  C   UNL     1      12.580   6.785  19.682  0.00  0.00    +0.175 C 
BRANCH   6   2
ATOM      2  O   UNL     1      14.341   9.761  16.926  0.00  0.00    -0.388 OA
ATOM     19  H   UNL     1      13.618   9.984  16.314  0.00  0.00    +0.210 HD
ENDBRANCH   6   2
ENDBRANCH   8   3
BRANCH   8  11
ATOM     11  C   UNL     1      16.908   7.778  21.143  0.00  0.00    -0.033 A 
ATOM     12  C   UNL     1      17.116   6.545  20.525  0.00  0.00    +0.007 A 
ATOM     13  C   UNL     1      17.998   8.533  21.576  0.00  0.00    +0.007 A 
ATOM     14  C   UNL     1      19.503   6.823  20.771  0.00  0.00    +0.029 A 
ATOM     15  C   UNL     1      18.412   6.068  20.339  0.00  0.00    +0.023 A 
ATOM     16  C   UNL     1      19.296   8.056  21.389  0.00  0.00    +0.023 A 
BRANCH  14   4
ATOM      4  N   UNL     1      20.815   6.340  20.582  0.00  0.00    -0.336 N 
ATOM     17  C   UNL     1      21.916   7.264  20.390  0.00  0.00    +0.129 C 
ATOM     18  C   UNL     1      21.078   4.916  20.571  0.00  0.00    +0.129 C 
ENDBRANCH  14   4
ENDBRANCH   8  11
TORSDOF 4
ENDMDL
MODEL 5
REMARK VINA RESULT:      -5.4      1.437      2.263
REMARK  Name = 75536951
REMARK  6 active torsions:
REMARK  status: ('A' for Active; 'I' for Inactive)
REMARK    1  A    between atoms: O_2  and  C_6
REMARK    2  A    between atoms: N_3  and  C_8
REMARK    3  A    between atoms: N_4  and  C_14
REMARK    4  A    between atoms: N_4  and  C_17
REMARK    5  A    between atoms: N_4  and  C_18
REMARK    6  A    between atoms: C_8  and  C_11
REMARK                            x       y       z     vdW  Elec       q    Type
REMARK                         _______ _______ _______ _____ _____    ______ ____
ROOT
ATOM      8  C   UNL     1      15.488   6.595  19.065  0.00  0.00    +0.119 C 
ENDROOT
BRANCH   8   3
ATOM      1  O   UNL     1      12.783  10.221  18.749  0.00  0.00    -0.376 OA
ATOM      3  N   UNL     1      14.531   7.686  19.247  0.00  0.00    -0.293 NA
ATOM      5  C   UNL     1      13.228   7.150  19.658  0.00  0.00    +0.118 C 
ATOM      6  C   UNL     1      12.001   8.066  19.524  0.00  0.00    +0.154 C 
ATOM      7  C   UNL     1      14.482   8.558  18.072  0.00  0.00    +0.113 C 
ATOM      9  C   UNL     1      12.264   9.524  19.875  0.00  0.00    +0.192 C 
ATOM     10  C   UNL     1      14.163   9.992  18.499  0.00  0.00    +0.175 C 
BRANCH   6   2
ATOM      2  O   UNL     1      10.984   7.578  20.400  0.00  0.00    -0.388 OA
ATOM     19  H   UNL     1      11.425   7.232  21.195  0.00  0.00    +0.210 HD
ENDBRANCH   6   2
ENDBRANCH   8   3
BRANCH   8  11
ATOM     11  C   UNL     1      16.753   6.824  19.849  0.00  0.00    -0.033 A 
ATOM     12  C   UNL     1      16.811   7.843  20.800  0.00  0.00    +0.007 A 
ATOM     13  C   UNL     1      17.868   6.016  19.625  0.00  0.00    +0.007 A 
ATOM     14  C   UNL     1      19.098   7.246  21.302  0.00  0.00    +0.029 A 
ATOM     15  C   UNL     1      17.983   8.054  21.526  0.00  0.00    +0.023 A 
ATOM     16  C   UNL     1      19.040   6.227  20.352  0.00  0.00    +0.023 A 
BRANCH  14   4
ATOM      4  N   UNL     1      20.282   7.459  22.037  0.00  0.00    -0.336 N 
ATOM     17  C   UNL     1      21.349   8.274  21.490  0.00  0.00    +0.129 C 
ATOM     18  C   UNL     1      20.451   6.860  23.346  0.00  0.00    +0.129 C 
ENDBRANCH  14   4
ENDBRANCH   8  11
TORSDOF 4
ENDMDL
MODEL 6
REMARK VINA RESULT:      -5.3     26.281     28.141
REMARK  Name = 75536951
REMARK  6 active torsions:
REMARK  status: ('A' for Active; 'I' for Inactive)
REMARK    1  A    between atoms: O_2  and  C_6
REMARK    2  A    between atoms: N_3  and  C_8
REMARK    3  A    between atoms: N_4  and  C_14
REMARK    4  A    between atoms: N_4  and  C_17
REMARK    5  A    between atoms: N_4  and  C_18
REMARK    6  A    between atoms: C_8  and  C_11
REMARK                            x       y       z     vdW  Elec       q    Type
REMARK                         _______ _______ _______ _____ _____    ______ ____
ROOT
ATOM      8  C   UNL     1     -10.835   9.017  19.389  0.00  0.00    +0.119 C 
ENDROOT
BRANCH   8   3
ATOM      1  O   UNL     1     -12.104  10.107  15.174  0.00  0.00    -0.376 OA
ATOM      3  N   UNL     1     -11.291   9.066  18.000  0.00  0.00    -0.293 NA
ATOM      5  C   UNL     1     -10.512   8.132  17.180  0.00  0.00    +0.118 C 
ATOM      6  C   UNL     1     -10.557   8.308  15.654  0.00  0.00    +0.154 C 
ATOM      7  C   UNL     1     -11.316  10.440  17.493  0.00  0.00    +0.113 C 
ATOM      9  C   UNL     1     -11.924   8.697  15.107  0.00  0.00    +0.192 C 
ATOM     10  C   UNL     1     -12.438  10.597  16.466  0.00  0.00    +0.175 C 
BRANCH   6   2
ATOM      2  O   UNL     1     -10.178   7.069  15.052  0.00  0.00    -0.388 OA
ATOM     19  H   UNL     1     -10.716   6.369  15.462  0.00  0.00    +0.210 HD
ENDBRANCH   6   2
ENDBRANCH   8   3
BRANCH   8  11
ATOM     11  C   UNL     1     -11.825   8.312  20.279  0.00  0.00    -0.033 A 
ATOM     12  C   UNL     1     -11.731   6.934  20.476  0.00  0.00    +0.007 A 
ATOM     13  C   UNL     1     -12.838   9.038  20.907  0.00  0.00    +0.007 A 
ATOM     14  C   UNL     1     -13.660   7.008  21.928  0.00  0.00    +0.029 A 
ATOM     15  C   UNL     1     -12.647   6.283  21.299  0.00  0.00    +0.023 A 
ATOM     16  C   UNL     1     -13.755   8.386  21.732  0.00  0.00    +0.023 A 
BRANCH  14   4
ATOM      4  N   UNL     1     -14.586   6.349  22.762  0.00  0.00    -0.336 N 
ATOM     17  C   UNL     1     -15.884   6.940  23.029  0.00  0.00    +0.129 C 
ATOM     18  C   UNL     1     -14.252   5.076  23.368  0.00  0.00    +0.129 C 
ENDBRANCH  14   4
ENDBRANCH   8  11
TORSDOF 4
ENDMDL
MODEL 7
REMARK VINA RESULT:      -5.2      3.721      5.872
REMARK  Name = 75536951
REMARK  6 active torsions:
REMARK  status: ('A' for Active; 'I' for Inactive)
REMARK    1  A    between atoms: O_2  and  C_6
REMARK    2  A    between atoms: N_3  and  C_8
REMARK    3  A    between atoms: N_4  and  C_14
REMARK    4  A    between atoms: N_4  and  C_17
REMARK    5  A    between atoms: N_4  and  C_18
REMARK    6  A    between atoms: C_8  and  C_11
REMARK                            x       y       z     vdW  Elec       q    Type
REMARK                         _______ _______ _______ _____ _____    ______ ____
ROOT
ATOM      8  C   UNL     1      10.851   9.742  22.542  0.00  0.00    +0.119 C 
ENDROOT
BRANCH   8   3
ATOM      1  O   UNL     1      12.052  14.075  23.131  0.00  0.00    -0.376 OA
ATOM      3  N   UNL     1      11.318  11.045  23.013  0.00  0.00    -0.293 NA
ATOM      5  C   UNL     1      10.658  11.391  24.277  0.00  0.00    +0.118 C 
ATOM      6  C   UNL     1      10.705  12.859  24.732  0.00  0.00    +0.154 C 
ATOM      7  C   UNL     1      11.199  12.066  21.970  0.00  0.00    +0.113 C 
ATOM      9  C   UNL     1      12.028  13.560  24.457  0.00  0.00    +0.192 C 
ATOM     10  C   UNL     1      12.312  13.104  22.126  0.00  0.00    +0.175 C 
BRANCH   6   2
ATOM      2  O   UNL     1      10.473  12.894  26.141  0.00  0.00    -0.388 OA
ATOM     19  H   UNL     1      11.124  12.304  26.559  0.00  0.00    +0.210 HD
ENDBRANCH   6   2
ENDBRANCH   8   3
BRANCH   8  11
ATOM     11  C   UNL     1      11.786   9.146  21.523  0.00  0.00    -0.033 A 
ATOM     12  C   UNL     1      13.133   8.960  21.835  0.00  0.00    +0.007 A 
ATOM     13  C   UNL     1      11.305   8.781  20.265  0.00  0.00    +0.007 A 
ATOM     14  C   UNL     1      13.517   8.043  19.633  0.00  0.00    +0.029 A 
ATOM     15  C   UNL     1      13.998   8.409  20.891  0.00  0.00    +0.023 A 
ATOM     16  C   UNL     1      12.171   8.229  19.321  0.00  0.00    +0.023 A 
BRANCH  14   4
ATOM      4  N   UNL     1      14.392   7.484  18.679  0.00  0.00    -0.336 N 
ATOM     17  C   UNL     1      14.119   7.625  17.262  0.00  0.00    +0.129 C 
ATOM     18  C   UNL     1      15.572   6.757  19.102  0.00  0.00    +0.129 C 
ENDBRANCH  14   4
ENDBRANCH   8  11
TORSDOF 4
ENDMDL
MODEL 8
REMARK VINA RESULT:      -5.1     15.488     16.900
REMARK  Name = 75536951
REMARK  6 active torsions:
REMARK  status: ('A' for Active; 'I' for Inactive)
REMARK    1  A    between atoms: O_2  and  C_6
REMARK    2  A    between atoms: N_3  and  C_8
REMARK    3  A    between atoms: N_4  and  C_14
REMARK    4  A    between atoms: N_4  and  C_17
REMARK    5  A    between atoms: N_4  and  C_18
REMARK    6  A    between atoms: C_8  and  C_11
REMARK                            x       y       z     vdW  Elec       q    Type
REMARK                         _______ _______ _______ _____ _____    ______ ____
ROOT
ATOM      8  C   UNL     1       9.349   5.724   3.985  0.00  0.00    +0.119 C 
ENDROOT
BRANCH   8   3
ATOM      1  O   UNL     1       8.924   7.100   8.285  0.00  0.00    -0.376 OA
ATOM      3  N   UNL     1       9.493   6.049   5.404  0.00  0.00    -0.293 NA
ATOM      5  C   UNL     1       9.860   4.848   6.162  0.00  0.00    +0.118 C 
ATOM      6  C   UNL     1       9.679   4.879   7.688  0.00  0.00    +0.154 C 
ATOM      7  C   UNL     1       8.313   6.750   5.916  0.00  0.00    +0.113 C 
ATOM      9  C   UNL     1      10.034   6.211   8.335  0.00  0.00    +0.192 C 
ATOM     10  C   UNL     1       8.723   7.722   7.023  0.00  0.00    +0.175 C 
BRANCH   6   2
ATOM      2  O   UNL     1      10.521   3.875   8.256  0.00  0.00    -0.388 OA
ATOM     19  H   UNL     1      11.343   3.855   7.736  0.00  0.00    +0.210 HD
ENDBRANCH   6   2
ENDBRANCH   8   3
BRANCH   8  11
ATOM     11  C   UNL     1      10.683   5.501   3.323  0.00  0.00    -0.033 A 
ATOM     12  C   UNL     1      11.653   6.504   3.349  0.00  0.00    +0.007 A 
ATOM     13  C   UNL     1      10.951   4.290   2.684  0.00  0.00    +0.007 A 
ATOM     14  C   UNL     1      13.155   5.086   2.097  0.00  0.00    +0.029 A 
ATOM     15  C   UNL     1      12.887   6.296   2.736  0.00  0.00    +0.023 A 
ATOM     16  C   UNL     1      12.187   4.082   2.071  0.00  0.00    +0.023 A 
BRANCH  14   4
ATOM      4  N   UNL     1      14.405   4.876   1.478  0.00  0.00    -0.336 N 
ATOM     17  C   UNL     1      15.087   5.968   0.812  0.00  0.00    +0.129 C 
ATOM     18  C   UNL     1      15.021   3.564   1.495  0.00  0.00    +0.129 C 
ENDBRANCH  14   4
ENDBRANCH   8  11
TORSDOF 4
ENDMDL
MODEL 9
REMARK VINA RESULT:      -5.1     25.829     27.685
REMARK  Name = 75536951
REMARK  6 active torsions:
REMARK  status: ('A' for Active; 'I' for Inactive)
REMARK    1  A    between atoms: O_2  and  C_6
REMARK    2  A    between atoms: N_3  and  C_8
REMARK    3  A    between atoms: N_4  and  C_14
REMARK    4  A    between atoms: N_4  and  C_17
REMARK    5  A    between atoms: N_4  and  C_18
REMARK    6  A    between atoms: C_8  and  C_11
REMARK                            x       y       z     vdW  Elec       q    Type
REMARK                         _______ _______ _______ _____ _____    ______ ____
ROOT
ATOM      8  C   UNL     1      -3.656 -11.086  17.408  0.00  0.00    +0.119 C 
ENDROOT
BRANCH   8   3
ATOM      1  O   UNL     1      -7.478 -13.424  18.105  0.00  0.00    -0.376 OA
ATOM      3  N   UNL     1      -5.023 -11.565  17.608  0.00  0.00    -0.293 NA
ATOM      5  C   UNL     1      -5.671 -10.805  18.683  0.00  0.00    +0.118 C 
ATOM      6  C   UNL     1      -6.945 -11.395  19.311  0.00  0.00    +0.154 C 
ATOM      7  C   UNL     1      -5.060 -13.018  17.788  0.00  0.00    +0.113 C 
ATOM      9  C   UNL     1      -7.877 -12.076  18.318  0.00  0.00    +0.192 C 
ATOM     10  C   UNL     1      -6.369 -13.579  17.229  0.00  0.00    +0.175 C 
BRANCH   6   2
ATOM      2  O   UNL     1      -7.666 -10.331  19.935  0.00  0.00    -0.388 OA
ATOM     19  H   UNL     1      -7.014  -9.738  20.345  0.00  0.00    +0.210 HD
ENDBRANCH   6   2
ENDBRANCH   8   3
BRANCH   8  11
ATOM     11  C   UNL     1      -3.343 -10.879  15.949  0.00  0.00    -0.033 A 
ATOM     12  C   UNL     1      -2.026 -10.666  15.541  0.00  0.00    +0.007 A 
ATOM     13  C   UNL     1      -4.370 -10.902  15.006  0.00  0.00    +0.007 A 
ATOM     14  C   UNL     1      -2.764 -10.498  13.247  0.00  0.00    +0.029 A 
ATOM     15  C   UNL     1      -1.737 -10.475  14.190  0.00  0.00    +0.023 A 
ATOM     16  C   UNL     1      -4.080 -10.712  13.654  0.00  0.00    +0.023 A 
BRANCH  14   4
ATOM      4  N   UNL     1      -2.471 -10.306  11.881  0.00  0.00    -0.336 N 
ATOM     17  C   UNL     1      -1.310  -9.535  11.480  0.00  0.00    +0.129 C 
ATOM     18  C   UNL     1      -3.330 -10.871  10.860  0.00  0.00    +0.129 C 
ENDBRANCH  14   4
ENDBRANCH   8  11
TORSDOF 4
ENDMDL
MODEL 10
REMARK VINA RESULT:      -5.1     28.893     30.970
REMARK  Name = 75536951
REMARK  6 active torsions:
REMARK  status: ('A' for Active; 'I' for Inactive)
REMARK    1  A    between atoms: O_2  and  C_6
REMARK    2  A    between atoms: N_3  and  C_8
REMARK    3  A    between atoms: N_4  and  C_14
REMARK    4  A    between atoms: N_4  and  C_17
REMARK    5  A    between atoms: N_4  and  C_18
REMARK    6  A    between atoms: C_8  and  C_11
REMARK                            x       y       z     vdW  Elec       q    Type
REMARK                         _______ _______ _______ _____ _____    ______ ____
ROOT
ATOM      8  C   UNL     1       2.682   2.610  -5.480  0.00  0.00    +0.119 C 
ENDROOT
BRANCH   8   3
ATOM      1  O   UNL     1       1.609   6.993  -5.039  0.00  0.00    -0.376 OA
ATOM      3  N   UNL     1       2.470   4.051  -5.613  0.00  0.00    -0.293 NA
ATOM      5  C   UNL     1       3.740   4.723  -5.909  0.00  0.00    +0.118 C 
ATOM      6  C   UNL     1       3.813   6.244  -5.701  0.00  0.00    +0.154 C 
ATOM      7  C   UNL     1       1.754   4.596  -4.457  0.00  0.00    +0.113 C 
ATOM      9  C   UNL     1       2.550   6.994  -6.105  0.00  0.00    +0.192 C 
ATOM     10  C   UNL     1       0.886   5.778  -4.891  0.00  0.00    +0.175 C 
BRANCH   6   2
ATOM      2  O   UNL     1       4.895   6.749  -6.485  0.00  0.00    -0.388 OA
ATOM     19  H   UNL     1       5.121   6.069  -7.143  0.00  0.00    +0.210 HD
ENDBRANCH   6   2
ENDBRANCH   8   3
BRANCH   8  11
ATOM     11  C   UNL     1       1.481   1.823  -5.932  0.00  0.00    -0.033 A 
ATOM     12  C   UNL     1       1.068   0.702  -5.211  0.00  0.00    +0.007 A 
ATOM     13  C   UNL     1       0.779   2.214  -7.072  0.00  0.00    +0.007 A 
ATOM     14  C   UNL     1      -0.746   0.365  -6.769  0.00  0.00    +0.029 A 
ATOM     15  C   UNL     1      -0.044  -0.026  -5.629  0.00  0.00    +0.023 A 
ATOM     16  C   UNL     1      -0.335   1.486  -7.491  0.00  0.00    +0.023 A 
BRANCH  14   4
ATOM      4  N   UNL     1      -1.872  -0.371  -7.192  0.00  0.00    -0.336 N 
ATOM     17  C   UNL     1      -2.784   0.182  -8.174  0.00  0.00    +0.129 C 
ATOM     18  C   UNL     1      -2.137  -1.686  -6.645  0.00  0.00    +0.129 C 
ENDBRANCH  14   4
ENDBRANCH   8  11
TORSDOF 4
ENDMDL
