MODEL 1
REMARK VINA RESULT:      -7.3      0.000      0.000
REMARK  Name = 9421208
REMARK  12 active torsions:
REMARK  status: ('A' for Active; 'I' for Inactive)
REMARK    1  A    between atoms: O_4  and  C_28
REMARK    2  A    between atoms: O_6  and  C_36
REMARK    3  A    between atoms: O_6  and  C_37
REMARK    4  A    between atoms: N_8  and  C_10
REMARK    5  A    between atoms: C_16  and  C_17
REMARK    6  A    between atoms: C_16  and  C_21
REMARK    7  A    between atoms: C_16  and  C_22
REMARK    8  A    between atoms: C_16  and  C_23
REMARK    9  A    between atoms: C_17  and  C_18
REMARK   10  A    between atoms: C_21  and  C_28
REMARK   11  A    between atoms: C_26  and  C_29
REMARK   12  A    between atoms: C_30  and  C_31
REMARK                            x       y       z     vdW  Elec       q    Type
REMARK                         _______ _______ _______ _____ _____    ______ ____
ROOT
ATOM      1  O   UNL     1      13.740   7.448  19.168  0.00  0.00    -0.273 OA
ATOM      2  O   UNL     1      18.042   9.093  21.834  0.00  0.00    -0.270 OA
ATOM      7  N   UNL     1      15.864   8.413  21.555  0.00  0.00    -0.284 N 
ATOM      9  N   UNL     1      15.878   6.675  19.170  0.00  0.00    -0.283 N 
ATOM     10  C   UNL     1      13.775   9.451  21.960  0.00  0.00    +0.092 C 
ATOM     11  C   UNL     1      14.867   7.394  21.298  0.00  0.00    +0.164 C 
ATOM     12  C   UNL     1      13.588   7.931  21.949  0.00  0.00    +0.055 C 
ATOM     13  C   UNL     1      15.277   9.601  22.164  0.00  0.00    +0.131 C 
ATOM     14  C   UNL     1      14.779   7.225  19.793  0.00  0.00    +0.238 C 
ATOM     15  C   UNL     1      17.228   8.253  21.445  0.00  0.00    +0.249 C 
ATOM     19  C   UNL     1      17.744   7.014  20.810  0.00  0.00    +0.059 A 
ATOM     20  C   UNL     1      17.145   6.374  19.714  0.00  0.00    +0.046 A 
ATOM     24  C   UNL     1      19.007   6.581  21.257  0.00  0.00    +0.022 A 
ATOM     25  C   UNL     1      17.857   5.357  19.050  0.00  0.00    +0.024 A 
ATOM     26  C   UNL     1      19.677   5.540  20.615  0.00  0.00    -0.024 A 
ATOM     27  C   UNL     1      19.106   4.936  19.503  0.00  0.00    +0.010 A 
ATOM     39  H   UNL     1      15.720   6.360  18.215  0.00  0.00    +0.155 HD
ENDROOT
BRANCH  10   8
ATOM      3  O   UNL     1      14.366  12.116  21.046  0.00  0.00    -0.276 OA
ATOM      8  N   UNL     1      13.344  10.057  20.724  0.00  0.00    -0.311 N 
ATOM     18  C   UNL     1      13.681  11.354  20.369  0.00  0.00    +0.214 C 
ATOM     38  H   UNL     1      12.811   9.492  20.071  0.00  0.00    +0.149 HD
BRANCH  18  17
ATOM     17  C   UNL     1      13.116  11.771  19.020  0.00  0.00    +0.102 C 
BRANCH  17  16
ATOM     16  C   UNL     1      13.879  11.210  17.792  0.00  0.00    -0.017 C 
ATOM     22  C   UNL     1      14.239  12.350  16.816  0.00  0.00    +0.012 C 
ATOM     23  C   UNL     1      15.202  10.597  18.295  0.00  0.00    +0.012 C 
BRANCH  16  21
ATOM     21  C   UNL     1      13.064  10.152  17.010  0.00  0.00    +0.127 C 
BRANCH  21  28
ATOM      5  O   UNL     1      14.453   9.746  15.067  0.00  0.00    -0.251 OA
ATOM     28  C   UNL     1      13.878   9.306  16.054  0.00  0.00    +0.305 C 
BRANCH  28   4
ATOM      4  O   UNL     1      13.902   7.995  16.400  0.00  0.00    -0.481 OA
ATOM     40  H   UNL     1      13.408   7.438  15.762  0.00  0.00    +0.295 HD
ENDBRANCH  28   4
ENDBRANCH  21  28
ENDBRANCH  16  21
ENDBRANCH  17  16
ENDBRANCH  18  17
ENDBRANCH  10   8
BRANCH  26  29
ATOM     29  C   UNL     1      20.979   5.104  21.094  0.00  0.00    +0.008 C 
ATOM     30  C   UNL     1      21.443   3.833  21.045  0.00  0.00    +0.008 C 
BRANCH  30  31
ATOM     31  C   UNL     1      22.770   3.394  21.512  0.00  0.00    -0.025 A 
ATOM     32  C   UNL     1      23.407   4.080  22.546  0.00  0.00    +0.011 A 
ATOM     33  C   UNL     1      23.389   2.294  20.921  0.00  0.00    +0.011 A 
ATOM     34  C   UNL     1      24.663   3.666  22.988  0.00  0.00    +0.046 A 
ATOM     35  C   UNL     1      24.645   1.879  21.363  0.00  0.00    +0.046 A 
ATOM     36  C   UNL     1      25.282   2.564  22.397  0.00  0.00    +0.120 A 
BRANCH  36   6
ATOM      6  O   UNL     1      26.508   2.159  22.829  0.00  0.00    -0.495 OA
ATOM     37  C   UNL     1      27.613   2.391  21.956  0.00  0.00    +0.277 C 
ENDBRANCH  36   6
ENDBRANCH  30  31
ENDBRANCH  26  29
TORSDOF 9
ENDMDL
MODEL 2
REMARK VINA RESULT:      -7.1      2.376      3.176
REMARK  Name = 9421208
REMARK  12 active torsions:
REMARK  status: ('A' for Active; 'I' for Inactive)
REMARK    1  A    between atoms: O_4  and  C_28
REMARK    2  A    between atoms: O_6  and  C_36
REMARK    3  A    between atoms: O_6  and  C_37
REMARK    4  A    between atoms: N_8  and  C_10
REMARK    5  A    between atoms: C_16  and  C_17
REMARK    6  A    between atoms: C_16  and  C_21
REMARK    7  A    between atoms: C_16  and  C_22
REMARK    8  A    between atoms: C_16  and  C_23
REMARK    9  A    between atoms: C_17  and  C_18
REMARK   10  A    between atoms: C_21  and  C_28
REMARK   11  A    between atoms: C_26  and  C_29
REMARK   12  A    between atoms: C_30  and  C_31
REMARK                            x       y       z     vdW  Elec       q    Type
REMARK                         _______ _______ _______ _____ _____    ______ ____
ROOT
ATOM      1  O   UNL     1      16.016   6.315  18.835  0.00  0.00    -0.273 OA
ATOM      2  O   UNL     1      19.309   8.824  22.178  0.00  0.00    -0.270 OA
ATOM      7  N   UNL     1      17.347   7.848  21.484  0.00  0.00    -0.284 N 
ATOM      9  N   UNL     1      18.136   5.820  19.490  0.00  0.00    -0.283 N 
ATOM     10  C   UNL     1      15.145   8.663  21.187  0.00  0.00    +0.092 C 
ATOM     11  C   UNL     1      16.544   6.688  21.157  0.00  0.00    +0.164 C 
ATOM     12  C   UNL     1      15.097   7.144  21.377  0.00  0.00    +0.055 C 
ATOM     13  C   UNL     1      16.521   9.025  21.729  0.00  0.00    +0.131 C 
ATOM     14  C   UNL     1      16.869   6.308  19.725  0.00  0.00    +0.238 C 
ATOM     15  C   UNL     1      18.700   7.846  21.742  0.00  0.00    +0.249 C 
ATOM     19  C   UNL     1      19.470   6.606  21.463  0.00  0.00    +0.059 A 
ATOM     20  C   UNL     1      19.236   5.754  20.372  0.00  0.00    +0.046 A 
ATOM     24  C   UNL     1      20.603   6.397  22.272  0.00  0.00    +0.022 A 
ATOM     25  C   UNL     1      20.182   4.754  20.078  0.00  0.00    +0.024 A 
ATOM     26  C   UNL     1      21.504   5.371  21.993  0.00  0.00    -0.024 A 
ATOM     27  C   UNL     1      21.300   4.557  20.887  0.00  0.00    +0.010 A 
ATOM     39  H   UNL     1      18.262   5.362  18.590  0.00  0.00    +0.155 HD
ENDROOT
BRANCH  10   8
ATOM      3  O   UNL     1      12.884   9.972  19.977  0.00  0.00    -0.276 OA
ATOM      8  N   UNL     1      15.003   9.040  19.802  0.00  0.00    -0.311 N 
ATOM     18  C   UNL     1      13.871   9.670  19.309  0.00  0.00    +0.214 C 
ATOM     38  H   UNL     1      15.785   8.876  19.176  0.00  0.00    +0.149 HD
BRANCH  18  17
ATOM     17  C   UNL     1      13.954   9.973  17.821  0.00  0.00    +0.102 C 
BRANCH  17  16
ATOM     16  C   UNL     1      13.274   8.924  16.904  0.00  0.00    -0.017 C 
ATOM     22  C   UNL     1      14.143   8.655  15.658  0.00  0.00    +0.012 C 
ATOM     23  C   UNL     1      13.173   7.600  17.690  0.00  0.00    +0.012 C 
BRANCH  16  21
ATOM     21  C   UNL     1      11.872   9.366  16.422  0.00  0.00    +0.127 C 
BRANCH  21  28
ATOM      5  O   UNL     1      10.452   8.649  18.249  0.00  0.00    -0.251 OA
ATOM     28  C   UNL     1      10.718   8.618  17.054  0.00  0.00    +0.305 C 
BRANCH  28   4
ATOM      4  O   UNL     1      10.003   7.895  16.157  0.00  0.00    -0.481 OA
ATOM     40  H   UNL     1       9.423   8.463  15.607  0.00  0.00    +0.295 HD
ENDBRANCH  28   4
ENDBRANCH  21  28
ENDBRANCH  16  21
ENDBRANCH  17  16
ENDBRANCH  18  17
ENDBRANCH  10   8
BRANCH  26  29
ATOM     29  C   UNL     1      22.668   5.169  22.842  0.00  0.00    +0.008 C 
ATOM     30  C   UNL     1      22.708   4.365  23.931  0.00  0.00    +0.008 C 
BRANCH  30  31
ATOM     31  C   UNL     1      23.892   4.146  24.781  0.00  0.00    -0.025 A 
ATOM     32  C   UNL     1      25.095   3.734  24.208  0.00  0.00    +0.011 A 
ATOM     33  C   UNL     1      23.809   4.349  26.158  0.00  0.00    +0.011 A 
ATOM     34  C   UNL     1      26.215   3.525  25.013  0.00  0.00    +0.046 A 
ATOM     35  C   UNL     1      24.929   4.141  26.963  0.00  0.00    +0.046 A 
ATOM     36  C   UNL     1      26.132   3.729  26.391  0.00  0.00    +0.120 A 
BRANCH  36   6
ATOM      6  O   UNL     1      27.226   3.526  27.176  0.00  0.00    -0.495 OA
ATOM     37  C   UNL     1      26.993   3.067  28.507  0.00  0.00    +0.277 C 
ENDBRANCH  36   6
ENDBRANCH  30  31
ENDBRANCH  26  29
TORSDOF 9
ENDMDL
MODEL 3
REMARK VINA RESULT:      -7.1     29.016     33.971
REMARK  Name = 9421208
REMARK  12 active torsions:
REMARK  status: ('A' for Active; 'I' for Inactive)
REMARK    1  A    between atoms: O_4  and  C_28
REMARK    2  A    between atoms: O_6  and  C_36
REMARK    3  A    between atoms: O_6  and  C_37
REMARK    4  A    between atoms: N_8  and  C_10
REMARK    5  A    between atoms: C_16  and  C_17
REMARK    6  A    between atoms: C_16  and  C_21
REMARK    7  A    between atoms: C_16  and  C_22
REMARK    8  A    between atoms: C_16  and  C_23
REMARK    9  A    between atoms: C_17  and  C_18
REMARK   10  A    between atoms: C_21  and  C_28
REMARK   11  A    between atoms: C_26  and  C_29
REMARK   12  A    between atoms: C_30  and  C_31
REMARK                            x       y       z     vdW  Elec       q    Type
REMARK                         _______ _______ _______ _____ _____    ______ ____
ROOT
ATOM      1  O   UNL     1     -18.553   5.389  26.081  0.00  0.00    -0.273 OA
ATOM      2  O   UNL     1     -13.806   4.583  23.816  0.00  0.00    -0.270 OA
ATOM      7  N   UNL     1     -16.012   4.157  24.303  0.00  0.00    -0.284 N 
ATOM      9  N   UNL     1     -17.214   6.787  24.891  0.00  0.00    -0.283 N 
ATOM     10  C   UNL     1     -17.122   2.351  25.356  0.00  0.00    +0.092 C 
ATOM     11  C   UNL     1     -17.426   4.441  24.173  0.00  0.00    +0.164 C 
ATOM     12  C   UNL     1     -18.118   3.106  24.471  0.00  0.00    +0.055 C 
ATOM     13  C   UNL     1     -15.776   2.810  24.812  0.00  0.00    +0.131 C 
ATOM     14  C   UNL     1     -17.752   5.548  25.158  0.00  0.00    +0.238 C 
ATOM     15  C   UNL     1     -14.984   4.944  23.831  0.00  0.00    +0.249 C 
ATOM     19  C   UNL     1     -15.309   6.304  23.331  0.00  0.00    +0.059 A 
ATOM     20  C   UNL     1     -16.275   7.150  23.900  0.00  0.00    +0.046 A 
ATOM     24  C   UNL     1     -14.458   6.806  22.329  0.00  0.00    +0.022 A 
ATOM     25  C   UNL     1     -16.319   8.497  23.497  0.00  0.00    +0.024 A 
ATOM     26  C   UNL     1     -14.547   8.132  21.908  0.00  0.00    -0.024 A 
ATOM     27  C   UNL     1     -15.470   8.981  22.502  0.00  0.00    +0.010 A 
ATOM     39  H   UNL     1     -17.619   7.557  25.419  0.00  0.00    +0.155 HD
ENDROOT
BRANCH  10   8
ATOM      3  O   UNL     1     -16.756   0.591  27.605  0.00  0.00    -0.276 OA
ATOM      8  N   UNL     1     -17.274   2.686  26.750  0.00  0.00    -0.311 N 
ATOM     18  C   UNL     1     -17.075   1.767  27.768  0.00  0.00    +0.214 C 
ATOM     38  H   UNL     1     -17.490   3.648  26.993  0.00  0.00    +0.149 HD
BRANCH  18  17
ATOM     17  C   UNL     1     -17.288   2.354  29.155  0.00  0.00    +0.102 C 
BRANCH  17  16
ATOM     16  C   UNL     1     -15.992   2.566  29.978  0.00  0.00    -0.017 C 
ATOM     22  C   UNL     1     -14.918   3.268  29.120  0.00  0.00    +0.012 C 
ATOM     23  C   UNL     1     -16.326   3.504  31.157  0.00  0.00    +0.012 C 
BRANCH  16  21
ATOM     21  C   UNL     1     -15.390   1.241  30.505  0.00  0.00    +0.127 C 
BRANCH  21  28
ATOM      5  O   UNL     1     -13.494   1.959  31.831  0.00  0.00    -0.251 OA
ATOM     28  C   UNL     1     -13.926   1.316  30.883  0.00  0.00    +0.305 C 
BRANCH  28   4
ATOM      4  O   UNL     1     -13.130   0.596  30.053  0.00  0.00    -0.481 OA
ATOM     40  H   UNL     1     -13.634   0.210  29.305  0.00  0.00    +0.295 HD
ENDBRANCH  28   4
ENDBRANCH  21  28
ENDBRANCH  16  21
ENDBRANCH  17  16
ENDBRANCH  18  17
ENDBRANCH  10   8
BRANCH  26  29
ATOM     29  C   UNL     1     -13.661   8.630  20.868  0.00  0.00    +0.008 C 
ATOM     30  C   UNL     1     -12.792   9.659  21.011  0.00  0.00    +0.008 C 
BRANCH  30  31
ATOM     31  C   UNL     1     -11.880  10.153  19.964  0.00  0.00    -0.025 A 
ATOM     32  C   UNL     1     -10.946   9.291  19.390  0.00  0.00    +0.011 A 
ATOM     33  C   UNL     1     -11.952  11.481  19.548  0.00  0.00    +0.011 A 
ATOM     34  C   UNL     1     -10.082   9.758  18.400  0.00  0.00    +0.046 A 
ATOM     35  C   UNL     1     -11.089  11.949  18.557  0.00  0.00    +0.046 A 
ATOM     36  C   UNL     1     -10.154  11.088  17.983  0.00  0.00    +0.120 A 
BRANCH  36   6
ATOM      6  O   UNL     1      -9.311  11.544  17.015  0.00  0.00    -0.495 OA
ATOM     37  C   UNL     1      -9.719  12.707  16.295  0.00  0.00    +0.277 C 
ENDBRANCH  36   6
ENDBRANCH  30  31
ENDBRANCH  26  29
TORSDOF 9
ENDMDL
MODEL 4
REMARK VINA RESULT:      -7.1     29.858     33.628
REMARK  Name = 9421208
REMARK  12 active torsions:
REMARK  status: ('A' for Active; 'I' for Inactive)
REMARK    1  A    between atoms: O_4  and  C_28
REMARK    2  A    between atoms: O_6  and  C_36
REMARK    3  A    between atoms: O_6  and  C_37
REMARK    4  A    between atoms: N_8  and  C_10
REMARK    5  A    between atoms: C_16  and  C_17
REMARK    6  A    between atoms: C_16  and  C_21
REMARK    7  A    between atoms: C_16  and  C_22
REMARK    8  A    between atoms: C_16  and  C_23
REMARK    9  A    between atoms: C_17  and  C_18
REMARK   10  A    between atoms: C_21  and  C_28
REMARK   11  A    between atoms: C_26  and  C_29
REMARK   12  A    between atoms: C_30  and  C_31
REMARK                            x       y       z     vdW  Elec       q    Type
REMARK                         _______ _______ _______ _____ _____    ______ ____
ROOT
ATOM      1  O   UNL     1      -4.981  -9.558  16.321  0.00  0.00    -0.273 OA
ATOM      2  O   UNL     1      -8.906 -12.909  17.619  0.00  0.00    -0.270 OA
ATOM      7  N   UNL     1      -6.857 -11.884  17.807  0.00  0.00    -0.284 N 
ATOM      9  N   UNL     1      -7.204  -9.200  16.631  0.00  0.00    -0.283 N 
ATOM     10  C   UNL     1      -4.629 -12.680  17.713  0.00  0.00    +0.092 C 
ATOM     11  C   UNL     1      -6.023 -10.747  18.140  0.00  0.00    +0.164 C 
ATOM     12  C   UNL     1      -4.658 -11.355  18.480  0.00  0.00    +0.055 C 
ATOM     13  C   UNL     1      -6.086 -13.122  17.754  0.00  0.00    +0.131 C 
ATOM     14  C   UNL     1      -6.016  -9.829  16.932  0.00  0.00    +0.238 C 
ATOM     15  C   UNL     1      -8.233 -11.884  17.741  0.00  0.00    +0.249 C 
ATOM     19  C   UNL     1      -8.942 -10.580  17.800  0.00  0.00    +0.059 A 
ATOM     20  C   UNL     1      -8.480  -9.396  17.203  0.00  0.00    +0.046 A 
ATOM     24  C   UNL     1     -10.235 -10.614  18.355  0.00  0.00    +0.022 A 
ATOM     25  C   UNL     1      -9.352  -8.295  17.117  0.00  0.00    +0.024 A 
ATOM     26  C   UNL     1     -11.068  -9.497  18.303  0.00  0.00    -0.024 A 
ATOM     27  C   UNL     1     -10.630  -8.341  17.671  0.00  0.00    +0.010 A 
ATOM     39  H   UNL     1      -7.129  -8.427  15.973  0.00  0.00    +0.155 HD
ENDROOT
BRANCH  10   8
ATOM      3  O   UNL     1      -4.488 -14.704  15.670  0.00  0.00    -0.276 OA
ATOM      8  N   UNL     1      -4.164 -12.511  16.358  0.00  0.00    -0.311 N 
ATOM     18  C   UNL     1      -4.133 -13.550  15.441  0.00  0.00    +0.214 C 
ATOM     38  H   UNL     1      -3.893 -11.580  16.055  0.00  0.00    +0.149 HD
BRANCH  18  17
ATOM     17  C   UNL     1      -3.609 -13.129  14.077  0.00  0.00    +0.102 C 
BRANCH  17  16
ATOM     16  C   UNL     1      -4.576 -12.241  13.253  0.00  0.00    -0.017 C 
ATOM     22  C   UNL     1      -4.568 -12.669  11.770  0.00  0.00    +0.012 C 
ATOM     23  C   UNL     1      -6.005 -12.468  13.791  0.00  0.00    +0.012 C 
BRANCH  16  21
ATOM     21  C   UNL     1      -4.215 -10.738  13.317  0.00  0.00    +0.127 C 
BRANCH  21  28
ATOM      5  O   UNL     1      -1.870 -10.453  12.779  0.00  0.00    -0.251 OA
ATOM     28  C   UNL     1      -2.760 -10.448  13.620  0.00  0.00    +0.305 C 
BRANCH  28   4
ATOM      4  O   UNL     1      -2.537 -10.185  14.932  0.00  0.00    -0.481 OA
ATOM     40  H   UNL     1      -1.628  -9.851  15.089  0.00  0.00    +0.295 HD
ENDBRANCH  28   4
ENDBRANCH  21  28
ENDBRANCH  16  21
ENDBRANCH  17  16
ENDBRANCH  18  17
ENDBRANCH  10   8
BRANCH  26  29
ATOM     29  C   UNL     1     -12.400  -9.551  18.885  0.00  0.00    +0.008 C 
ATOM     30  C   UNL     1     -12.674  -9.830  20.181  0.00  0.00    +0.008 C 
BRANCH  30  31
ATOM     31  C   UNL     1     -14.023  -9.867  20.775  0.00  0.00    -0.025 A 
ATOM     32  C   UNL     1     -14.837  -8.736  20.725  0.00  0.00    +0.011 A 
ATOM     33  C   UNL     1     -14.482 -11.031  21.388  0.00  0.00    +0.011 A 
ATOM     34  C   UNL     1     -16.113  -8.770  21.288  0.00  0.00    +0.046 A 
ATOM     35  C   UNL     1     -15.758 -11.066  21.951  0.00  0.00    +0.046 A 
ATOM     36  C   UNL     1     -16.574  -9.936  21.901  0.00  0.00    +0.120 A 
BRANCH  36   6
ATOM      6  O   UNL     1     -17.819  -9.969  22.451  0.00  0.00    -0.495 OA
ATOM     37  C   UNL     1     -18.779  -9.046  21.939  0.00  0.00    +0.277 C 
ENDBRANCH  36   6
ENDBRANCH  30  31
ENDBRANCH  26  29
TORSDOF 9
ENDMDL
MODEL 5
REMARK VINA RESULT:      -7.0     29.424     33.677
REMARK  Name = 9421208
REMARK  12 active torsions:
REMARK  status: ('A' for Active; 'I' for Inactive)
REMARK    1  A    between atoms: O_4  and  C_28
REMARK    2  A    between atoms: O_6  and  C_36
REMARK    3  A    between atoms: O_6  and  C_37
REMARK    4  A    between atoms: N_8  and  C_10
REMARK    5  A    between atoms: C_16  and  C_17
REMARK    6  A    between atoms: C_16  and  C_21
REMARK    7  A    between atoms: C_16  and  C_22
REMARK    8  A    between atoms: C_16  and  C_23
REMARK    9  A    between atoms: C_17  and  C_18
REMARK   10  A    between atoms: C_21  and  C_28
REMARK   11  A    between atoms: C_26  and  C_29
REMARK   12  A    between atoms: C_30  and  C_31
REMARK                            x       y       z     vdW  Elec       q    Type
REMARK                         _______ _______ _______ _____ _____    ______ ____
ROOT
ATOM      1  O   UNL     1      -8.058 -10.751  18.419  0.00  0.00    -0.273 OA
ATOM      2  O   UNL     1      -9.289  -9.522  13.391  0.00  0.00    -0.270 OA
ATOM      7  N   UNL     1      -9.194 -10.824  15.282  0.00  0.00    -0.284 N 
ATOM      9  N   UNL     1      -9.097  -8.930  17.543  0.00  0.00    -0.283 N 
ATOM     10  C   UNL     1      -8.206 -12.922  15.760  0.00  0.00    +0.092 C 
ATOM     11  C   UNL     1      -9.617 -11.156  16.627  0.00  0.00    +0.164 C 
ATOM     12  C   UNL     1      -9.332 -12.656  16.764  0.00  0.00    +0.055 C 
ATOM     13  C   UNL     1      -8.524 -11.947  14.635  0.00  0.00    +0.131 C 
ATOM     14  C   UNL     1      -8.822 -10.279  17.576  0.00  0.00    +0.238 C 
ATOM     15  C   UNL     1      -9.533  -9.684  14.588  0.00  0.00    +0.249 C 
ATOM     19  C   UNL     1     -10.212  -8.586  15.322  0.00  0.00    +0.059 A 
ATOM     20  C   UNL     1      -9.920  -8.216  16.645  0.00  0.00    +0.046 A 
ATOM     24  C   UNL     1     -11.076  -7.782  14.555  0.00  0.00    +0.022 A 
ATOM     25  C   UNL     1     -10.450  -7.012  17.145  0.00  0.00    +0.024 A 
ATOM     26  C   UNL     1     -11.630  -6.617  15.083  0.00  0.00    -0.024 A 
ATOM     27  C   UNL     1     -11.306  -6.225  16.375  0.00  0.00    +0.010 A 
ATOM     39  H   UNL     1      -8.731  -8.395  18.328  0.00  0.00    +0.155 HD
ENDROOT
BRANCH  10   8
ATOM      3  O   UNL     1      -5.658 -13.302  14.475  0.00  0.00    -0.276 OA
ATOM      8  N   UNL     1      -6.905 -12.671  16.328  0.00  0.00    -0.311 N 
ATOM     18  C   UNL     1      -5.727 -12.885  15.628  0.00  0.00    +0.214 C 
ATOM     38  H   UNL     1      -6.855 -12.277  17.263  0.00  0.00    +0.149 HD
BRANCH  18  17
ATOM     17  C   UNL     1      -4.482 -12.544  16.432  0.00  0.00    +0.102 C 
BRANCH  17  16
ATOM     16  C   UNL     1      -4.267 -11.030  16.689  0.00  0.00    -0.017 C 
ATOM     22  C   UNL     1      -2.796 -10.644  16.427  0.00  0.00    +0.012 C 
ATOM     23  C   UNL     1      -5.136 -10.249  15.681  0.00  0.00    +0.012 C 
BRANCH  16  21
ATOM     21  C   UNL     1      -4.620 -10.609  18.136  0.00  0.00    +0.127 C 
BRANCH  21  28
ATOM      5  O   UNL     1      -3.612 -12.094  19.764  0.00  0.00    -0.251 OA
ATOM     28  C   UNL     1      -4.607 -11.737  19.145  0.00  0.00    +0.305 C 
BRANCH  28   4
ATOM      4  O   UNL     1      -5.820 -12.326  19.294  0.00  0.00    -0.481 OA
ATOM     40  H   UNL     1      -6.013 -12.956  18.568  0.00  0.00    +0.295 HD
ENDBRANCH  28   4
ENDBRANCH  21  28
ENDBRANCH  16  21
ENDBRANCH  17  16
ENDBRANCH  18  17
ENDBRANCH  10   8
BRANCH  26  29
ATOM     29  C   UNL     1     -12.524  -5.802  14.276  0.00  0.00    +0.008 C 
ATOM     30  C   UNL     1     -12.167  -5.125  13.158  0.00  0.00    +0.008 C 
BRANCH  30  31
ATOM     31  C   UNL     1     -13.076  -4.314  12.330  0.00  0.00    -0.025 A 
ATOM     32  C   UNL     1     -14.194  -3.711  12.907  0.00  0.00    +0.011 A 
ATOM     33  C   UNL     1     -12.819  -4.149  10.970  0.00  0.00    +0.011 A 
ATOM     34  C   UNL     1     -15.055  -2.944  12.123  0.00  0.00    +0.046 A 
ATOM     35  C   UNL     1     -13.679  -3.381  10.186  0.00  0.00    +0.046 A 
ATOM     36  C   UNL     1     -14.798  -2.778  10.761  0.00  0.00    +0.120 A 
BRANCH  36   6
ATOM      6  O   UNL     1     -15.638  -2.029   9.996  0.00  0.00    -0.495 OA
ATOM     37  C   UNL     1     -15.281  -1.850   8.626  0.00  0.00    +0.277 C 
ENDBRANCH  36   6
ENDBRANCH  30  31
ENDBRANCH  26  29
TORSDOF 9
ENDMDL
MODEL 6
REMARK VINA RESULT:      -6.7     30.035     34.308
REMARK  Name = 9421208
REMARK  12 active torsions:
REMARK  status: ('A' for Active; 'I' for Inactive)
REMARK    1  A    between atoms: O_4  and  C_28
REMARK    2  A    between atoms: O_6  and  C_36
REMARK    3  A    between atoms: O_6  and  C_37
REMARK    4  A    between atoms: N_8  and  C_10
REMARK    5  A    between atoms: C_16  and  C_17
REMARK    6  A    between atoms: C_16  and  C_21
REMARK    7  A    between atoms: C_16  and  C_22
REMARK    8  A    between atoms: C_16  and  C_23
REMARK    9  A    between atoms: C_17  and  C_18
REMARK   10  A    between atoms: C_21  and  C_28
REMARK   11  A    between atoms: C_26  and  C_29
REMARK   12  A    between atoms: C_30  and  C_31
REMARK                            x       y       z     vdW  Elec       q    Type
REMARK                         _______ _______ _______ _____ _____    ______ ____
ROOT
ATOM      1  O   UNL     1      -9.809  -9.973  19.298  0.00  0.00    -0.273 OA
ATOM      2  O   UNL     1     -10.080 -10.094  13.985  0.00  0.00    -0.270 OA
ATOM      7  N   UNL     1     -10.502 -10.786  16.136  0.00  0.00    -0.284 N 
ATOM      9  N   UNL     1     -10.338  -8.351  17.795  0.00  0.00    -0.283 N 
ATOM     10  C   UNL     1     -10.025 -12.777  17.324  0.00  0.00    +0.092 C 
ATOM     11  C   UNL     1     -11.161 -10.641  17.418  0.00  0.00    +0.164 C 
ATOM     12  C   UNL     1     -11.201 -12.061  17.994  0.00  0.00    +0.055 C 
ATOM     13  C   UNL     1      -9.988 -12.137  15.942  0.00  0.00    +0.131 C 
ATOM     14  C   UNL     1     -10.343  -9.657  18.233  0.00  0.00    +0.238 C 
ATOM     15  C   UNL     1     -10.511  -9.860  15.115  0.00  0.00    +0.249 C 
ATOM     19  C   UNL     1     -11.051  -8.505  15.396  0.00  0.00    +0.059 A 
ATOM     20  C   UNL     1     -10.873  -7.814  16.605  0.00  0.00    +0.046 A 
ATOM     24  C   UNL     1     -11.626  -7.839  14.297  0.00  0.00    +0.022 A 
ATOM     25  C   UNL     1     -11.216  -6.450  16.662  0.00  0.00    +0.024 A 
ATOM     26  C   UNL     1     -12.004  -6.500  14.388  0.00  0.00    -0.024 A 
ATOM     27  C   UNL     1     -11.786  -5.802  15.568  0.00  0.00    +0.010 A 
ATOM     39  H   UNL     1      -9.983  -7.672  18.466  0.00  0.00    +0.155 HD
ENDROOT
BRANCH  10   8
ATOM      3  O   UNL     1      -7.547 -14.186  16.923  0.00  0.00    -0.276 OA
ATOM      8  N   UNL     1      -8.788 -12.572  18.037  0.00  0.00    -0.311 N 
ATOM     18  C   UNL     1      -7.641 -13.303  17.773  0.00  0.00    +0.214 C 
ATOM     38  H   UNL     1      -8.749 -11.830  18.729  0.00  0.00    +0.149 HD
BRANCH  18  17
ATOM     17  C   UNL     1      -6.463 -12.906  18.648  0.00  0.00    +0.102 C 
BRANCH  17  16
ATOM     16  C   UNL     1      -5.774 -11.575  18.250  0.00  0.00    -0.017 C 
ATOM     22  C   UNL     1      -6.217 -10.437  19.194  0.00  0.00    +0.012 C 
ATOM     23  C   UNL     1      -4.252 -11.755  18.428  0.00  0.00    +0.012 C 
BRANCH  16  21
ATOM     21  C   UNL     1      -6.095 -11.143  16.799  0.00  0.00    +0.127 C 
BRANCH  21  28
ATOM      5  O   UNL     1      -7.502  -9.171  16.741  0.00  0.00    -0.251 OA
ATOM     28  C   UNL     1      -6.388  -9.668  16.627  0.00  0.00    +0.305 C 
BRANCH  28   4
ATOM      4  O   UNL     1      -5.283  -8.942  16.325  0.00  0.00    -0.481 OA
ATOM     40  H   UNL     1      -4.727  -9.384  15.649  0.00  0.00    +0.295 HD
ENDBRANCH  28   4
ENDBRANCH  21  28
ENDBRANCH  16  21
ENDBRANCH  17  16
ENDBRANCH  18  17
ENDBRANCH  10   8
BRANCH  26  29
ATOM     29  C   UNL     1     -12.600  -5.830  13.243  0.00  0.00    +0.008 C 
ATOM     30  C   UNL     1     -13.158  -4.596  13.265  0.00  0.00    +0.008 C 
BRANCH  30  31
ATOM     31  C   UNL     1     -13.746  -3.909  12.101  0.00  0.00    -0.025 A 
ATOM     32  C   UNL     1     -13.131  -4.003  10.852  0.00  0.00    +0.011 A 
ATOM     33  C   UNL     1     -14.914  -3.164  12.249  0.00  0.00    +0.011 A 
ATOM     34  C   UNL     1     -13.687  -3.352   9.751  0.00  0.00    +0.046 A 
ATOM     35  C   UNL     1     -15.471  -2.513  11.148  0.00  0.00    +0.046 A 
ATOM     36  C   UNL     1     -14.857  -2.606   9.899  0.00  0.00    +0.120 A 
BRANCH  36   6
ATOM      6  O   UNL     1     -15.400  -1.971   8.824  0.00  0.00    -0.495 OA
ATOM     37  C   UNL     1     -16.082  -0.742   9.073  0.00  0.00    +0.277 C 
ENDBRANCH  36   6
ENDBRANCH  30  31
ENDBRANCH  26  29
TORSDOF 9
ENDMDL
MODEL 7
REMARK VINA RESULT:      -6.7      1.643      2.282
REMARK  Name = 9421208
REMARK  12 active torsions:
REMARK  status: ('A' for Active; 'I' for Inactive)
REMARK    1  A    between atoms: O_4  and  C_28
REMARK    2  A    between atoms: O_6  and  C_36
REMARK    3  A    between atoms: O_6  and  C_37
REMARK    4  A    between atoms: N_8  and  C_10
REMARK    5  A    between atoms: C_16  and  C_17
REMARK    6  A    between atoms: C_16  and  C_21
REMARK    7  A    between atoms: C_16  and  C_22
REMARK    8  A    between atoms: C_16  and  C_23
REMARK    9  A    between atoms: C_17  and  C_18
REMARK   10  A    between atoms: C_21  and  C_28
REMARK   11  A    between atoms: C_26  and  C_29
REMARK   12  A    between atoms: C_30  and  C_31
REMARK                            x       y       z     vdW  Elec       q    Type
REMARK                         _______ _______ _______ _____ _____    ______ ____
ROOT
ATOM      1  O   UNL     1      14.900   6.666  18.960  0.00  0.00    -0.273 OA
ATOM      2  O   UNL     1      18.473   9.129  22.038  0.00  0.00    -0.270 OA
ATOM      7  N   UNL     1      16.461   8.153  21.507  0.00  0.00    -0.284 N 
ATOM      9  N   UNL     1      17.074   6.174  19.406  0.00  0.00    -0.283 N 
ATOM     10  C   UNL     1      14.236   8.957  21.433  0.00  0.00    +0.092 C 
ATOM     11  C   UNL     1      15.638   6.994  21.231  0.00  0.00    +0.164 C 
ATOM     12  C   UNL     1      14.215   7.434  21.594  0.00  0.00    +0.055 C 
ATOM     13  C   UNL     1      15.655   9.318  21.853  0.00  0.00    +0.131 C 
ATOM     14  C   UNL     1      15.831   6.647  19.767  0.00  0.00    +0.238 C 
ATOM     15  C   UNL     1      17.833   8.155  21.639  0.00  0.00    +0.249 C 
ATOM     19  C   UNL     1      18.580   6.928  21.264  0.00  0.00    +0.059 A 
ATOM     20  C   UNL     1      18.252   6.098  20.180  0.00  0.00    +0.046 A 
ATOM     24  C   UNL     1      19.784   6.711  21.959  0.00  0.00    +0.022 A 
ATOM     25  C   UNL     1      19.171   5.112  19.778  0.00  0.00    +0.024 A 
ATOM     26  C   UNL     1      20.662   5.697  21.576  0.00  0.00    -0.024 A 
ATOM     27  C   UNL     1      20.361   4.906  20.476  0.00  0.00    +0.010 A 
ATOM     39  H   UNL     1      17.119   5.737  18.488  0.00  0.00    +0.155 HD
ENDROOT
BRANCH  10   8
ATOM      3  O   UNL     1      11.649   9.358  20.236  0.00  0.00    -0.276 OA
ATOM      8  N   UNL     1      13.965   9.362  20.076  0.00  0.00    -0.311 N 
ATOM     18  C   UNL     1      12.679   9.530  19.588  0.00  0.00    +0.214 C 
ATOM     38  H   UNL     1      14.752   9.576  19.471  0.00  0.00    +0.149 HD
BRANCH  18  17
ATOM     17  C   UNL     1      12.643   9.966  18.131  0.00  0.00    +0.102 C 
BRANCH  17  16
ATOM     16  C   UNL     1      12.406   8.819  17.114  0.00  0.00    -0.017 C 
ATOM     22  C   UNL     1      12.441   7.451  17.828  0.00  0.00    +0.012 C 
ATOM     23  C   UNL     1      10.992   8.995  16.522  0.00  0.00    +0.012 C 
BRANCH  16  21
ATOM     21  C   UNL     1      13.459   8.793  15.981  0.00  0.00    +0.127 C 
BRANCH  21  28
ATOM      5  O   UNL     1      15.072  10.600  15.945  0.00  0.00    -0.251 OA
ATOM     28  C   UNL     1      13.993  10.151  15.580  0.00  0.00    +0.305 C 
BRANCH  28   4
ATOM      4  O   UNL     1      13.144  10.834  14.771  0.00  0.00    -0.481 OA
ATOM     40  H   UNL     1      13.259  11.804  14.855  0.00  0.00    +0.295 HD
ENDBRANCH  28   4
ENDBRANCH  21  28
ENDBRANCH  16  21
ENDBRANCH  17  16
ENDBRANCH  18  17
ENDBRANCH  10   8
BRANCH  26  29
ATOM     29  C   UNL     1      21.900   5.486  22.309  0.00  0.00    +0.008 C 
ATOM     30  C   UNL     1      22.599   4.327  22.343  0.00  0.00    +0.008 C 
BRANCH  30  31
ATOM     31  C   UNL     1      23.863   4.118  23.071  0.00  0.00    -0.025 A 
ATOM     32  C   UNL     1      23.958   4.470  24.417  0.00  0.00    +0.011 A 
ATOM     33  C   UNL     1      24.963   3.569  22.413  0.00  0.00    +0.011 A 
ATOM     34  C   UNL     1      25.155   4.273  25.106  0.00  0.00    +0.046 A 
ATOM     35  C   UNL     1      26.160   3.371  23.102  0.00  0.00    +0.046 A 
ATOM     36  C   UNL     1      26.256   3.723  24.448  0.00  0.00    +0.120 A 
BRANCH  36   6
ATOM      6  O   UNL     1      27.424   3.530  25.121  0.00  0.00    -0.495 OA
ATOM     37  C   UNL     1      27.532   4.117  26.417  0.00  0.00    +0.277 C 
ENDBRANCH  36   6
ENDBRANCH  30  31
ENDBRANCH  26  29
TORSDOF 9
ENDMDL
MODEL 8
REMARK VINA RESULT:      -6.6     29.097     31.332
REMARK  Name = 9421208
REMARK  12 active torsions:
REMARK  status: ('A' for Active; 'I' for Inactive)
REMARK    1  A    between atoms: O_4  and  C_28
REMARK    2  A    between atoms: O_6  and  C_36
REMARK    3  A    between atoms: O_6  and  C_37
REMARK    4  A    between atoms: N_8  and  C_10
REMARK    5  A    between atoms: C_16  and  C_17
REMARK    6  A    between atoms: C_16  and  C_21
REMARK    7  A    between atoms: C_16  and  C_22
REMARK    8  A    between atoms: C_16  and  C_23
REMARK    9  A    between atoms: C_17  and  C_18
REMARK   10  A    between atoms: C_21  and  C_28
REMARK   11  A    between atoms: C_26  and  C_29
REMARK   12  A    between atoms: C_30  and  C_31
REMARK                            x       y       z     vdW  Elec       q    Type
REMARK                         _______ _______ _______ _____ _____    ______ ____
ROOT
ATOM      1  O   UNL     1     -13.255  10.602  15.986  0.00  0.00    -0.273 OA
ATOM      2  O   UNL     1     -11.209   7.880  20.075  0.00  0.00    -0.270 OA
ATOM      7  N   UNL     1     -11.187   9.056  18.100  0.00  0.00    -0.284 N 
ATOM      9  N   UNL     1     -13.518  10.861  18.229  0.00  0.00    -0.283 N 
ATOM     10  C   UNL     1     -10.533   8.508  15.892  0.00  0.00    +0.092 C 
ATOM     11  C   UNL     1     -11.290  10.289  17.347  0.00  0.00    +0.164 C 
ATOM     12  C   UNL     1     -10.488  10.029  16.067  0.00  0.00    +0.055 C 
ATOM     13  C   UNL     1     -10.530   8.006  17.330  0.00  0.00    +0.131 C 
ATOM     14  C   UNL     1     -12.767  10.549  17.117  0.00  0.00    +0.238 C 
ATOM     15  C   UNL     1     -11.471   8.903  19.440  0.00  0.00    +0.249 C 
ATOM     19  C   UNL     1     -12.143  10.020  20.151  0.00  0.00    +0.059 A 
ATOM     20  C   UNL     1     -13.138  10.835  19.589  0.00  0.00    +0.046 A 
ATOM     24  C   UNL     1     -11.857  10.128  21.525  0.00  0.00    +0.022 A 
ATOM     25  C   UNL     1     -13.869  11.692  20.432  0.00  0.00    +0.024 A 
ATOM     26  C   UNL     1     -12.560  11.017  22.337  0.00  0.00    -0.024 A 
ATOM     27  C   UNL     1     -13.576  11.791  21.792  0.00  0.00    +0.010 A 
ATOM     39  H   UNL     1     -14.438  11.251  18.034  0.00  0.00    +0.155 HD
ENDROOT
BRANCH  10   8
ATOM      3  O   UNL     1     -10.703   7.765  13.116  0.00  0.00    -0.276 OA
ATOM      8  N   UNL     1     -11.713   8.080  15.183  0.00  0.00    -0.311 N 
ATOM     18  C   UNL     1     -11.696   7.740  13.839  0.00  0.00    +0.214 C 
ATOM     38  H   UNL     1     -12.578   7.979  15.704  0.00  0.00    +0.149 HD
BRANCH  18  17
ATOM     17  C   UNL     1     -13.058   7.315  13.312  0.00  0.00    +0.102 C 
BRANCH  17  16
ATOM     16  C   UNL     1     -14.005   8.484  12.935  0.00  0.00    -0.017 C 
ATOM     22  C   UNL     1     -13.193   9.767  12.661  0.00  0.00    +0.012 C 
ATOM     23  C   UNL     1     -14.727   8.106  11.624  0.00  0.00    +0.012 C 
BRANCH  16  21
ATOM     21  C   UNL     1     -15.039   8.801  14.041  0.00  0.00    +0.127 C 
BRANCH  21  28
ATOM      5  O   UNL     1     -15.984   6.704  14.805  0.00  0.00    -0.251 OA
ATOM     28  C   UNL     1     -15.276   7.678  15.029  0.00  0.00    +0.305 C 
BRANCH  28   4
ATOM      4  O   UNL     1     -14.623   7.863  16.203  0.00  0.00    -0.481 OA
ATOM     40  H   UNL     1     -14.954   7.263  16.905  0.00  0.00    +0.295 HD
ENDBRANCH  28   4
ENDBRANCH  21  28
ENDBRANCH  16  21
ENDBRANCH  17  16
ENDBRANCH  18  17
ENDBRANCH  10   8
BRANCH  26  29
ATOM     29  C   UNL     1     -12.248  11.117  23.754  0.00  0.00    +0.008 C 
ATOM     30  C   UNL     1     -12.832  10.388  24.734  0.00  0.00    +0.008 C 
BRANCH  30  31
ATOM     31  C   UNL     1     -12.503  10.475  26.168  0.00  0.00    -0.025 A 
ATOM     32  C   UNL     1     -13.515  10.693  27.103  0.00  0.00    +0.011 A 
ATOM     33  C   UNL     1     -11.181  10.340  26.589  0.00  0.00    +0.011 A 
ATOM     34  C   UNL     1     -13.204  10.777  28.460  0.00  0.00    +0.046 A 
ATOM     35  C   UNL     1     -10.870  10.423  27.947  0.00  0.00    +0.046 A 
ATOM     36  C   UNL     1     -11.881  10.642  28.882  0.00  0.00    +0.120 A 
BRANCH  36   6
ATOM      6  O   UNL     1     -11.577  10.723  30.207  0.00  0.00    -0.495 OA
ATOM     37  C   UNL     1     -11.620   9.510  30.958  0.00  0.00    +0.277 C 
ENDBRANCH  36   6
ENDBRANCH  30  31
ENDBRANCH  26  29
TORSDOF 9
ENDMDL
MODEL 9
REMARK VINA RESULT:      -6.5     28.934     32.787
REMARK  Name = 9421208
REMARK  12 active torsions:
REMARK  status: ('A' for Active; 'I' for Inactive)
REMARK    1  A    between atoms: O_4  and  C_28
REMARK    2  A    between atoms: O_6  and  C_36
REMARK    3  A    between atoms: O_6  and  C_37
REMARK    4  A    between atoms: N_8  and  C_10
REMARK    5  A    between atoms: C_16  and  C_17
REMARK    6  A    between atoms: C_16  and  C_21
REMARK    7  A    between atoms: C_16  and  C_22
REMARK    8  A    between atoms: C_16  and  C_23
REMARK    9  A    between atoms: C_17  and  C_18
REMARK   10  A    between atoms: C_21  and  C_28
REMARK   11  A    between atoms: C_26  and  C_29
REMARK   12  A    between atoms: C_30  and  C_31
REMARK                            x       y       z     vdW  Elec       q    Type
REMARK                         _______ _______ _______ _____ _____    ______ ____
ROOT
ATOM      1  O   UNL     1      -5.257 -12.475  12.818  0.00  0.00    -0.273 OA
ATOM      2  O   UNL     1      -3.870  -8.813   9.216  0.00  0.00    -0.270 OA
ATOM      7  N   UNL     1      -3.578 -10.612  10.617  0.00  0.00    -0.284 N 
ATOM      9  N   UNL     1      -6.240 -11.861  10.863  0.00  0.00    -0.283 N 
ATOM     10  C   UNL     1      -2.168 -11.009  12.476  0.00  0.00    +0.092 C 
ATOM     11  C   UNL     1      -3.783 -12.001  10.971  0.00  0.00    +0.164 C 
ATOM     12  C   UNL     1      -2.595 -12.350  11.873  0.00  0.00    +0.055 C 
ATOM     13  C   UNL     1      -2.459 -10.028  11.349  0.00  0.00    +0.131 C 
ATOM     14  C   UNL     1      -5.135 -12.093  11.653  0.00  0.00    +0.238 C 
ATOM     15  C   UNL     1      -4.197  -9.942   9.584  0.00  0.00    +0.249 C 
ATOM     19  C   UNL     1      -5.330 -10.607   8.891  0.00  0.00    +0.059 A 
ATOM     20  C   UNL     1      -6.294 -11.404   9.528  0.00  0.00    +0.046 A 
ATOM     24  C   UNL     1      -5.511 -10.253   7.540  0.00  0.00    +0.022 A 
ATOM     25  C   UNL     1      -7.449 -11.773   8.814  0.00  0.00    +0.024 A 
ATOM     26  C   UNL     1      -6.639 -10.667   6.835  0.00  0.00    -0.024 A 
ATOM     27  C   UNL     1      -7.616 -11.417   7.477  0.00  0.00    +0.010 A 
ATOM     39  H   UNL     1      -7.129 -12.147  11.269  0.00  0.00    +0.155 HD
ENDROOT
BRANCH  10   8
ATOM      3  O   UNL     1      -1.375 -11.500  15.200  0.00  0.00    -0.276 OA
ATOM      8  N   UNL     1      -2.917 -10.688  13.666  0.00  0.00    -0.311 N 
ATOM     18  C   UNL     1      -2.450 -10.964  14.942  0.00  0.00    +0.214 C 
ATOM     38  H   UNL     1      -3.800 -10.198  13.562  0.00  0.00    +0.149 HD
BRANCH  18  17
ATOM     17  C   UNL     1      -3.411 -10.530  16.038  0.00  0.00    +0.102 C 
BRANCH  17  16
ATOM     16  C   UNL     1      -4.420 -11.618  16.489  0.00  0.00    -0.017 C 
ATOM     22  C   UNL     1      -3.939 -13.015  16.042  0.00  0.00    +0.012 C 
ATOM     23  C   UNL     1      -4.463 -11.616  18.031  0.00  0.00    +0.012 C 
BRANCH  16  21
ATOM     21  C   UNL     1      -5.840 -11.396  15.915  0.00  0.00    +0.127 C 
BRANCH  21  28
ATOM      5  O   UNL     1      -6.576  -9.144  16.417  0.00  0.00    -0.251 OA
ATOM     28  C   UNL     1      -6.176  -9.956  15.593  0.00  0.00    +0.305 C 
BRANCH  28   4
ATOM      4  O   UNL     1      -5.993  -9.652  14.284  0.00  0.00    -0.481 OA
ATOM     40  H   UNL     1      -5.552 -10.379  13.796  0.00  0.00    +0.295 HD
ENDBRANCH  28   4
ENDBRANCH  21  28
ENDBRANCH  16  21
ENDBRANCH  17  16
ENDBRANCH  18  17
ENDBRANCH  10   8
BRANCH  26  29
ATOM     29  C   UNL     1      -6.806 -10.295   5.439  0.00  0.00    +0.008 C 
ATOM     30  C   UNL     1      -7.984  -9.977   4.852  0.00  0.00    +0.008 C 
BRANCH  30  31
ATOM     31  C   UNL     1      -8.151  -9.582   3.442  0.00  0.00    -0.025 A 
ATOM     32  C   UNL     1      -7.983  -8.249   3.067  0.00  0.00    +0.011 A 
ATOM     33  C   UNL     1      -8.479 -10.540   2.484  0.00  0.00    +0.011 A 
ATOM     34  C   UNL     1      -8.142  -7.874   1.733  0.00  0.00    +0.046 A 
ATOM     35  C   UNL     1      -8.638 -10.166   1.149  0.00  0.00    +0.046 A 
ATOM     36  C   UNL     1      -8.470  -8.833   0.773  0.00  0.00    +0.120 A 
BRANCH  36   6
ATOM      6  O   UNL     1      -8.624  -8.468  -0.529  0.00  0.00    -0.495 OA
ATOM     37  C   UNL     1      -8.311  -9.447  -1.519  0.00  0.00    +0.277 C 
ENDBRANCH  36   6
ENDBRANCH  30  31
ENDBRANCH  26  29
TORSDOF 9
ENDMDL
MODEL 10
REMARK VINA RESULT:      -6.4     28.966     30.882
REMARK  Name = 9421208
REMARK  12 active torsions:
REMARK  status: ('A' for Active; 'I' for Inactive)
REMARK    1  A    between atoms: O_4  and  C_28
REMARK    2  A    between atoms: O_6  and  C_36
REMARK    3  A    between atoms: O_6  and  C_37
REMARK    4  A    between atoms: N_8  and  C_10
REMARK    5  A    between atoms: C_16  and  C_17
REMARK    6  A    between atoms: C_16  and  C_21
REMARK    7  A    between atoms: C_16  and  C_22
REMARK    8  A    between atoms: C_16  and  C_23
REMARK    9  A    between atoms: C_17  and  C_18
REMARK   10  A    between atoms: C_21  and  C_28
REMARK   11  A    between atoms: C_26  and  C_29
REMARK   12  A    between atoms: C_30  and  C_31
REMARK                            x       y       z     vdW  Elec       q    Type
REMARK                         _______ _______ _______ _____ _____    ______ ____
ROOT
ATOM      1  O   UNL     1     -12.579  11.015  16.561  0.00  0.00    -0.273 OA
ATOM      2  O   UNL     1     -12.156   7.769  20.755  0.00  0.00    -0.270 OA
ATOM      7  N   UNL     1     -11.450   8.905  18.886  0.00  0.00    -0.284 N 
ATOM      9  N   UNL     1     -13.141  11.318  18.742  0.00  0.00    -0.283 N 
ATOM     10  C   UNL     1     -10.609   8.210  16.785  0.00  0.00    +0.092 C 
ATOM     11  C   UNL     1     -11.058  10.120  18.202  0.00  0.00    +0.164 C 
ATOM     12  C   UNL     1     -10.156   9.647  17.057  0.00  0.00    +0.055 C 
ATOM     13  C   UNL     1     -11.002   7.715  18.170  0.00  0.00    +0.131 C 
ATOM     14  C   UNL     1     -12.332  10.809  17.750  0.00  0.00    +0.238 C 
ATOM     15  C   UNL     1     -11.994   8.829  20.149  0.00  0.00    +0.249 C 
ATOM     19  C   UNL     1     -12.427  10.089  20.808  0.00  0.00    +0.059 A 
ATOM     20  C   UNL     1     -13.029  11.168  20.141  0.00  0.00    +0.046 A 
ATOM     24  C   UNL     1     -12.365  10.093  22.214  0.00  0.00    +0.022 A 
ATOM     25  C   UNL     1     -13.614  12.195  20.905  0.00  0.00    +0.024 A 
ATOM     26  C   UNL     1     -12.910  11.143  22.953  0.00  0.00    -0.024 A 
ATOM     27  C   UNL     1     -13.546  12.188  22.297  0.00  0.00    +0.010 A 
ATOM     39  H   UNL     1     -13.860  11.966  18.424  0.00  0.00    +0.155 HD
ENDROOT
BRANCH  10   8
ATOM      3  O   UNL     1     -10.477   8.258  13.910  0.00  0.00    -0.276 OA
ATOM      8  N   UNL     1     -11.720   8.157  15.867  0.00  0.00    -0.311 N 
ATOM     18  C   UNL     1     -11.557   8.186  14.491  0.00  0.00    +0.214 C 
ATOM     38  H   UNL     1     -12.655   8.048  16.249  0.00  0.00    +0.149 HD
BRANCH  18  17
ATOM     17  C   UNL     1     -12.872   8.114  13.731  0.00  0.00    +0.102 C 
BRANCH  17  16
ATOM     16  C   UNL     1     -13.247   9.403  12.955  0.00  0.00    -0.017 C 
ATOM     22  C   UNL     1     -14.098   9.056  11.715  0.00  0.00    +0.012 C 
ATOM     23  C   UNL     1     -14.118  10.278  13.881  0.00  0.00    +0.012 C 
BRANCH  16  21
ATOM     21  C   UNL     1     -12.010  10.200  12.477  0.00  0.00    +0.127 C 
BRANCH  21  28
ATOM      5  O   UNL     1     -12.380  12.582  12.710  0.00  0.00    -0.251 OA
ATOM     28  C   UNL     1     -11.844  11.560  13.120  0.00  0.00    +0.305 C 
BRANCH  28   4
ATOM      4  O   UNL     1     -11.030  11.535  14.204  0.00  0.00    -0.481 OA
ATOM     40  H   UNL     1     -10.572  10.674  14.299  0.00  0.00    +0.295 HD
ENDBRANCH  28   4
ENDBRANCH  21  28
ENDBRANCH  16  21
ENDBRANCH  17  16
ENDBRANCH  18  17
ENDBRANCH  10   8
BRANCH  26  29
ATOM     29  C   UNL     1     -12.834  11.131  24.405  0.00  0.00    +0.008 C 
ATOM     30  C   UNL     1     -11.687  11.112  25.126  0.00  0.00    +0.008 C 
BRANCH  30  31
ATOM     31  C   UNL     1     -11.610  11.118  26.598  0.00  0.00    -0.025 A 
ATOM     32  C   UNL     1     -11.352   9.934  27.287  0.00  0.00    +0.011 A 
ATOM     33  C   UNL     1     -11.794  12.308  27.300  0.00  0.00    +0.011 A 
ATOM     34  C   UNL     1     -11.280   9.939  28.680  0.00  0.00    +0.046 A 
ATOM     35  C   UNL     1     -11.720  12.315  28.693  0.00  0.00    +0.046 A 
ATOM     36  C   UNL     1     -11.464  11.131  29.383  0.00  0.00    +0.120 A 
BRANCH  36   6
ATOM      6  O   UNL     1     -11.392  11.137  30.743  0.00  0.00    -0.495 OA
ATOM     37  C   UNL     1     -10.354  11.918  31.335  0.00  0.00    +0.277 C 
ENDBRANCH  36   6
ENDBRANCH  30  31
ENDBRANCH  26  29
TORSDOF 9
ENDMDL
