MODEL 1
REMARK VINA RESULT:      -6.5      0.000      0.000
REMARK  Name = 45783357
REMARK  9 active torsions:
REMARK  status: ('A' for Active; 'I' for Inactive)
REMARK    1  A    between atoms: O_2  and  C_24
REMARK    2  A    between atoms: O_2  and  C_26
REMARK    3  A    between atoms: O_3  and  C_27
REMARK    4  A    between atoms: O_3  and  C_28
REMARK    5  A    between atoms: N_4  and  C_13
REMARK    6  A    between atoms: C_9  and  C_14
REMARK    7  A    between atoms: C_13  and  C_15
REMARK    8  A    between atoms: C_16  and  C_19
REMARK    9  A    between atoms: C_26  and  C_27
REMARK                            x       y       z     vdW  Elec       q    Type
REMARK                         _______ _______ _______ _____ _____    ______ ____
ROOT
ATOM      1  O   UNL     1      14.208   6.560  20.284  0.00  0.00    -0.336 OA
ATOM      5  N   UNL     1      15.768   7.761  19.216  0.00  0.00    -0.190 NA
ATOM      6  N   UNL     1      15.360   6.495  21.078  0.00  0.00    -0.056 NA
ATOM     14  C   UNL     1      14.534   7.324  19.208  0.00  0.00    +0.245 A 
ATOM     16  C   UNL     1      16.235   7.227  20.382  0.00  0.00    +0.202 A 
ENDROOT
BRANCH  16  19
ATOM      8  N   UNL     1      20.209   7.866  21.684  0.00  0.00    -0.221 NA
ATOM     19  C   UNL     1      17.583   7.443  20.823  0.00  0.00    +0.029 A 
ATOM     22  C   UNL     1      18.599   6.592  20.406  0.00  0.00    +0.079 A 
ATOM     23  C   UNL     1      17.877   8.507  21.669  0.00  0.00    +0.031 A 
ATOM     24  C   UNL     1      19.884   6.844  20.861  0.00  0.00    +0.215 A 
ATOM     25  C   UNL     1      19.194   8.674  22.066  0.00  0.00    +0.115 A 
BRANCH  24   2
ATOM      2  O   UNL     1      20.904   6.019  20.465  0.00  0.00    -0.474 OA
BRANCH   2  26
ATOM     26  C   UNL     1      20.689   4.620  20.610  0.00  0.00    +0.258 C 
BRANCH  26  27
ATOM     27  C   UNL     1      21.911   3.997  21.256  0.00  0.00    +0.200 C 
BRANCH  27   3
ATOM      3  O   UNL     1      21.698   3.904  22.660  0.00  0.00    -0.380 OA
ATOM     28  C   UNL     1      22.582   2.968  23.260  0.00  0.00    +0.194 C 
ENDBRANCH  27   3
ENDBRANCH  26  27
ENDBRANCH   2  26
ENDBRANCH  24   2
ENDBRANCH  16  19
BRANCH  14   9
ATOM      4  N   UNL     1      12.593   8.714  18.507  0.00  0.00    -0.287 NA
ATOM      9  C   UNL     1      13.442   7.549  18.184  0.00  0.00    +0.146 C 
ATOM     10  C   UNL     1      13.997   7.846  16.779  0.00  0.00    +0.030 C 
ATOM     11  C   UNL     1      13.357   9.166  16.370  0.00  0.00    +0.017 C 
ATOM     12  C   UNL     1      12.111   9.240  17.230  0.00  0.00    +0.085 C 
BRANCH   4  13
ATOM     13  C   UNL     1      11.499   8.393  19.416  0.00  0.00    +0.121 C 
BRANCH  13  15
ATOM      7  N   UNL     1      10.845   9.621  22.937  0.00  0.00    -0.263 NA
ATOM     15  C   UNL     1      11.514   9.270  20.640  0.00  0.00    -0.015 A 
ATOM     17  C   UNL     1      12.169  10.495  20.636  0.00  0.00    +0.008 A 
ATOM     18  C   UNL     1      10.872   8.882  21.805  0.00  0.00    +0.115 A 
ATOM     20  C   UNL     1      12.164  11.285  21.781  0.00  0.00    +0.020 A 
ATOM     21  C   UNL     1      11.493  10.807  22.894  0.00  0.00    +0.111 A 
ENDBRANCH  13  15
ENDBRANCH   4  13
ENDBRANCH  14   9
TORSDOF 8
ENDMDL
MODEL 2
REMARK VINA RESULT:      -6.5      1.569      3.396
REMARK  Name = 45783357
REMARK  9 active torsions:
REMARK  status: ('A' for Active; 'I' for Inactive)
REMARK    1  A    between atoms: O_2  and  C_24
REMARK    2  A    between atoms: O_2  and  C_26
REMARK    3  A    between atoms: O_3  and  C_27
REMARK    4  A    between atoms: O_3  and  C_28
REMARK    5  A    between atoms: N_4  and  C_13
REMARK    6  A    between atoms: C_9  and  C_14
REMARK    7  A    between atoms: C_13  and  C_15
REMARK    8  A    between atoms: C_16  and  C_19
REMARK    9  A    between atoms: C_26  and  C_27
REMARK                            x       y       z     vdW  Elec       q    Type
REMARK                         _______ _______ _______ _____ _____    ______ ____
ROOT
ATOM      1  O   UNL     1      14.569   7.040  19.583  0.00  0.00    -0.336 OA
ATOM      5  N   UNL     1      15.667   7.967  21.301  0.00  0.00    -0.190 NA
ATOM      6  N   UNL     1      15.904   6.639  19.453  0.00  0.00    -0.056 NA
ATOM     14  C   UNL     1      14.516   7.819  20.696  0.00  0.00    +0.245 A 
ATOM     16  C   UNL     1      16.488   7.226  20.503  0.00  0.00    +0.202 A 
ENDROOT
BRANCH  16  19
ATOM      8  N   UNL     1      20.620   6.832  21.322  0.00  0.00    -0.221 NA
ATOM     19  C   UNL     1      17.889   7.092  20.781  0.00  0.00    +0.029 A 
ATOM     22  C   UNL     1      18.577   5.956  20.368  0.00  0.00    +0.079 A 
ATOM     23  C   UNL     1      18.565   8.098  21.462  0.00  0.00    +0.031 A 
ATOM     24  C   UNL     1      19.929   5.875  20.661  0.00  0.00    +0.215 A 
ATOM     25  C   UNL     1      19.917   7.922  21.705  0.00  0.00    +0.115 A 
BRANCH  24   2
ATOM      2  O   UNL     1      20.630   4.766  20.266  0.00  0.00    -0.474 OA
BRANCH   2  26
ATOM     26  C   UNL     1      21.965   4.649  20.743  0.00  0.00    +0.258 C 
BRANCH  26  27
ATOM     27  C   UNL     1      22.069   3.420  21.626  0.00  0.00    +0.200 C 
BRANCH  27   3
ATOM      3  O   UNL     1      23.027   3.663  22.649  0.00  0.00    -0.380 OA
ATOM     28  C   UNL     1      22.604   4.698  23.524  0.00  0.00    +0.194 C 
ENDBRANCH  27   3
ENDBRANCH  26  27
ENDBRANCH   2  26
ENDBRANCH  24   2
ENDBRANCH  16  19
BRANCH  14   9
ATOM      4  N   UNL     1      12.325   8.664  19.873  0.00  0.00    -0.287 NA
ATOM      9  C   UNL     1      13.159   8.385  21.059  0.00  0.00    +0.146 C 
ATOM     10  C   UNL     1      12.319   7.414  21.909  0.00  0.00    +0.030 C 
ATOM     11  C   UNL     1      11.008   7.255  21.151  0.00  0.00    +0.017 C 
ATOM     12  C   UNL     1      10.935   8.507  20.299  0.00  0.00    +0.085 C 
BRANCH   4  13
ATOM     13  C   UNL     1      12.575   9.977  19.291  0.00  0.00    +0.121 C 
BRANCH  13  15
ATOM      7  N   UNL     1      13.439   8.700  15.834  0.00  0.00    -0.263 NA
ATOM     15  C   UNL     1      13.222   9.875  17.935  0.00  0.00    -0.015 A 
ATOM     17  C   UNL     1      14.170  10.804  17.522  0.00  0.00    +0.008 A 
ATOM     18  C   UNL     1      12.894   8.850  17.062  0.00  0.00    +0.115 A 
ATOM     20  C   UNL     1      14.754  10.682  16.266  0.00  0.00    +0.020 A 
ATOM     21  C   UNL     1      14.358   9.622  15.468  0.00  0.00    +0.111 A 
ENDBRANCH  13  15
ENDBRANCH   4  13
ENDBRANCH  14   9
TORSDOF 8
ENDMDL
MODEL 3
REMARK VINA RESULT:      -6.4     26.235     29.638
REMARK  Name = 45783357
REMARK  9 active torsions:
REMARK  status: ('A' for Active; 'I' for Inactive)
REMARK    1  A    between atoms: O_2  and  C_24
REMARK    2  A    between atoms: O_2  and  C_26
REMARK    3  A    between atoms: O_3  and  C_27
REMARK    4  A    between atoms: O_3  and  C_28
REMARK    5  A    between atoms: N_4  and  C_13
REMARK    6  A    between atoms: C_9  and  C_14
REMARK    7  A    between atoms: C_13  and  C_15
REMARK    8  A    between atoms: C_16  and  C_19
REMARK    9  A    between atoms: C_26  and  C_27
REMARK                            x       y       z     vdW  Elec       q    Type
REMARK                         _______ _______ _______ _____ _____    ______ ____
ROOT
ATOM      1  O   UNL     1      -3.975 -11.192  17.958  0.00  0.00    -0.336 OA
ATOM      5  N   UNL     1      -5.387 -10.625  16.315  0.00  0.00    -0.190 NA
ATOM      6  N   UNL     1      -5.195 -10.897  18.579  0.00  0.00    -0.056 NA
ATOM     14  C   UNL     1      -4.174 -11.006  16.626  0.00  0.00    +0.245 A 
ATOM     16  C   UNL     1      -5.976 -10.572  17.544  0.00  0.00    +0.202 A 
ENDROOT
BRANCH  16  19
ATOM      8  N   UNL     1     -10.025  -9.443  18.022  0.00  0.00    -0.221 NA
ATOM     19  C   UNL     1      -7.349 -10.188  17.706  0.00  0.00    +0.029 A 
ATOM     22  C   UNL     1      -7.874  -9.138  16.962  0.00  0.00    +0.079 A 
ATOM     23  C   UNL     1      -8.161 -10.867  18.608  0.00  0.00    +0.031 A 
ATOM     24  C   UNL     1      -9.205  -8.807  17.155  0.00  0.00    +0.215 A 
ATOM     25  C   UNL     1      -9.480 -10.460  18.728  0.00  0.00    +0.115 A 
BRANCH  24   2
ATOM      2  O   UNL     1      -9.746  -7.775  16.434  0.00  0.00    -0.474 OA
BRANCH   2  26
ATOM     26  C   UNL     1     -11.092  -7.422  16.732  0.00  0.00    +0.258 C 
BRANCH  26  27
ATOM     27  C   UNL     1     -11.313  -5.967  16.367  0.00  0.00    +0.200 C 
BRANCH  27   3
ATOM      3  O   UNL     1     -11.083  -5.798  14.973  0.00  0.00    -0.380 OA
ATOM     28  C   UNL     1     -12.283  -5.485  14.281  0.00  0.00    +0.194 C 
ENDBRANCH  27   3
ENDBRANCH  26  27
ENDBRANCH   2  26
ENDBRANCH  24   2
ENDBRANCH  16  19
BRANCH  14   9
ATOM      4  N   UNL     1      -3.086 -10.546  14.436  0.00  0.00    -0.287 NA
ATOM      9  C   UNL     1      -2.986 -11.264  15.723  0.00  0.00    +0.146 C 
ATOM     10  C   UNL     1      -1.658 -10.784  16.337  0.00  0.00    +0.030 C 
ATOM     11  C   UNL     1      -1.055  -9.849  15.297  0.00  0.00    +0.017 C 
ATOM     12  C   UNL     1      -1.714 -10.283  14.003  0.00  0.00    +0.085 C 
BRANCH   4  13
ATOM     13  C   UNL     1      -3.848 -11.276  13.429  0.00  0.00    +0.121 C 
BRANCH  13  15
ATOM      7  N   UNL     1      -6.444  -8.938  11.970  0.00  0.00    -0.263 NA
ATOM     15  C   UNL     1      -4.543 -10.345  12.471  0.00  0.00    -0.015 A 
ATOM     17  C   UNL     1      -3.977 -10.030  11.241  0.00  0.00    +0.008 A 
ATOM     18  C   UNL     1      -5.768  -9.778  12.785  0.00  0.00    +0.115 A 
ATOM     20  C   UNL     1      -4.643  -9.169  10.375  0.00  0.00    +0.020 A 
ATOM     21  C   UNL     1      -5.863  -8.656  10.783  0.00  0.00    +0.111 A 
ENDBRANCH  13  15
ENDBRANCH   4  13
ENDBRANCH  14   9
TORSDOF 8
ENDMDL
MODEL 4
REMARK VINA RESULT:      -6.3      2.023      9.310
REMARK  Name = 45783357
REMARK  9 active torsions:
REMARK  status: ('A' for Active; 'I' for Inactive)
REMARK    1  A    between atoms: O_2  and  C_24
REMARK    2  A    between atoms: O_2  and  C_26
REMARK    3  A    between atoms: O_3  and  C_27
REMARK    4  A    between atoms: O_3  and  C_28
REMARK    5  A    between atoms: N_4  and  C_13
REMARK    6  A    between atoms: C_9  and  C_14
REMARK    7  A    between atoms: C_13  and  C_15
REMARK    8  A    between atoms: C_16  and  C_19
REMARK    9  A    between atoms: C_26  and  C_27
REMARK                            x       y       z     vdW  Elec       q    Type
REMARK                         _______ _______ _______ _____ _____    ______ ____
ROOT
ATOM      1  O   UNL     1      17.935   5.677  19.273  0.00  0.00    -0.336 OA
ATOM      5  N   UNL     1      16.670   7.106  20.445  0.00  0.00    -0.190 NA
ATOM      6  N   UNL     1      16.703   5.738  18.611  0.00  0.00    -0.056 NA
ATOM     14  C   UNL     1      17.831   6.511  20.342  0.00  0.00    +0.245 A 
ATOM     16  C   UNL     1      16.011   6.601  19.362  0.00  0.00    +0.202 A 
ENDROOT
BRANCH  16  19
ATOM      8  N   UNL     1      12.030   7.713  18.463  0.00  0.00    -0.221 NA
ATOM     19  C   UNL     1      14.661   6.977  19.057  0.00  0.00    +0.029 A 
ATOM     22  C   UNL     1      13.644   6.728  19.971  0.00  0.00    +0.079 A 
ATOM     23  C   UNL     1      14.366   7.595  17.847  0.00  0.00    +0.031 A 
ATOM     24  C   UNL     1      12.357   7.111  19.629  0.00  0.00    +0.215 A 
ATOM     25  C   UNL     1      13.047   7.940  17.601  0.00  0.00    +0.115 A 
BRANCH  24   2
ATOM      2  O   UNL     1      11.335   6.876  20.512  0.00  0.00    -0.474 OA
BRANCH   2  26
ATOM     26  C   UNL     1      11.573   7.219  21.872  0.00  0.00    +0.258 C 
BRANCH  26  27
ATOM     27  C   UNL     1      10.547   8.247  22.309  0.00  0.00    +0.200 C 
BRANCH  27   3
ATOM      3  O   UNL     1      11.222   9.423  22.740  0.00  0.00    -0.380 OA
ATOM     28  C   UNL     1      11.571  10.254  21.642  0.00  0.00    +0.194 C 
ENDBRANCH  27   3
ENDBRANCH  26  27
ENDBRANCH   2  26
ENDBRANCH  24   2
ENDBRANCH  16  19
BRANCH  14   9
ATOM      4  N   UNL     1      20.309   6.354  20.506  0.00  0.00    -0.287 NA
ATOM      9  C   UNL     1      19.051   6.623  21.232  0.00  0.00    +0.146 C 
ATOM     10  C   UNL     1      19.231   8.037  21.816  0.00  0.00    +0.030 C 
ATOM     11  C   UNL     1      20.641   8.454  21.420  0.00  0.00    +0.017 C 
ATOM     12  C   UNL     1      21.348   7.135  21.177  0.00  0.00    +0.085 C 
BRANCH   4  13
ATOM     13  C   UNL     1      20.644   4.937  20.443  0.00  0.00    +0.121 C 
BRANCH  13  15
ATOM      7  N   UNL     1      24.336   4.435  21.113  0.00  0.00    -0.263 NA
ATOM     15  C   UNL     1      21.927   4.633  21.170  0.00  0.00    -0.015 A 
ATOM     17  C   UNL     1      21.922   4.275  22.513  0.00  0.00    +0.008 A 
ATOM     18  C   UNL     1      23.150   4.698  20.520  0.00  0.00    +0.115 A 
ATOM     20  C   UNL     1      23.123   3.997  23.157  0.00  0.00    +0.020 A 
ATOM     21  C   UNL     1      24.291   4.090  22.419  0.00  0.00    +0.111 A 
ENDBRANCH  13  15
ENDBRANCH   4  13
ENDBRANCH  14   9
TORSDOF 8
ENDMDL
MODEL 5
REMARK VINA RESULT:      -6.3      2.463      8.906
REMARK  Name = 45783357
REMARK  9 active torsions:
REMARK  status: ('A' for Active; 'I' for Inactive)
REMARK    1  A    between atoms: O_2  and  C_24
REMARK    2  A    between atoms: O_2  and  C_26
REMARK    3  A    between atoms: O_3  and  C_27
REMARK    4  A    between atoms: O_3  and  C_28
REMARK    5  A    between atoms: N_4  and  C_13
REMARK    6  A    between atoms: C_9  and  C_14
REMARK    7  A    between atoms: C_13  and  C_15
REMARK    8  A    between atoms: C_16  and  C_19
REMARK    9  A    between atoms: C_26  and  C_27
REMARK                            x       y       z     vdW  Elec       q    Type
REMARK                         _______ _______ _______ _____ _____    ______ ____
ROOT
ATOM      1  O   UNL     1      18.000   7.140  20.316  0.00  0.00    -0.336 OA
ATOM      5  N   UNL     1      16.385   8.321  21.323  0.00  0.00    -0.190 NA
ATOM      6  N   UNL     1      16.791   6.673  19.788  0.00  0.00    -0.056 NA
ATOM     14  C   UNL     1      17.672   8.109  21.212  0.00  0.00    +0.245 A 
ATOM     16  C   UNL     1      15.886   7.418  20.431  0.00  0.00    +0.202 A 
ENDROOT
BRANCH  16  19
ATOM      8  N   UNL     1      11.727   7.019  19.765  0.00  0.00    -0.221 NA
ATOM     19  C   UNL     1      14.475   7.283  20.205  0.00  0.00    +0.029 A 
ATOM     22  C   UNL     1      13.963   7.377  18.916  0.00  0.00    +0.079 A 
ATOM     23  C   UNL     1      13.616   7.056  21.274  0.00  0.00    +0.031 A 
ATOM     24  C   UNL     1      12.594   7.239  18.751  0.00  0.00    +0.215 A 
ATOM     25  C   UNL     1      12.263   6.933  21.004  0.00  0.00    +0.115 A 
BRANCH  24   2
ATOM      2  O   UNL     1      12.063   7.328  17.491  0.00  0.00    -0.474 OA
BRANCH   2  26
ATOM     26  C   UNL     1      11.313   8.500  17.193  0.00  0.00    +0.258 C 
BRANCH  26  27
ATOM     27  C   UNL     1      12.002   9.257  16.075  0.00  0.00    +0.200 C 
BRANCH  27   3
ATOM      3  O   UNL     1      13.120   9.957  16.609  0.00  0.00    -0.380 OA
ATOM     28  C   UNL     1      14.289   9.741  15.832  0.00  0.00    +0.194 C 
ENDBRANCH  27   3
ENDBRANCH  26  27
ENDBRANCH   2  26
ENDBRANCH  24   2
ENDBRANCH  16  19
BRANCH  14   9
ATOM      4  N   UNL     1      20.071   7.994  21.863  0.00  0.00    -0.287 NA
ATOM      9  C   UNL     1      18.823   8.781  21.931  0.00  0.00    +0.146 C 
ATOM     10  C   UNL     1      19.188  10.147  21.319  0.00  0.00    +0.030 C 
ATOM     11  C   UNL     1      20.673  10.054  20.997  0.00  0.00    +0.017 C 
ATOM     12  C   UNL     1      21.170   8.958  21.919  0.00  0.00    +0.085 C 
BRANCH   4  13
ATOM     13  C   UNL     1      20.173   6.987  22.913  0.00  0.00    +0.121 C 
BRANCH  13  15
ATOM      7  N   UNL     1      22.842   4.302  22.917  0.00  0.00    -0.263 NA
ATOM     15  C   UNL     1      21.002   5.808  22.478  0.00  0.00    -0.015 A 
ATOM     17  C   UNL     1      20.734   5.145  21.286  0.00  0.00    +0.008 A 
ATOM     18  C   UNL     1      22.058   5.352  23.251  0.00  0.00    +0.115 A 
ATOM     20  C   UNL     1      21.519   4.060  20.909  0.00  0.00    +0.020 A 
ATOM     21  C   UNL     1      22.551   3.683  21.752  0.00  0.00    +0.111 A 
ENDBRANCH  13  15
ENDBRANCH   4  13
ENDBRANCH  14   9
TORSDOF 8
ENDMDL
MODEL 6
REMARK VINA RESULT:      -6.0     26.601     29.845
REMARK  Name = 45783357
REMARK  9 active torsions:
REMARK  status: ('A' for Active; 'I' for Inactive)
REMARK    1  A    between atoms: O_2  and  C_24
REMARK    2  A    between atoms: O_2  and  C_26
REMARK    3  A    between atoms: O_3  and  C_27
REMARK    4  A    between atoms: O_3  and  C_28
REMARK    5  A    between atoms: N_4  and  C_13
REMARK    6  A    between atoms: C_9  and  C_14
REMARK    7  A    between atoms: C_13  and  C_15
REMARK    8  A    between atoms: C_16  and  C_19
REMARK    9  A    between atoms: C_26  and  C_27
REMARK                            x       y       z     vdW  Elec       q    Type
REMARK                         _______ _______ _______ _____ _____    ______ ____
ROOT
ATOM      1  O   UNL     1      -5.120  -9.933  15.475  0.00  0.00    -0.336 OA
ATOM      5  N   UNL     1      -4.961 -11.636  16.922  0.00  0.00    -0.190 NA
ATOM      6  N   UNL     1      -6.298  -9.912  16.231  0.00  0.00    -0.056 NA
ATOM     14  C   UNL     1      -4.388 -10.979  15.945  0.00  0.00    +0.245 A 
ATOM     16  C   UNL     1      -6.129 -10.946  17.062  0.00  0.00    +0.202 A 
ENDROOT
BRANCH  16  19
ATOM      8  N   UNL     1      -9.020 -12.036  19.953  0.00  0.00    -0.221 NA
ATOM     19  C   UNL     1      -7.110 -11.315  18.042  0.00  0.00    +0.029 A 
ATOM     22  C   UNL     1      -8.373 -10.735  18.020  0.00  0.00    +0.079 A 
ATOM     23  C   UNL     1      -6.800 -12.256  19.018  0.00  0.00    +0.031 A 
ATOM     24  C   UNL     1      -9.283 -11.125  18.988  0.00  0.00    +0.215 A 
ATOM     25  C   UNL     1      -7.781 -12.579  19.942  0.00  0.00    +0.115 A 
BRANCH  24   2
ATOM      2  O   UNL     1     -10.535 -10.568  18.988  0.00  0.00    -0.474 OA
BRANCH   2  26
ATOM     26  C   UNL     1     -11.074 -10.204  17.723  0.00  0.00    +0.258 C 
BRANCH  26  27
ATOM     27  C   UNL     1     -11.802  -8.880  17.858  0.00  0.00    +0.200 C 
BRANCH  27   3
ATOM      3  O   UNL     1     -11.487  -8.062  16.738  0.00  0.00    -0.380 OA
ATOM     28  C   UNL     1     -10.119  -7.676  16.742  0.00  0.00    +0.194 C 
ENDBRANCH  27   3
ENDBRANCH  26  27
ENDBRANCH   2  26
ENDBRANCH  24   2
ENDBRANCH  16  19
BRANCH  14   9
ATOM      4  N   UNL     1      -2.902 -10.471  14.016  0.00  0.00    -0.287 NA
ATOM      9  C   UNL     1      -3.048 -11.217  15.282  0.00  0.00    +0.146 C 
ATOM     10  C   UNL     1      -1.865 -10.752  16.150  0.00  0.00    +0.030 C 
ATOM     11  C   UNL     1      -1.076  -9.795  15.266  0.00  0.00    +0.017 C 
ATOM     12  C   UNL     1      -1.473 -10.198  13.860  0.00  0.00    +0.085 C 
BRANCH   4  13
ATOM     13  C   UNL     1      -3.453 -11.176  12.865  0.00  0.00    +0.121 C 
BRANCH  13  15
ATOM      7  N   UNL     1      -5.665  -8.716  11.024  0.00  0.00    -0.263 NA
ATOM     15  C   UNL     1      -3.945 -10.224  11.808  0.00  0.00    -0.015 A 
ATOM     17  C   UNL     1      -3.189  -9.965  10.670  0.00  0.00    +0.008 A 
ATOM     18  C   UNL     1      -5.165  -9.580  11.936  0.00  0.00    +0.115 A 
ATOM     20  C   UNL     1      -3.670  -9.082   9.708  0.00  0.00    +0.020 A 
ATOM     21  C   UNL     1      -4.902  -8.490   9.931  0.00  0.00    +0.111 A 
ENDBRANCH  13  15
ENDBRANCH   4  13
ENDBRANCH  14   9
TORSDOF 8
ENDMDL
MODEL 7
REMARK VINA RESULT:      -5.9     27.101     30.048
REMARK  Name = 45783357
REMARK  9 active torsions:
REMARK  status: ('A' for Active; 'I' for Inactive)
REMARK    1  A    between atoms: O_2  and  C_24
REMARK    2  A    between atoms: O_2  and  C_26
REMARK    3  A    between atoms: O_3  and  C_27
REMARK    4  A    between atoms: O_3  and  C_28
REMARK    5  A    between atoms: N_4  and  C_13
REMARK    6  A    between atoms: C_9  and  C_14
REMARK    7  A    between atoms: C_13  and  C_15
REMARK    8  A    between atoms: C_16  and  C_19
REMARK    9  A    between atoms: C_26  and  C_27
REMARK                            x       y       z     vdW  Elec       q    Type
REMARK                         _______ _______ _______ _____ _____    ______ ____
ROOT
ATOM      1  O   UNL     1      -5.184  -9.697  15.673  0.00  0.00    -0.336 OA
ATOM      5  N   UNL     1      -5.313 -11.526  16.960  0.00  0.00    -0.190 NA
ATOM      6  N   UNL     1      -6.389  -9.592  16.378  0.00  0.00    -0.056 NA
ATOM     14  C   UNL     1      -4.613 -10.864  16.074  0.00  0.00    +0.245 A 
ATOM     16  C   UNL     1      -6.394 -10.707  17.116  0.00  0.00    +0.202 A 
ENDROOT
BRANCH  16  19
ATOM      8  N   UNL     1      -9.545 -11.664  19.770  0.00  0.00    -0.221 NA
ATOM     19  C   UNL     1      -7.462 -11.032  18.016  0.00  0.00    +0.029 A 
ATOM     22  C   UNL     1      -7.351 -12.126  18.866  0.00  0.00    +0.079 A 
ATOM     23  C   UNL     1      -8.614 -10.253  18.042  0.00  0.00    +0.031 A 
ATOM     24  C   UNL     1      -8.411 -12.397  19.716  0.00  0.00    +0.215 A 
ATOM     25  C   UNL     1      -9.617 -10.607  18.929  0.00  0.00    +0.115 A 
BRANCH  24   2
ATOM      2  O   UNL     1      -8.326 -13.471  20.564  0.00  0.00    -0.474 OA
BRANCH   2  26
ATOM     26  C   UNL     1      -9.332 -14.468  20.437  0.00  0.00    +0.258 C 
BRANCH  26  27
ATOM     27  C   UNL     1      -9.996 -14.676  21.785  0.00  0.00    +0.200 C 
BRANCH  27   3
ATOM      3  O   UNL     1      -9.128 -15.436  22.618  0.00  0.00    -0.380 OA
ATOM     28  C   UNL     1      -8.794 -16.681  22.022  0.00  0.00    +0.194 C 
ENDBRANCH  27   3
ENDBRANCH  26  27
ENDBRANCH   2  26
ENDBRANCH  24   2
ENDBRANCH  16  19
BRANCH  14   9
ATOM      4  N   UNL     1      -3.054 -10.510  14.167  0.00  0.00    -0.287 NA
ATOM      9  C   UNL     1      -3.280 -11.213  15.447  0.00  0.00    +0.146 C 
ATOM     10  C   UNL     1      -2.085 -10.811  16.331  0.00  0.00    +0.030 C 
ATOM     11  C   UNL     1      -1.212  -9.934  15.443  0.00  0.00    +0.017 C 
ATOM     12  C   UNL     1      -1.607 -10.343  14.039  0.00  0.00    +0.085 C 
BRANCH   4  13
ATOM     13  C   UNL     1      -3.629 -11.204  13.021  0.00  0.00    +0.121 C 
BRANCH  13  15
ATOM      7  N   UNL     1      -5.673  -8.696  11.055  0.00  0.00    -0.263 NA
ATOM     15  C   UNL     1      -4.038 -10.245  11.935  0.00  0.00    -0.015 A 
ATOM     17  C   UNL     1      -3.217 -10.014  10.837  0.00  0.00    +0.008 A 
ATOM     18  C   UNL     1      -5.246  -9.568  11.996  0.00  0.00    +0.115 A 
ATOM     20  C   UNL     1      -3.623  -9.125   9.847  0.00  0.00    +0.020 A 
ATOM     21  C   UNL     1      -4.848  -8.498  10.002  0.00  0.00    +0.111 A 
ENDBRANCH  13  15
ENDBRANCH   4  13
ENDBRANCH  14   9
TORSDOF 8
ENDMDL
MODEL 8
REMARK VINA RESULT:      -5.9     16.243     20.413
REMARK  Name = 45783357
REMARK  9 active torsions:
REMARK  status: ('A' for Active; 'I' for Inactive)
REMARK    1  A    between atoms: O_2  and  C_24
REMARK    2  A    between atoms: O_2  and  C_26
REMARK    3  A    between atoms: O_3  and  C_27
REMARK    4  A    between atoms: O_3  and  C_28
REMARK    5  A    between atoms: N_4  and  C_13
REMARK    6  A    between atoms: C_9  and  C_14
REMARK    7  A    between atoms: C_13  and  C_15
REMARK    8  A    between atoms: C_16  and  C_19
REMARK    9  A    between atoms: C_26  and  C_27
REMARK                            x       y       z     vdW  Elec       q    Type
REMARK                         _______ _______ _______ _____ _____    ______ ____
ROOT
ATOM      1  O   UNL     1      11.648   3.575   2.615  0.00  0.00    -0.336 OA
ATOM      5  N   UNL     1      11.796   5.757   2.133  0.00  0.00    -0.190 NA
ATOM      6  N   UNL     1      10.550   4.184   3.233  0.00  0.00    -0.056 NA
ATOM     14  C   UNL     1      12.331   4.571   1.990  0.00  0.00    +0.245 A 
ATOM     16  C   UNL     1      10.707   5.470   2.903  0.00  0.00    +0.202 A 
ENDROOT
BRANCH  16  19
ATOM      8  N   UNL     1       8.013   8.483   4.152  0.00  0.00    -0.221 NA
ATOM     19  C   UNL     1       9.793   6.492   3.327  0.00  0.00    +0.029 A 
ATOM     22  C   UNL     1       9.464   6.620   4.671  0.00  0.00    +0.079 A 
ATOM     23  C   UNL     1       9.234   7.358   2.394  0.00  0.00    +0.031 A 
ATOM     24  C   UNL     1       8.576   7.622   5.029  0.00  0.00    +0.215 A 
ATOM     25  C   UNL     1       8.358   8.328   2.853  0.00  0.00    +0.115 A 
BRANCH  24   2
ATOM      2  O   UNL     1       8.235   7.770   6.348  0.00  0.00    -0.474 OA
BRANCH   2  26
ATOM     26  C   UNL     1       9.291   7.678   7.297  0.00  0.00    +0.258 C 
BRANCH  26  27
ATOM     27  C   UNL     1       8.951   6.606   8.313  0.00  0.00    +0.200 C 
BRANCH  27   3
ATOM      3  O   UNL     1       9.840   5.508   8.144  0.00  0.00    -0.380 OA
ATOM     28  C   UNL     1       9.523   4.440   9.025  0.00  0.00    +0.194 C 
ENDBRANCH  27   3
ENDBRANCH  26  27
ENDBRANCH   2  26
ENDBRANCH  24   2
ENDBRANCH  16  19
BRANCH  14   9
ATOM      4  N   UNL     1      13.398   4.209  -0.228  0.00  0.00    -0.287 NA
ATOM      9  C   UNL     1      13.580   4.164   1.237  0.00  0.00    +0.146 C 
ATOM     10  C   UNL     1      14.771   5.101   1.513  0.00  0.00    +0.030 C 
ATOM     11  C   UNL     1      15.229   5.574   0.140  0.00  0.00    +0.017 C 
ATOM     12  C   UNL     1      14.713   4.502  -0.798  0.00  0.00    +0.085 C 
BRANCH   4  13
ATOM     13  C   UNL     1      12.825   2.984  -0.774  0.00  0.00    +0.121 C 
BRANCH  13  15
ATOM      7  N   UNL     1       9.735   4.629  -2.217  0.00  0.00    -0.263 NA
ATOM     15  C   UNL     1      11.665   3.270  -1.690  0.00  0.00    -0.015 A 
ATOM     17  C   UNL     1      11.429   2.486  -2.813  0.00  0.00    +0.008 A 
ATOM     18  C   UNL     1      10.796   4.320  -1.438  0.00  0.00    +0.115 A 
ATOM     20  C   UNL     1      10.347   2.772  -3.640  0.00  0.00    +0.020 A 
ATOM     21  C   UNL     1       9.538   3.844  -3.300  0.00  0.00    +0.111 A 
ENDBRANCH  13  15
ENDBRANCH   4  13
ENDBRANCH  14   9
TORSDOF 8
ENDMDL
MODEL 9
REMARK VINA RESULT:      -5.8     15.488     19.399
REMARK  Name = 45783357
REMARK  9 active torsions:
REMARK  status: ('A' for Active; 'I' for Inactive)
REMARK    1  A    between atoms: O_2  and  C_24
REMARK    2  A    between atoms: O_2  and  C_26
REMARK    3  A    between atoms: O_3  and  C_27
REMARK    4  A    between atoms: O_3  and  C_28
REMARK    5  A    between atoms: N_4  and  C_13
REMARK    6  A    between atoms: C_9  and  C_14
REMARK    7  A    between atoms: C_13  and  C_15
REMARK    8  A    between atoms: C_16  and  C_19
REMARK    9  A    between atoms: C_26  and  C_27
REMARK                            x       y       z     vdW  Elec       q    Type
REMARK                         _______ _______ _______ _____ _____    ______ ____
ROOT
ATOM      1  O   UNL     1      10.562   7.057   3.843  0.00  0.00    -0.336 OA
ATOM      5  N   UNL     1      10.903   4.843   3.840  0.00  0.00    -0.190 NA
ATOM      6  N   UNL     1      11.074   6.744   2.578  0.00  0.00    -0.056 NA
ATOM     14  C   UNL     1      10.493   5.882   4.523  0.00  0.00    +0.245 A 
ATOM     16  C   UNL     1      11.249   5.421   2.654  0.00  0.00    +0.202 A 
ENDROOT
BRANCH  16  19
ATOM      8  N   UNL     1      12.781   3.142  -0.564  0.00  0.00    -0.221 NA
ATOM     19  C   UNL     1      11.768   4.648   1.562  0.00  0.00    +0.029 A 
ATOM     22  C   UNL     1      10.958   4.343   0.475  0.00  0.00    +0.079 A 
ATOM     23  C   UNL     1      13.085   4.202   1.588  0.00  0.00    +0.031 A 
ATOM     24  C   UNL     1      11.507   3.594  -0.553  0.00  0.00    +0.215 A 
ATOM     25  C   UNL     1      13.539   3.460   0.510  0.00  0.00    +0.115 A 
BRANCH  24   2
ATOM      2  O   UNL     1      10.729   3.279  -1.637  0.00  0.00    -0.474 OA
BRANCH   2  26
ATOM     26  C   UNL     1      11.391   3.173  -2.892  0.00  0.00    +0.258 C 
BRANCH  26  27
ATOM     27  C   UNL     1      10.371   2.838  -3.962  0.00  0.00    +0.200 C 
BRANCH  27   3
ATOM      3  O   UNL     1       9.088   3.282  -3.536  0.00  0.00    -0.380 OA
ATOM     28  C   UNL     1       8.677   4.441  -4.246  0.00  0.00    +0.194 C 
ENDBRANCH  27   3
ENDBRANCH  26  27
ENDBRANCH   2  26
ENDBRANCH  24   2
ENDBRANCH  16  19
BRANCH  14   9
ATOM      4  N   UNL     1      10.599   7.026   6.730  0.00  0.00    -0.287 NA
ATOM      9  C   UNL     1       9.963   5.953   5.940  0.00  0.00    +0.146 C 
ATOM     10  C   UNL     1       8.456   6.267   5.995  0.00  0.00    +0.030 C 
ATOM     11  C   UNL     1       8.339   7.494   6.888  0.00  0.00    +0.017 C 
ATOM     12  C   UNL     1       9.607   7.456   7.716  0.00  0.00    +0.085 C 
BRANCH   4  13
ATOM     13  C   UNL     1      11.850   6.615   7.356  0.00  0.00    +0.121 C 
BRANCH  13  15
ATOM      7  N   UNL     1      15.297   7.746   6.271  0.00  0.00    -0.263 NA
ATOM     15  C   UNL     1      12.993   7.516   6.967  0.00  0.00    -0.015 A 
ATOM     17  C   UNL     1      12.839   8.897   6.940  0.00  0.00    +0.008 A 
ATOM     18  C   UNL     1      14.231   6.994   6.627  0.00  0.00    +0.115 A 
ATOM     20  C   UNL     1      13.913   9.704   6.580  0.00  0.00    +0.020 A 
ATOM     21  C   UNL     1      15.109   9.084   6.258  0.00  0.00    +0.111 A 
ENDBRANCH  13  15
ENDBRANCH   4  13
ENDBRANCH  14   9
TORSDOF 8
ENDMDL
MODEL 10
REMARK VINA RESULT:      -5.8      3.541      7.967
REMARK  Name = 45783357
REMARK  9 active torsions:
REMARK  status: ('A' for Active; 'I' for Inactive)
REMARK    1  A    between atoms: O_2  and  C_24
REMARK    2  A    between atoms: O_2  and  C_26
REMARK    3  A    between atoms: O_3  and  C_27
REMARK    4  A    between atoms: O_3  and  C_28
REMARK    5  A    between atoms: N_4  and  C_13
REMARK    6  A    between atoms: C_9  and  C_14
REMARK    7  A    between atoms: C_13  and  C_15
REMARK    8  A    between atoms: C_16  and  C_19
REMARK    9  A    between atoms: C_26  and  C_27
REMARK                            x       y       z     vdW  Elec       q    Type
REMARK                         _______ _______ _______ _____ _____    ______ ____
ROOT
ATOM      1  O   UNL     1      17.330   9.583  21.341  0.00  0.00    -0.336 OA
ATOM      5  N   UNL     1      15.291   9.365  22.243  0.00  0.00    -0.190 NA
ATOM      6  N   UNL     1      16.987  10.847  21.838  0.00  0.00    -0.056 NA
ATOM     14  C   UNL     1      16.277   8.770  21.620  0.00  0.00    +0.245 A 
ATOM     16  C   UNL     1      15.772  10.637  22.355  0.00  0.00    +0.202 A 
ENDROOT
BRANCH  16  19
ATOM      8  N   UNL     1      13.536  13.704  24.221  0.00  0.00    -0.221 NA
ATOM     19  C   UNL     1      15.013  11.677  22.988  0.00  0.00    +0.029 A 
ATOM     22  C   UNL     1      14.098  11.364  23.986  0.00  0.00    +0.079 A 
ATOM     23  C   UNL     1      15.192  13.002  22.605  0.00  0.00    +0.031 A 
ATOM     24  C   UNL     1      13.391  12.405  24.566  0.00  0.00    +0.215 A 
ATOM     25  C   UNL     1      14.436  13.969  23.247  0.00  0.00    +0.115 A 
BRANCH  24   2
ATOM      2  O   UNL     1      12.482  12.123  25.553  0.00  0.00    -0.474 OA
BRANCH   2  26
ATOM     26  C   UNL     1      11.107  12.275  25.219  0.00  0.00    +0.258 C 
BRANCH  26  27
ATOM     27  C   UNL     1      10.573  13.530  25.882  0.00  0.00    +0.200 C 
BRANCH  27   3
ATOM      3  O   UNL     1      10.119  14.428  24.876  0.00  0.00    -0.380 OA
ATOM     28  C   UNL     1      10.002  13.783  23.616  0.00  0.00    +0.194 C 
ENDBRANCH  27   3
ENDBRANCH  26  27
ENDBRANCH   2  26
ENDBRANCH  24   2
ENDBRANCH  16  19
BRANCH  14   9
ATOM      4  N   UNL     1      15.850   7.098  19.828  0.00  0.00    -0.287 NA
ATOM      9  C   UNL     1      16.403   7.327  21.178  0.00  0.00    +0.146 C 
ATOM     10  C   UNL     1      17.868   6.860  21.085  0.00  0.00    +0.030 C 
ATOM     11  C   UNL     1      18.026   6.329  19.667  0.00  0.00    +0.017 C 
ATOM     12  C   UNL     1      16.609   5.987  19.254  0.00  0.00    +0.085 C 
BRANCH   4  13
ATOM     13  C   UNL     1      14.415   6.837  19.831  0.00  0.00    +0.121 C 
BRANCH  13  15
ATOM      7  N   UNL     1      11.675   8.148  17.571  0.00  0.00    -0.263 NA
ATOM     15  C   UNL     1      13.689   7.698  18.832  0.00  0.00    -0.015 A 
ATOM     17  C   UNL     1      14.308   8.798  18.249  0.00  0.00    +0.008 A 
ATOM     18  C   UNL     1      12.383   7.418  18.462  0.00  0.00    +0.115 A 
ATOM     20  C   UNL     1      13.612   9.573  17.327  0.00  0.00    +0.020 A 
ATOM     21  C   UNL     1      12.311   9.208  17.025  0.00  0.00    +0.111 A 
ENDBRANCH  13  15
ENDBRANCH   4  13
ENDBRANCH  14   9
TORSDOF 8
ENDMDL
