MODEL 1
REMARK VINA RESULT:      -6.5      0.000      0.000
REMARK  Name = 38028941
REMARK  12 active torsions:
REMARK  status: ('A' for Active; 'I' for Inactive)
REMARK    1  A    between atoms: O_3  and  C_28
REMARK    2  A    between atoms: O_3  and  C_33
REMARK    3  A    between atoms: N_4  and  C_16
REMARK    4  A    between atoms: C_8  and  C_12
REMARK    5  A    between atoms: C_9  and  C_16
REMARK    6  A    between atoms: C_11  and  C_15
REMARK    7  A    between atoms: C_12  and  C_17
REMARK    8  A    between atoms: C_12  and  C_18
REMARK    9  A    between atoms: C_13  and  C_19
REMARK   10  A    between atoms: C_15  and  C_20
REMARK   11  A    between atoms: C_25  and  C_26
REMARK   12  A    between atoms: C_26  and  C_28
REMARK                            x       y       z     vdW  Elec       q    Type
REMARK                         _______ _______ _______ _____ _____    ______ ____
ROOT
ATOM      8  C   UNL     1      -7.414 -11.920  16.922  0.00  0.00    +0.000 C 
ATOM      9  C   UNL     1      -7.528 -12.185  18.444  0.00  0.00    +0.032 C 
ATOM     10  C   UNL     1      -6.152 -12.587  16.354  0.00  0.00    +0.012 C 
ATOM     11  C   UNL     1      -4.868 -12.078  17.035  0.00  0.00    +0.023 C 
ATOM     13  C   UNL     1      -5.001 -12.056  18.545  0.00  0.00    -0.073 C 
ATOM     14  C   UNL     1      -6.197 -12.118  19.157  0.00  0.00    -0.022 C 
ATOM     19  C   UNL     1      -3.724 -12.007  19.336  0.00  0.00    +0.039 C 
ENDROOT
BRANCH   8  12
ATOM     12  C   UNL     1      -8.649 -12.418  16.165  0.00  0.00    -0.013 C 
ATOM     17  C   UNL     1      -8.941 -11.515  14.970  0.00  0.00    +0.007 C 
ATOM     18  C   UNL     1      -8.452 -13.862  15.716  0.00  0.00    +0.007 C 
ENDBRANCH   8  12
BRANCH  11  15
ATOM     15  C   UNL     1      -4.469 -10.698  16.500  0.00  0.00    +0.103 C 
BRANCH  15  20
ATOM      1  O   UNL     1      -2.176 -11.029  15.973  0.00  0.00    -0.276 OA
ATOM      5  N   UNL     1      -3.625 -10.727  14.182  0.00  0.00    -0.298 N 
ATOM      6  N   UNL     1      -4.188 -10.733  11.343  0.00  0.00    -0.312 N 
ATOM      7  N   UNL     1      -5.045  -9.690   9.405  0.00  0.00    -0.240 NA
ATOM     20  C   UNL     1      -3.313 -10.836  15.538  0.00  0.00    +0.216 C 
ATOM     21  C   UNL     1      -2.562 -10.843  13.188  0.00  0.00    +0.126 C 
ATOM     22  C   UNL     1      -4.978 -10.507  13.666  0.00  0.00    +0.126 C 
ATOM     23  C   UNL     1      -3.058 -11.485  11.893  0.00  0.00    +0.125 C 
ATOM     24  C   UNL     1      -4.985  -9.912  12.257  0.00  0.00    +0.125 C 
ATOM     27  C   UNL     1      -4.470 -10.771   9.979  0.00  0.00    +0.121 A 
ATOM     29  C   UNL     1      -4.137 -11.929   9.295  0.00  0.00    +0.043 A 
ATOM     30  C   UNL     1      -4.414 -11.981   7.933  0.00  0.00    +0.005 A 
ATOM     31  C   UNL     1      -5.299  -9.779   8.079  0.00  0.00    +0.113 A 
ATOM     32  C   UNL     1      -5.005 -10.890   7.307  0.00  0.00    +0.020 A 
ENDBRANCH  15  20
ENDBRANCH  11  15
BRANCH   9  16
ATOM     16  C   UNL     1      -8.509 -11.210  19.104  0.00  0.00    +0.112 C 
BRANCH  16   4
ATOM      2  O   UNL     1     -10.845  -9.838  18.106  0.00  0.00    -0.276 OA
ATOM      4  N   UNL     1      -8.542  -9.967  18.398  0.00  0.00    -0.315 N 
ATOM     25  C   UNL     1      -9.721  -9.370  17.948  0.00  0.00    +0.215 C 
ATOM     34  H   UNL     1      -7.666  -9.466  18.277  0.00  0.00    +0.149 HD
BRANCH  25  26
ATOM     26  C   UNL     1      -9.456  -8.055  17.230  0.00  0.00    +0.124 C 
BRANCH  26  28
ATOM     28  C   UNL     1     -10.726  -7.388  16.725  0.00  0.00    +0.168 C 
BRANCH  28   3
ATOM      3  O   UNL     1     -10.401  -6.483  15.679  0.00  0.00    -0.382 OA
ATOM     33  C   UNL     1     -11.561  -5.851  15.156  0.00  0.00    +0.194 C 
ENDBRANCH  28   3
ENDBRANCH  26  28
ENDBRANCH  25  26
ENDBRANCH  16   4
ENDBRANCH   9  16
TORSDOF 8
ENDMDL
MODEL 2
REMARK VINA RESULT:      -6.3      2.224      3.551
REMARK  Name = 38028941
REMARK  12 active torsions:
REMARK  status: ('A' for Active; 'I' for Inactive)
REMARK    1  A    between atoms: O_3  and  C_28
REMARK    2  A    between atoms: O_3  and  C_33
REMARK    3  A    between atoms: N_4  and  C_16
REMARK    4  A    between atoms: C_8  and  C_12
REMARK    5  A    between atoms: C_9  and  C_16
REMARK    6  A    between atoms: C_11  and  C_15
REMARK    7  A    between atoms: C_12  and  C_17
REMARK    8  A    between atoms: C_12  and  C_18
REMARK    9  A    between atoms: C_13  and  C_19
REMARK   10  A    between atoms: C_15  and  C_20
REMARK   11  A    between atoms: C_25  and  C_26
REMARK   12  A    between atoms: C_26  and  C_28
REMARK                            x       y       z     vdW  Elec       q    Type
REMARK                         _______ _______ _______ _____ _____    ______ ____
ROOT
ATOM      8  C   UNL     1      -4.861 -12.338  16.409  0.00  0.00    +0.000 C 
ATOM      9  C   UNL     1      -3.974 -11.821  17.571  0.00  0.00    +0.032 C 
ATOM     10  C   UNL     1      -3.989 -12.750  15.213  0.00  0.00    +0.012 C 
ATOM     11  C   UNL     1      -3.129 -11.584  14.690  0.00  0.00    +0.023 C 
ATOM     13  C   UNL     1      -2.428 -10.851  15.816  0.00  0.00    -0.073 C 
ATOM     14  C   UNL     1      -2.812 -10.980  17.099  0.00  0.00    -0.022 C 
ATOM     19  C   UNL     1      -1.248 -10.001  15.439  0.00  0.00    +0.039 C 
ENDROOT
BRANCH   8  12
ATOM     12  C   UNL     1      -5.737 -13.517  16.843  0.00  0.00    -0.013 C 
ATOM     17  C   UNL     1      -7.020 -13.558  16.019  0.00  0.00    +0.007 C 
ATOM     18  C   UNL     1      -4.967 -14.828  16.713  0.00  0.00    +0.007 C 
ENDBRANCH   8  12
BRANCH  11  15
ATOM     15  C   UNL     1      -3.965 -10.618  13.843  0.00  0.00    +0.103 C 
BRANCH  15  20
ATOM      1  O   UNL     1      -2.228 -10.894  12.246  0.00  0.00    -0.276 OA
ATOM      5  N   UNL     1      -4.227 -10.002  11.468  0.00  0.00    -0.298 N 
ATOM      6  N   UNL     1      -5.953  -9.138   9.311  0.00  0.00    -0.312 N 
ATOM      7  N   UNL     1      -7.360  -7.525   8.311  0.00  0.00    -0.240 NA
ATOM     20  C   UNL     1      -3.386 -10.523  12.452  0.00  0.00    +0.216 C 
ATOM     21  C   UNL     1      -3.740  -9.872  10.098  0.00  0.00    +0.126 C 
ATOM     22  C   UNL     1      -5.606  -9.570  11.712  0.00  0.00    +0.126 C 
ATOM     23  C   UNL     1      -4.854 -10.076   9.073  0.00  0.00    +0.125 C 
ATOM     24  C   UNL     1      -6.113  -8.585  10.658  0.00  0.00    +0.125 C 
ATOM     27  C   UNL     1      -6.799  -8.755   8.272  0.00  0.00    +0.121 A 
ATOM     29  C   UNL     1      -7.012  -9.674   7.257  0.00  0.00    +0.043 A 
ATOM     30  C   UNL     1      -7.855  -9.307   6.214  0.00  0.00    +0.005 A 
ATOM     31  C   UNL     1      -8.174  -7.205   7.279  0.00  0.00    +0.113 A 
ATOM     32  C   UNL     1      -8.449  -8.051   6.217  0.00  0.00    +0.020 A 
ENDBRANCH  15  20
ENDBRANCH  11  15
BRANCH   9  16
ATOM     16  C   UNL     1      -4.802 -11.026  18.586  0.00  0.00    +0.112 C 
BRANCH  16   4
ATOM      2  O   UNL     1      -7.329 -10.865  19.972  0.00  0.00    -0.276 OA
ATOM      4  N   UNL     1      -6.067 -10.655  18.031  0.00  0.00    -0.315 N 
ATOM     25  C   UNL     1      -7.247 -10.603  18.776  0.00  0.00    +0.215 C 
ATOM     34  H   UNL     1      -6.090 -10.354  17.062  0.00  0.00    +0.149 HD
BRANCH  25  26
ATOM     26  C   UNL     1      -8.436 -10.178  17.929  0.00  0.00    +0.124 C 
BRANCH  26  28
ATOM     28  C   UNL     1      -8.090  -9.091  16.922  0.00  0.00    +0.168 C 
BRANCH  28   3
ATOM      3  O   UNL     1      -7.629  -9.691  15.719  0.00  0.00    -0.382 OA
ATOM     33  C   UNL     1      -8.707 -10.012  14.850  0.00  0.00    +0.194 C 
ENDBRANCH  28   3
ENDBRANCH  26  28
ENDBRANCH  25  26
ENDBRANCH  16   4
ENDBRANCH   9  16
TORSDOF 8
ENDMDL
MODEL 3
REMARK VINA RESULT:      -6.2      1.719      2.649
REMARK  Name = 38028941
REMARK  12 active torsions:
REMARK  status: ('A' for Active; 'I' for Inactive)
REMARK    1  A    between atoms: O_3  and  C_28
REMARK    2  A    between atoms: O_3  and  C_33
REMARK    3  A    between atoms: N_4  and  C_16
REMARK    4  A    between atoms: C_8  and  C_12
REMARK    5  A    between atoms: C_9  and  C_16
REMARK    6  A    between atoms: C_11  and  C_15
REMARK    7  A    between atoms: C_12  and  C_17
REMARK    8  A    between atoms: C_12  and  C_18
REMARK    9  A    between atoms: C_13  and  C_19
REMARK   10  A    between atoms: C_15  and  C_20
REMARK   11  A    between atoms: C_25  and  C_26
REMARK   12  A    between atoms: C_26  and  C_28
REMARK                            x       y       z     vdW  Elec       q    Type
REMARK                         _______ _______ _______ _____ _____    ______ ____
ROOT
ATOM      8  C   UNL     1      -6.758 -11.136  16.537  0.00  0.00    +0.000 C 
ATOM      9  C   UNL     1      -6.932 -11.267  18.072  0.00  0.00    +0.032 C 
ATOM     10  C   UNL     1      -5.670 -12.099  16.037  0.00  0.00    +0.012 C 
ATOM     11  C   UNL     1      -4.309 -11.837  16.707  0.00  0.00    +0.023 C 
ATOM     13  C   UNL     1      -4.439 -11.685  18.210  0.00  0.00    -0.073 C 
ATOM     14  C   UNL     1      -5.622 -11.444  18.802  0.00  0.00    -0.022 C 
ATOM     19  C   UNL     1      -3.185 -11.862  19.019  0.00  0.00    +0.039 C 
ENDROOT
BRANCH   8  12
ATOM     12  C   UNL     1      -8.070 -11.403  15.792  0.00  0.00    -0.013 C 
ATOM     17  C   UNL     1      -7.861 -11.273  14.286  0.00  0.00    +0.007 C 
ATOM     18  C   UNL     1      -8.611 -12.784  16.146  0.00  0.00    +0.007 C 
ENDBRANCH   8  12
BRANCH  11  15
ATOM     15  C   UNL     1      -3.615 -10.616  16.091  0.00  0.00    +0.103 C 
BRANCH  15  20
ATOM      1  O   UNL     1      -1.517 -11.493  15.406  0.00  0.00    -0.276 OA
ATOM      5  N   UNL     1      -3.022 -10.953  13.720  0.00  0.00    -0.298 N 
ATOM      6  N   UNL     1      -3.836 -10.968  10.943  0.00  0.00    -0.312 N 
ATOM      7  N   UNL     1      -4.614  -9.851   9.012  0.00  0.00    -0.240 NA
ATOM     20  C   UNL     1      -2.617 -11.064  15.051  0.00  0.00    +0.216 C 
ATOM     21  C   UNL     1      -2.111 -11.360  12.654  0.00  0.00    +0.126 C 
ATOM     22  C   UNL     1      -4.333 -10.452  13.301  0.00  0.00    +0.126 C 
ATOM     23  C   UNL     1      -2.859 -11.933  11.451  0.00  0.00    +0.125 C 
ATOM     24  C   UNL     1      -4.337  -9.941  11.859  0.00  0.00    +0.125 C 
ATOM     27  C   UNL     1      -4.246 -11.006   9.612  0.00  0.00    +0.121 A 
ATOM     29  C   UNL     1      -4.250 -12.242   8.985  0.00  0.00    +0.043 A 
ATOM     30  C   UNL     1      -4.658 -12.296   7.657  0.00  0.00    +0.005 A 
ATOM     31  C   UNL     1      -5.006  -9.944   7.721  0.00  0.00    +0.113 A 
ATOM     32  C   UNL     1      -5.044 -11.130   7.006  0.00  0.00    +0.020 A 
ENDBRANCH  15  20
ENDBRANCH  11  15
BRANCH   9  16
ATOM     16  C   UNL     1      -7.679 -10.059  18.648  0.00  0.00    +0.112 C 
BRANCH  16   4
ATOM      2  O   UNL     1     -10.452  -9.895  17.863  0.00  0.00    -0.276 OA
ATOM      4  N   UNL     1      -8.816 -10.480  19.407  0.00  0.00    -0.315 N 
ATOM     25  C   UNL     1     -10.130 -10.364  18.951  0.00  0.00    +0.215 C 
ATOM     34  H   UNL     1      -8.648 -10.944  20.294  0.00  0.00    +0.149 HD
BRANCH  25  26
ATOM     26  C   UNL     1     -11.133 -10.892  19.964  0.00  0.00    +0.124 C 
BRANCH  26  28
ATOM     28  C   UNL     1     -10.821 -12.307  20.428  0.00  0.00    +0.168 C 
BRANCH  28   3
ATOM      3  O   UNL     1     -10.090 -12.985  19.415  0.00  0.00    -0.382 OA
ATOM     33  C   UNL     1      -9.370 -14.090  19.942  0.00  0.00    +0.194 C 
ENDBRANCH  28   3
ENDBRANCH  26  28
ENDBRANCH  25  26
ENDBRANCH  16   4
ENDBRANCH   9  16
TORSDOF 8
ENDMDL
MODEL 4
REMARK VINA RESULT:      -6.1      3.586      6.725
REMARK  Name = 38028941
REMARK  12 active torsions:
REMARK  status: ('A' for Active; 'I' for Inactive)
REMARK    1  A    between atoms: O_3  and  C_28
REMARK    2  A    between atoms: O_3  and  C_33
REMARK    3  A    between atoms: N_4  and  C_16
REMARK    4  A    between atoms: C_8  and  C_12
REMARK    5  A    between atoms: C_9  and  C_16
REMARK    6  A    between atoms: C_11  and  C_15
REMARK    7  A    between atoms: C_12  and  C_17
REMARK    8  A    between atoms: C_12  and  C_18
REMARK    9  A    between atoms: C_13  and  C_19
REMARK   10  A    between atoms: C_15  and  C_20
REMARK   11  A    between atoms: C_25  and  C_26
REMARK   12  A    between atoms: C_26  and  C_28
REMARK                            x       y       z     vdW  Elec       q    Type
REMARK                         _______ _______ _______ _____ _____    ______ ____
ROOT
ATOM      8  C   UNL     1      -2.787 -12.662  13.303  0.00  0.00    +0.000 C 
ATOM      9  C   UNL     1      -1.810 -11.468  13.440  0.00  0.00    +0.032 C 
ATOM     10  C   UNL     1      -2.994 -13.017  11.822  0.00  0.00    +0.012 C 
ATOM     11  C   UNL     1      -3.554 -11.833  11.012  0.00  0.00    +0.023 C 
ATOM     13  C   UNL     1      -2.804 -10.548  11.301  0.00  0.00    -0.073 C 
ATOM     14  C   UNL     1      -2.019 -10.408  12.384  0.00  0.00    -0.022 C 
ATOM     19  C   UNL     1      -2.942  -9.442  10.292  0.00  0.00    +0.039 C 
ENDROOT
BRANCH   8  12
ATOM     12  C   UNL     1      -2.291 -13.894  14.067  0.00  0.00    -0.013 C 
ATOM     17  C   UNL     1      -3.460 -14.616  14.729  0.00  0.00    +0.007 C 
ATOM     18  C   UNL     1      -1.536 -14.832  13.130  0.00  0.00    +0.007 C 
ENDBRANCH   8  12
BRANCH  11  15
ATOM     15  C   UNL     1      -5.057 -11.657  11.256  0.00  0.00    +0.103 C 
BRANCH  15  20
ATOM      1  O   UNL     1      -5.650 -12.715   9.214  0.00  0.00    -0.276 OA
ATOM      5  N   UNL     1      -6.631 -10.653   9.644  0.00  0.00    -0.298 N 
ATOM      6  N   UNL     1      -8.541  -8.570   9.019  0.00  0.00    -0.312 N 
ATOM      7  N   UNL     1      -9.070  -6.301   8.630  0.00  0.00    -0.240 NA
ATOM     20  C   UNL     1      -5.802 -11.734   9.946  0.00  0.00    +0.216 C 
ATOM     21  C   UNL     1      -7.382 -10.649   8.392  0.00  0.00    +0.126 C 
ATOM     22  C   UNL     1      -6.818  -9.493  10.519  0.00  0.00    +0.126 C 
ATOM     23  C   UNL     1      -8.727  -9.940   8.534  0.00  0.00    +0.125 C 
ATOM     24  C   UNL     1      -7.321  -8.260   9.768  0.00  0.00    +0.125 C 
ATOM     27  C   UNL     1      -9.485  -7.583   8.741  0.00  0.00    +0.121 A 
ATOM     29  C   UNL     1     -10.802  -7.988   8.596  0.00  0.00    +0.043 A 
ATOM     30  C   UNL     1     -11.755  -7.014   8.319  0.00  0.00    +0.005 A 
ATOM     31  C   UNL     1     -10.026  -5.383   8.361  0.00  0.00    +0.113 A 
ATOM     32  C   UNL     1     -11.367  -5.685   8.197  0.00  0.00    +0.020 A 
ENDBRANCH  15  20
ENDBRANCH  11  15
BRANCH   9  16
ATOM     16  C   UNL     1      -1.909 -10.830  14.830  0.00  0.00    +0.112 C 
BRANCH  16   4
ATOM      2  O   UNL     1      -3.440 -11.182  17.252  0.00  0.00    -0.276 OA
ATOM      4  N   UNL     1      -3.239 -10.369  15.084  0.00  0.00    -0.315 N 
ATOM     25  C   UNL     1      -3.909 -10.583  16.289  0.00  0.00    +0.215 C 
ATOM     34  H   UNL     1      -3.688  -9.801  14.371  0.00  0.00    +0.149 HD
BRANCH  25  26
ATOM     26  C   UNL     1      -5.307  -9.982  16.278  0.00  0.00    +0.124 C 
BRANCH  26  28
ATOM     28  C   UNL     1      -6.008 -10.135  14.937  0.00  0.00    +0.168 C 
BRANCH  28   3
ATOM      3  O   UNL     1      -6.054 -11.510  14.582  0.00  0.00    -0.382 OA
ATOM     33  C   UNL     1      -7.369 -11.914  14.227  0.00  0.00    +0.194 C 
ENDBRANCH  28   3
ENDBRANCH  26  28
ENDBRANCH  25  26
ENDBRANCH  16   4
ENDBRANCH   9  16
TORSDOF 8
ENDMDL
MODEL 5
REMARK VINA RESULT:      -6.0     26.872     30.255
REMARK  Name = 38028941
REMARK  12 active torsions:
REMARK  status: ('A' for Active; 'I' for Inactive)
REMARK    1  A    between atoms: O_3  and  C_28
REMARK    2  A    between atoms: O_3  and  C_33
REMARK    3  A    between atoms: N_4  and  C_16
REMARK    4  A    between atoms: C_8  and  C_12
REMARK    5  A    between atoms: C_9  and  C_16
REMARK    6  A    between atoms: C_11  and  C_15
REMARK    7  A    between atoms: C_12  and  C_17
REMARK    8  A    between atoms: C_12  and  C_18
REMARK    9  A    between atoms: C_13  and  C_19
REMARK   10  A    between atoms: C_15  and  C_20
REMARK   11  A    between atoms: C_25  and  C_26
REMARK   12  A    between atoms: C_26  and  C_28
REMARK                            x       y       z     vdW  Elec       q    Type
REMARK                         _______ _______ _______ _____ _____    ______ ____
ROOT
ATOM      8  C   UNL     1      10.722   5.966   4.867  0.00  0.00    +0.000 C 
ATOM      9  C   UNL     1      10.456   6.103   3.346  0.00  0.00    +0.032 C 
ATOM     10  C   UNL     1      11.027   7.340   5.483  0.00  0.00    +0.012 C 
ATOM     11  C   UNL     1      12.250   8.012   4.832  0.00  0.00    +0.023 C 
ATOM     13  C   UNL     1      12.189   7.949   3.319  0.00  0.00    -0.073 C 
ATOM     14  C   UNL     1      11.372   7.098   2.673  0.00  0.00    -0.022 C 
ATOM     19  C   UNL     1      13.057   8.917   2.566  0.00  0.00    +0.039 C 
ENDROOT
BRANCH   8  12
ATOM     12  C   UNL     1       9.539   5.321   5.595  0.00  0.00    -0.013 C 
ATOM     17  C   UNL     1       9.875   5.104   7.067  0.00  0.00    +0.007 C 
ATOM     18  C   UNL     1       8.289   6.183   5.447  0.00  0.00    +0.007 C 
ENDBRANCH   8  12
BRANCH  11  15
ATOM     15  C   UNL     1      13.557   7.406   5.355  0.00  0.00    +0.103 C 
BRANCH  15  20
ATOM      1  O   UNL     1      13.928   9.277   6.771  0.00  0.00    -0.276 OA
ATOM      5  N   UNL     1      15.749   8.523   5.540  0.00  0.00    -0.298 N 
ATOM      6  N   UNL     1      18.573   8.554   4.906  0.00  0.00    -0.312 N 
ATOM      7  N   UNL     1      20.337   8.698   3.343  0.00  0.00    -0.240 NA
ATOM     20  C   UNL     1      14.418   8.488   5.960  0.00  0.00    +0.216 C 
ATOM     21  C   UNL     1      16.645   9.544   6.075  0.00  0.00    +0.126 C 
ATOM     22  C   UNL     1      16.332   7.580   4.584  0.00  0.00    +0.126 C 
ATOM     23  C   UNL     1      18.081   9.035   6.199  0.00  0.00    +0.125 C 
ATOM     24  C   UNL     1      17.591   8.125   3.908  0.00  0.00    +0.125 C 
ATOM     27  C   UNL     1      19.937   8.541   4.625  0.00  0.00    +0.121 A 
ATOM     29  C   UNL     1      20.803   8.367   5.693  0.00  0.00    +0.043 A 
ATOM     30  C   UNL     1      22.168   8.351   5.428  0.00  0.00    +0.005 A 
ATOM     31  C   UNL     1      21.672   8.677   3.125  0.00  0.00    +0.113 A 
ATOM     32  C   UNL     1      22.618   8.509   4.122  0.00  0.00    +0.020 A 
ENDBRANCH  15  20
ENDBRANCH  11  15
BRANCH   9  16
ATOM     16  C   UNL     1      10.569   4.747   2.641  0.00  0.00    +0.112 C 
BRANCH  16   4
ATOM      2  O   UNL     1      11.941   3.647   0.352  0.00  0.00    -0.276 OA
ATOM      4  N   UNL     1      11.931   4.319   2.577  0.00  0.00    -0.315 N 
ATOM     25  C   UNL     1      12.519   3.796   1.424  0.00  0.00    +0.215 C 
ATOM     34  H   UNL     1      12.513   4.466   3.397  0.00  0.00    +0.149 HD
BRANCH  25  26
ATOM     26  C   UNL     1      13.978   3.427   1.646  0.00  0.00    +0.124 C 
BRANCH  26  28
ATOM     28  C   UNL     1      14.944   4.441   1.051  0.00  0.00    +0.168 C 
BRANCH  28   3
ATOM      3  O   UNL     1      14.749   5.702   1.677  0.00  0.00    -0.382 OA
ATOM     33  C   UNL     1      15.532   6.716   1.061  0.00  0.00    +0.194 C 
ENDBRANCH  28   3
ENDBRANCH  26  28
ENDBRANCH  25  26
ENDBRANCH  16   4
ENDBRANCH   9  16
TORSDOF 8
ENDMDL
MODEL 6
REMARK VINA RESULT:      -6.0     18.761     21.145
REMARK  Name = 38028941
REMARK  12 active torsions:
REMARK  status: ('A' for Active; 'I' for Inactive)
REMARK    1  A    between atoms: O_3  and  C_28
REMARK    2  A    between atoms: O_3  and  C_33
REMARK    3  A    between atoms: N_4  and  C_16
REMARK    4  A    between atoms: C_8  and  C_12
REMARK    5  A    between atoms: C_9  and  C_16
REMARK    6  A    between atoms: C_11  and  C_15
REMARK    7  A    between atoms: C_12  and  C_17
REMARK    8  A    between atoms: C_12  and  C_18
REMARK    9  A    between atoms: C_13  and  C_19
REMARK   10  A    between atoms: C_15  and  C_20
REMARK   11  A    between atoms: C_25  and  C_26
REMARK   12  A    between atoms: C_26  and  C_28
REMARK                            x       y       z     vdW  Elec       q    Type
REMARK                         _______ _______ _______ _____ _____    ______ ____
ROOT
ATOM      8  C   UNL     1     -12.588   8.596  20.227  0.00  0.00    +0.000 C 
ATOM      9  C   UNL     1     -12.074   9.867  20.950  0.00  0.00    +0.032 C 
ATOM     10  C   UNL     1     -11.544   8.093  19.219  0.00  0.00    +0.012 C 
ATOM     11  C   UNL     1     -11.202   9.154  18.157  0.00  0.00    +0.023 C 
ATOM     13  C   UNL     1     -10.942  10.512  18.779  0.00  0.00    -0.073 C 
ATOM     14  C   UNL     1     -11.327  10.808  20.033  0.00  0.00    -0.022 C 
ATOM     19  C   UNL     1     -10.189  11.507  17.941  0.00  0.00    +0.039 C 
ENDROOT
BRANCH   8  12
ATOM     12  C   UNL     1     -12.933   7.480  21.218  0.00  0.00    -0.013 C 
ATOM     17  C   UNL     1     -14.363   6.995  20.996  0.00  0.00    +0.007 C 
ATOM     18  C   UNL     1     -11.944   6.326  21.085  0.00  0.00    +0.007 C 
ENDBRANCH   8  12
BRANCH  11  15
ATOM     15  C   UNL     1     -12.298   9.241  17.089  0.00  0.00    +0.103 C 
BRANCH  15  20
ATOM      1  O   UNL     1     -10.552   8.940  15.508  0.00  0.00    -0.276 OA
ATOM      5  N   UNL     1     -12.672   8.239  14.866  0.00  0.00    -0.298 N 
ATOM      6  N   UNL     1     -14.449   6.876  13.031  0.00  0.00    -0.312 N 
ATOM      7  N   UNL     1     -16.400   6.823  11.702  0.00  0.00    -0.240 NA
ATOM     20  C   UNL     1     -11.751   8.795  15.755  0.00  0.00    +0.216 C 
ATOM     21  C   UNL     1     -12.223   7.789  13.552  0.00  0.00    +0.126 C 
ATOM     22  C   UNL     1     -14.095   8.060  15.164  0.00  0.00    +0.126 C 
ATOM     23  C   UNL     1     -13.015   6.578  13.060  0.00  0.00    +0.125 C 
ATOM     24  C   UNL     1     -14.953   7.939  13.904  0.00  0.00    +0.125 C 
ATOM     27  C   UNL     1     -15.300   6.190  12.169  0.00  0.00    +0.121 A 
ATOM     29  C   UNL     1     -14.957   4.887  11.843  0.00  0.00    +0.043 A 
ATOM     30  C   UNL     1     -15.798   4.189  10.983  0.00  0.00    +0.005 A 
ATOM     31  C   UNL     1     -17.194   6.111  10.869  0.00  0.00    +0.113 A 
ATOM     32  C   UNL     1     -16.939   4.806  10.483  0.00  0.00    +0.020 A 
ENDBRANCH  15  20
ENDBRANCH  11  15
BRANCH   9  16
ATOM     16  C   UNL     1     -13.223  10.620  21.629  0.00  0.00    +0.112 C 
BRANCH  16   4
ATOM      2  O   UNL     1     -14.724   9.285  23.701  0.00  0.00    -0.276 OA
ATOM      4  N   UNL     1     -13.009  10.709  23.039  0.00  0.00    -0.315 N 
ATOM     25  C   UNL     1     -13.785  10.026  23.978  0.00  0.00    +0.215 C 
ATOM     34  H   UNL     1     -12.211  11.245  23.366  0.00  0.00    +0.149 HD
BRANCH  25  26
ATOM     26  C   UNL     1     -13.332  10.305  25.403  0.00  0.00    +0.124 C 
BRANCH  26  28
ATOM     28  C   UNL     1     -12.202  11.321  25.478  0.00  0.00    +0.168 C 
BRANCH  28   3
ATOM      3  O   UNL     1     -10.958  10.638  25.567  0.00  0.00    -0.382 OA
ATOM     33  C   UNL     1     -10.741  10.117  26.870  0.00  0.00    +0.194 C 
ENDBRANCH  28   3
ENDBRANCH  26  28
ENDBRANCH  25  26
ENDBRANCH  16   4
ENDBRANCH   9  16
TORSDOF 8
ENDMDL
MODEL 7
REMARK VINA RESULT:      -5.9      2.888      5.569
REMARK  Name = 38028941
REMARK  12 active torsions:
REMARK  status: ('A' for Active; 'I' for Inactive)
REMARK    1  A    between atoms: O_3  and  C_28
REMARK    2  A    between atoms: O_3  and  C_33
REMARK    3  A    between atoms: N_4  and  C_16
REMARK    4  A    between atoms: C_8  and  C_12
REMARK    5  A    between atoms: C_9  and  C_16
REMARK    6  A    between atoms: C_11  and  C_15
REMARK    7  A    between atoms: C_12  and  C_17
REMARK    8  A    between atoms: C_12  and  C_18
REMARK    9  A    between atoms: C_13  and  C_19
REMARK   10  A    between atoms: C_15  and  C_20
REMARK   11  A    between atoms: C_25  and  C_26
REMARK   12  A    between atoms: C_26  and  C_28
REMARK                            x       y       z     vdW  Elec       q    Type
REMARK                         _______ _______ _______ _____ _____    ______ ____
ROOT
ATOM      8  C   UNL     1     -12.258 -10.692  19.097  0.00  0.00    +0.000 C 
ATOM      9  C   UNL     1     -12.754  -9.552  18.173  0.00  0.00    +0.032 C 
ATOM     10  C   UNL     1     -10.997 -10.255  19.858  0.00  0.00    +0.012 C 
ATOM     11  C   UNL     1      -9.850  -9.864  18.907  0.00  0.00    +0.023 C 
ATOM     13  C   UNL     1     -10.324  -8.945  17.799  0.00  0.00    -0.073 C 
ATOM     14  C   UNL     1     -11.627  -8.808  17.495  0.00  0.00    -0.022 C 
ATOM     19  C   UNL     1      -9.270  -8.152  17.080  0.00  0.00    +0.039 C 
ENDROOT
BRANCH   8  12
ATOM     12  C   UNL     1     -13.339 -11.128  20.092  0.00  0.00    -0.013 C 
ATOM     17  C   UNL     1     -12.773 -12.144  21.080  0.00  0.00    +0.007 C 
ATOM     18  C   UNL     1     -13.905  -9.917  20.826  0.00  0.00    +0.007 C 
ENDBRANCH   8  12
BRANCH  11  15
ATOM     15  C   UNL     1      -9.162 -11.107  18.331  0.00  0.00    +0.103 C 
BRANCH  15  20
ATOM      1  O   UNL     1      -7.399 -11.130  19.923  0.00  0.00    -0.276 OA
ATOM      5  N   UNL     1      -6.781 -11.107  17.684  0.00  0.00    -0.298 N 
ATOM      6  N   UNL     1      -4.783 -11.305  15.599  0.00  0.00    -0.312 N 
ATOM      7  N   UNL     1      -3.743 -10.473  13.649  0.00  0.00    -0.240 NA
ATOM     20  C   UNL     1      -7.706 -11.118  18.729  0.00  0.00    +0.216 C 
ATOM     21  C   UNL     1      -5.353 -11.111  17.986  0.00  0.00    +0.126 C 
ATOM     22  C   UNL     1      -7.146 -11.103  16.265  0.00  0.00    +0.126 C 
ATOM     23  C   UNL     1      -4.547 -11.868  16.931  0.00  0.00    +0.125 C 
ATOM     24  C   UNL     1      -6.028 -10.571  15.368  0.00  0.00    +0.125 C 
ATOM     27  C   UNL     1      -3.828 -11.437  14.593  0.00  0.00    +0.121 A 
ATOM     29  C   UNL     1      -3.020 -12.562  14.629  0.00  0.00    +0.043 A 
ATOM     30  C   UNL     1      -2.063 -12.707  13.630  0.00  0.00    +0.005 A 
ATOM     31  C   UNL     1      -2.800 -10.649  12.695  0.00  0.00    +0.113 A 
ATOM     32  C   UNL     1      -1.944 -11.737  12.642  0.00  0.00    +0.020 A 
ENDBRANCH  15  20
ENDBRANCH  11  15
BRANCH   9  16
ATOM     16  C   UNL     1     -13.726 -10.083  17.113  0.00  0.00    +0.112 C 
BRANCH  16   4
ATOM      2  O   UNL     1     -15.841  -8.138  17.393  0.00  0.00    -0.276 OA
ATOM      4  N   UNL     1     -14.077  -9.053  16.185  0.00  0.00    -0.315 N 
ATOM     25  C   UNL     1     -15.120  -8.150  16.399  0.00  0.00    +0.215 C 
ATOM     34  H   UNL     1     -13.495  -8.938  15.362  0.00  0.00    +0.149 HD
BRANCH  25  26
ATOM     26  C   UNL     1     -15.266  -7.166  15.248  0.00  0.00    +0.124 C 
BRANCH  26  28
ATOM     28  C   UNL     1     -13.929  -6.716  14.679  0.00  0.00    +0.168 C 
BRANCH  28   3
ATOM      3  O   UNL     1     -13.108  -6.225  15.731  0.00  0.00    -0.382 OA
ATOM     33  C   UNL     1     -11.832  -5.824  15.253  0.00  0.00    +0.194 C 
ENDBRANCH  28   3
ENDBRANCH  26  28
ENDBRANCH  25  26
ENDBRANCH  16   4
ENDBRANCH   9  16
TORSDOF 8
ENDMDL
MODEL 8
REMARK VINA RESULT:      -5.9     24.381     27.411
REMARK  Name = 38028941
REMARK  12 active torsions:
REMARK  status: ('A' for Active; 'I' for Inactive)
REMARK    1  A    between atoms: O_3  and  C_28
REMARK    2  A    between atoms: O_3  and  C_33
REMARK    3  A    between atoms: N_4  and  C_16
REMARK    4  A    between atoms: C_8  and  C_12
REMARK    5  A    between atoms: C_9  and  C_16
REMARK    6  A    between atoms: C_11  and  C_15
REMARK    7  A    between atoms: C_12  and  C_17
REMARK    8  A    between atoms: C_12  and  C_18
REMARK    9  A    between atoms: C_13  and  C_19
REMARK   10  A    between atoms: C_15  and  C_20
REMARK   11  A    between atoms: C_25  and  C_26
REMARK   12  A    between atoms: C_26  and  C_28
REMARK                            x       y       z     vdW  Elec       q    Type
REMARK                         _______ _______ _______ _____ _____    ______ ____
ROOT
ATOM      8  C   UNL     1       8.929   8.533   4.985  0.00  0.00    +0.000 C 
ATOM      9  C   UNL     1       8.607   9.207   6.343  0.00  0.00    +0.032 C 
ATOM     10  C   UNL     1       8.419   7.083   4.973  0.00  0.00    +0.012 C 
ATOM     11  C   UNL     1       9.044   6.237   6.098  0.00  0.00    +0.023 C 
ATOM     13  C   UNL     1       9.006   6.956   7.432  0.00  0.00    -0.073 C 
ATOM     14  C   UNL     1       8.796   8.281   7.522  0.00  0.00    -0.022 C 
ATOM     19  C   UNL     1       9.169   6.108   8.662  0.00  0.00    +0.039 C 
ENDROOT
BRANCH   8  12
ATOM     12  C   UNL     1       8.322   9.305   3.809  0.00  0.00    -0.013 C 
ATOM     17  C   UNL     1       8.523   8.536   2.507  0.00  0.00    +0.007 C 
ATOM     18  C   UNL     1       6.841   9.574   4.056  0.00  0.00    +0.007 C 
ENDBRANCH   8  12
BRANCH  11  15
ATOM     15  C   UNL     1      10.475   5.815   5.743  0.00  0.00    +0.103 C 
BRANCH  15  20
ATOM      1  O   UNL     1       9.923   3.578   5.169  0.00  0.00    -0.276 OA
ATOM      5  N   UNL     1      11.027   4.827   3.551  0.00  0.00    -0.298 N 
ATOM      6  N   UNL     1      12.016   5.182   0.854  0.00  0.00    -0.312 N 
ATOM      7  N   UNL     1      13.752   5.718  -0.656  0.00  0.00    -0.240 NA
ATOM     20  C   UNL     1      10.443   4.634   4.804  0.00  0.00    +0.216 C 
ATOM     21  C   UNL     1      11.042   3.731   2.587  0.00  0.00    +0.126 C 
ATOM     22  C   UNL     1      11.636   6.086   3.115  0.00  0.00    +0.126 C 
ATOM     23  C   UNL     1      10.940   4.233   1.148  0.00  0.00    +0.125 C 
ATOM     24  C   UNL     1      12.636   5.895   1.974  0.00  0.00    +0.125 C 
ATOM     27  C   UNL     1      12.461   5.370  -0.453  0.00  0.00    +0.121 A 
ATOM     29  C   UNL     1      11.537   5.185  -1.469  0.00  0.00    +0.043 A 
ATOM     30  C   UNL     1      11.966   5.370  -2.779  0.00  0.00    +0.005 A 
ATOM     31  C   UNL     1      14.131   5.889  -1.943  0.00  0.00    +0.113 A 
ATOM     32  C   UNL     1      13.286   5.728  -3.028  0.00  0.00    +0.020 A 
ENDBRANCH  15  20
ENDBRANCH  11  15
BRANCH   9  16
ATOM     16  C   UNL     1       9.450  10.471   6.546  0.00  0.00    +0.112 C 
BRANCH  16   4
ATOM      2  O   UNL     1      11.490  10.630   8.582  0.00  0.00    -0.276 OA
ATOM      4  N   UNL     1      10.842  10.182   6.394  0.00  0.00    -0.315 N 
ATOM     25  C   UNL     1      11.766  10.286   7.436  0.00  0.00    +0.215 C 
ATOM     34  H   UNL     1      11.158   9.823   5.499  0.00  0.00    +0.149 HD
BRANCH  25  26
ATOM     26  C   UNL     1      13.172   9.917   6.989  0.00  0.00    +0.124 C 
BRANCH  26  28
ATOM     28  C   UNL     1      13.237   8.573   6.281  0.00  0.00    +0.168 C 
BRANCH  28   3
ATOM      3  O   UNL     1      14.487   7.955   6.553  0.00  0.00    -0.382 OA
ATOM     33  C   UNL     1      15.084   7.442   5.370  0.00  0.00    +0.194 C 
ENDBRANCH  28   3
ENDBRANCH  26  28
ENDBRANCH  25  26
ENDBRANCH  16   4
ENDBRANCH   9  16
TORSDOF 8
ENDMDL
MODEL 9
REMARK VINA RESULT:      -5.8     24.575     27.095
REMARK  Name = 38028941
REMARK  12 active torsions:
REMARK  status: ('A' for Active; 'I' for Inactive)
REMARK    1  A    between atoms: O_3  and  C_28
REMARK    2  A    between atoms: O_3  and  C_33
REMARK    3  A    between atoms: N_4  and  C_16
REMARK    4  A    between atoms: C_8  and  C_12
REMARK    5  A    between atoms: C_9  and  C_16
REMARK    6  A    between atoms: C_11  and  C_15
REMARK    7  A    between atoms: C_12  and  C_17
REMARK    8  A    between atoms: C_12  and  C_18
REMARK    9  A    between atoms: C_13  and  C_19
REMARK   10  A    between atoms: C_15  and  C_20
REMARK   11  A    between atoms: C_25  and  C_26
REMARK   12  A    between atoms: C_26  and  C_28
REMARK                            x       y       z     vdW  Elec       q    Type
REMARK                         _______ _______ _______ _____ _____    ______ ____
ROOT
ATOM      8  C   UNL     1       8.838   8.822   4.970  0.00  0.00    +0.000 C 
ATOM      9  C   UNL     1       8.581   9.342   6.408  0.00  0.00    +0.032 C 
ATOM     10  C   UNL     1       8.380   7.361   4.840  0.00  0.00    +0.012 C 
ATOM     11  C   UNL     1       9.105   6.433   5.831  0.00  0.00    +0.023 C 
ATOM     13  C   UNL     1       9.128   7.011   7.232  0.00  0.00    -0.073 C 
ATOM     14  C   UNL     1       8.878   8.311   7.472  0.00  0.00    -0.022 C 
ATOM     19  C   UNL     1       9.400   6.052   8.356  0.00  0.00    +0.039 C 
ENDROOT
BRANCH   8  12
ATOM     12  C   UNL     1       8.131   9.684   3.920  0.00  0.00    -0.013 C 
ATOM     17  C   UNL     1       8.136   8.981   2.565  0.00  0.00    +0.007 C 
ATOM     18  C   UNL     1       6.705   9.997   4.361  0.00  0.00    +0.007 C 
ENDBRANCH   8  12
BRANCH  11  15
ATOM     15  C   UNL     1      10.524   6.109   5.349  0.00  0.00    +0.103 C 
BRANCH  15  20
ATOM      1  O   UNL     1       9.873   3.850   5.005  0.00  0.00    -0.276 OA
ATOM      5  N   UNL     1      11.274   4.786   3.406  0.00  0.00    -0.298 N 
ATOM      6  N   UNL     1      12.630   4.693   0.851  0.00  0.00    -0.312 N 
ATOM      7  N   UNL     1      14.584   4.900  -0.460  0.00  0.00    -0.240 NA
ATOM     20  C   UNL     1      10.519   4.810   4.579  0.00  0.00    +0.216 C 
ATOM     21  C   UNL     1      11.326   3.565   2.608  0.00  0.00    +0.126 C 
ATOM     22  C   UNL     1      12.034   5.930   2.896  0.00  0.00    +0.126 C 
ATOM     23  C   UNL     1      11.452   3.863   1.115  0.00  0.00    +0.125 C 
ATOM     24  C   UNL     1      13.155   5.518   1.941  0.00  0.00    +0.125 C 
ATOM     27  C   UNL     1      13.254   4.665  -0.395  0.00  0.00    +0.121 A 
ATOM     29  C   UNL     1      12.459   4.395  -1.497  0.00  0.00    +0.043 A 
ATOM     30  C   UNL     1      13.067   4.365  -2.747  0.00  0.00    +0.005 A 
ATOM     31  C   UNL     1      15.140   4.863  -1.693  0.00  0.00    +0.113 A 
ATOM     32  C   UNL     1      14.433   4.602  -2.854  0.00  0.00    +0.020 A 
ENDBRANCH  15  20
ENDBRANCH  11  15
BRANCH   9  16
ATOM     16  C   UNL     1       9.391  10.613   6.688  0.00  0.00    +0.112 C 
BRANCH  16   4
ATOM      2  O   UNL     1      11.631  10.894   8.487  0.00  0.00    -0.276 OA
ATOM      4  N   UNL     1       9.343  10.949   8.077  0.00  0.00    -0.315 N 
ATOM     25  C   UNL     1      10.480  11.065   8.879  0.00  0.00    +0.215 C 
ATOM     34  H   UNL     1       8.439  11.177   8.479  0.00  0.00    +0.149 HD
BRANCH  25  26
ATOM     26  C   UNL     1      10.131  11.434  10.313  0.00  0.00    +0.124 C 
BRANCH  26  28
ATOM     28  C   UNL     1       8.676  11.846  10.482  0.00  0.00    +0.168 C 
BRANCH  28   3
ATOM      3  O   UNL     1       8.435  12.180  11.843  0.00  0.00    -0.382 OA
ATOM     33  C   UNL     1       9.648  12.398  12.549  0.00  0.00    +0.194 C 
ENDBRANCH  28   3
ENDBRANCH  26  28
ENDBRANCH  25  26
ENDBRANCH  16   4
ENDBRANCH   9  16
TORSDOF 8
ENDMDL
MODEL 10
REMARK VINA RESULT:      -5.7     25.942     30.126
REMARK  Name = 38028941
REMARK  12 active torsions:
REMARK  status: ('A' for Active; 'I' for Inactive)
REMARK    1  A    between atoms: O_3  and  C_28
REMARK    2  A    between atoms: O_3  and  C_33
REMARK    3  A    between atoms: N_4  and  C_16
REMARK    4  A    between atoms: C_8  and  C_12
REMARK    5  A    between atoms: C_9  and  C_16
REMARK    6  A    between atoms: C_11  and  C_15
REMARK    7  A    between atoms: C_12  and  C_17
REMARK    8  A    between atoms: C_12  and  C_18
REMARK    9  A    between atoms: C_13  and  C_19
REMARK   10  A    between atoms: C_15  and  C_20
REMARK   11  A    between atoms: C_25  and  C_26
REMARK   12  A    between atoms: C_26  and  C_28
REMARK                            x       y       z     vdW  Elec       q    Type
REMARK                         _______ _______ _______ _____ _____    ______ ____
ROOT
ATOM      8  C   UNL     1      18.011  -3.231  23.867  0.00  0.00    +0.000 C 
ATOM      9  C   UNL     1      18.822  -4.440  23.335  0.00  0.00    +0.032 C 
ATOM     10  C   UNL     1      18.956  -2.095  24.286  0.00  0.00    +0.012 C 
ATOM     11  C   UNL     1      19.949  -2.535  25.378  0.00  0.00    +0.023 C 
ATOM     13  C   UNL     1      20.596  -3.866  25.048  0.00  0.00    -0.073 C 
ATOM     14  C   UNL     1      20.085  -4.698  24.123  0.00  0.00    -0.022 C 
ATOM     19  C   UNL     1      21.869  -4.198  25.775  0.00  0.00    +0.039 C 
ENDROOT
BRANCH   8  12
ATOM     12  C   UNL     1      17.010  -2.717  22.828  0.00  0.00    -0.013 C 
ATOM     17  C   UNL     1      15.582  -2.867  23.346  0.00  0.00    +0.007 C 
ATOM     18  C   UNL     1      17.308  -1.263  22.475  0.00  0.00    +0.007 C 
ENDBRANCH   8  12
BRANCH  11  15
ATOM     15  C   UNL     1      19.273  -2.579  26.753  0.00  0.00    +0.103 C 
BRANCH  15  20
ATOM      1  O   UNL     1      20.977  -1.025  27.321  0.00  0.00    -0.276 OA
ATOM      5  N   UNL     1      19.552  -1.681  29.034  0.00  0.00    -0.298 N 
ATOM      6  N   UNL     1      18.540  -1.425  31.734  0.00  0.00    -0.312 N 
ATOM      7  N   UNL     1      17.951  -2.369  33.817  0.00  0.00    -0.240 NA
ATOM     20  C   UNL     1      20.017  -1.687  27.718  0.00  0.00    +0.216 C 
ATOM     21  C   UNL     1      20.220  -0.848  30.030  0.00  0.00    +0.126 C 
ATOM     22  C   UNL     1      18.404  -2.461  29.503  0.00  0.00    +0.126 C 
ATOM     23  C   UNL     1      19.245  -0.320  31.080  0.00  0.00    +0.125 C 
ATOM     24  C   UNL     1      18.425  -2.695  31.014  0.00  0.00    +0.125 C 
ATOM     27  C   UNL     1      18.028  -1.279  33.021  0.00  0.00    +0.121 A 
ATOM     29  C   UNL     1      17.626  -0.009  33.403  0.00  0.00    +0.043 A 
ATOM     30  C   UNL     1      17.111   0.152  34.685  0.00  0.00    +0.005 A 
ATOM     31  C   UNL     1      17.445  -2.173  35.056  0.00  0.00    +0.113 A 
ATOM     32  C   UNL     1      17.016  -0.945  35.533  0.00  0.00    +0.020 A 
ENDBRANCH  15  20
ENDBRANCH  11  15
BRANCH   9  16
ATOM     16  C   UNL     1      17.967  -5.712  23.311  0.00  0.00    +0.112 C 
BRANCH  16   4
ATOM      2  O   UNL     1      17.344  -8.156  24.716  0.00  0.00    -0.276 OA
ATOM      4  N   UNL     1      17.217  -5.842  24.522  0.00  0.00    -0.315 N 
ATOM     25  C   UNL     1      16.960  -7.069  25.138  0.00  0.00    +0.215 C 
ATOM     34  H   UNL     1      16.914  -4.992  24.987  0.00  0.00    +0.149 HD
BRANCH  25  26
ATOM     26  C   UNL     1      16.142  -6.907  26.410  0.00  0.00    +0.124 C 
BRANCH  26  28
ATOM     28  C   UNL     1      17.004  -6.733  27.652  0.00  0.00    +0.168 C 
BRANCH  28   3
ATOM      3  O   UNL     1      17.991  -5.741  27.407  0.00  0.00    -0.382 OA
ATOM     33  C   UNL     1      19.234  -6.084  28.002  0.00  0.00    +0.194 C 
ENDBRANCH  28   3
ENDBRANCH  26  28
ENDBRANCH  25  26
ENDBRANCH  16   4
ENDBRANCH   9  16
TORSDOF 8
ENDMDL
