MODEL 1
REMARK VINA RESULT:      -9.1      0.000      0.000
REMARK  Name = 40777705
REMARK  13 active torsions:
REMARK  status: ('A' for Active; 'I' for Inactive)
REMARK    1  A    between atoms: S_1  and  N_5
REMARK    2  A    between atoms: S_1  and  C_22
REMARK    3  A    between atoms: N_5  and  C_11
REMARK    4  A    between atoms: N_6  and  C_18
REMARK    5  A    between atoms: N_8  and  C_34
REMARK    6  A    between atoms: C_9  and  C_12
REMARK    7  A    between atoms: C_15  and  C_17
REMARK    8  A    between atoms: C_16  and  C_20
REMARK    9  A    between atoms: C_19  and  C_21
REMARK   10  A    between atoms: C_19  and  C_27
REMARK   11  A    between atoms: C_19  and  C_28
REMARK   12  A    between atoms: C_19  and  C_29
REMARK   13  A    between atoms: C_35  and  C_36
REMARK                            x       y       z     vdW  Elec       q    Type
REMARK                         _______ _______ _______ _____ _____    ______ ____
ROOT
ATOM      9  C   UNL     1      16.711   7.948  20.531  0.00  0.00    +0.047 C 
ATOM     10  C   UNL     1      16.142   7.050  19.416  0.00  0.00    +0.037 C 
ATOM     11  C   UNL     1      14.662   6.819  19.763  0.00  0.00    +0.100 C 
ATOM     13  C   UNL     1      15.751   7.700  21.658  0.00  0.00    -0.021 C 
ATOM     14  C   UNL     1      14.636   7.095  21.235  0.00  0.00    -0.010 C 
ENDROOT
BRANCH   9  12
ATOM      6  N   UNL     1      20.127   6.727  21.041  0.00  0.00    -0.236 N 
ATOM      7  N   UNL     1      20.275   7.902  21.677  0.00  0.00    -0.171 NA
ATOM     12  C   UNL     1      18.157   7.651  20.858  0.00  0.00    +0.003 A 
ATOM     15  C   UNL     1      18.877   6.529  20.533  0.00  0.00    +0.046 A 
ATOM     16  C   UNL     1      19.068   8.462  21.561  0.00  0.00    +0.064 A 
ATOM     17  C   UNL     1      18.486   5.311  19.794  0.00  0.00    +0.066 C 
ATOM     20  C   UNL     1      18.828   9.794  22.146  0.00  0.00    +0.068 C 
BRANCH   6  18
ATOM     18  C   UNL     1      21.207   5.847  20.954  0.00  0.00    +0.066 A 
ATOM     21  C   UNL     1      23.368   4.091  20.788  0.00  0.00    -0.042 A 
ATOM     23  C   UNL     1      21.049   4.510  21.320  0.00  0.00    +0.028 A 
ATOM     24  C   UNL     1      22.445   6.307  20.507  0.00  0.00    +0.028 A 
ATOM     25  C   UNL     1      22.129   3.632  21.236  0.00  0.00    +0.006 A 
ATOM     26  C   UNL     1      23.526   5.429  20.423  0.00  0.00    +0.006 A 
BRANCH  21  19
ATOM     19  C   UNL     1      24.524   3.153  20.700  0.00  0.00    -0.013 C 
ATOM     27  C   UNL     1      25.176   3.191  19.283  0.00  0.00    +0.015 C 
ATOM     28  C   UNL     1      24.080   1.682  20.973  0.00  0.00    +0.015 C 
ATOM     29  C   UNL     1      25.692   3.429  21.704  0.00  0.00    +0.015 C 
ENDBRANCH  21  19
ENDBRANCH   6  18
ENDBRANCH   9  12
BRANCH  11   5
ATOM      5  N   UNL     1      13.781   7.725  19.036  0.00  0.00    -0.183 NA
ATOM     37  H   UNL     1      14.190   8.574  18.629  0.00  0.00    +0.149 HD
BRANCH   5   1
ATOM      1  S   UNL     1      12.092   7.578  19.190  0.00  0.00    +0.059 S 
ATOM      2  O   UNL     1      11.774   6.295  19.788  0.00  0.00    -0.153 OA
ATOM      3  O   UNL     1      11.467   7.976  17.942  0.00  0.00    -0.153 OA
BRANCH   1  22
ATOM     22  C   UNL     1      11.726   8.837  20.375  0.00  0.00    +0.105 A 
ATOM     30  C   UNL     1      10.835   8.578  21.416  0.00  0.00    +0.030 A 
ATOM     31  C   UNL     1      12.328  10.091  20.269  0.00  0.00    +0.030 A 
ATOM     32  C   UNL     1      10.546   9.572  22.351  0.00  0.00    +0.025 A 
ATOM     33  C   UNL     1      12.040  11.085  21.204  0.00  0.00    +0.025 A 
ATOM     34  C   UNL     1      11.149  10.825  22.245  0.00  0.00    +0.033 A 
BRANCH  34   8
ATOM      4  O   UNL     1      11.304  10.784  25.252  0.00  0.00    -0.276 OA
ATOM      8  N   UNL     1      10.860  11.820  23.181  0.00  0.00    -0.286 N 
ATOM     35  C   UNL     1      10.950  11.745  24.577  0.00  0.00    +0.214 C 
ATOM     36  C   UNL     1      10.548  13.042  25.234  0.00  0.00    +0.109 C 
ATOM     38  H   UNL     1      10.548  12.706  22.791  0.00  0.00    +0.155 HD
ENDBRANCH  34   8
ENDBRANCH   1  22
ENDBRANCH   5   1
ENDBRANCH  11   5
TORSDOF 7
ENDMDL
MODEL 2
REMARK VINA RESULT:      -8.3      1.546      2.191
REMARK  Name = 40777705
REMARK  13 active torsions:
REMARK  status: ('A' for Active; 'I' for Inactive)
REMARK    1  A    between atoms: S_1  and  N_5
REMARK    2  A    between atoms: S_1  and  C_22
REMARK    3  A    between atoms: N_5  and  C_11
REMARK    4  A    between atoms: N_6  and  C_18
REMARK    5  A    between atoms: N_8  and  C_34
REMARK    6  A    between atoms: C_9  and  C_12
REMARK    7  A    between atoms: C_15  and  C_17
REMARK    8  A    between atoms: C_16  and  C_20
REMARK    9  A    between atoms: C_19  and  C_21
REMARK   10  A    between atoms: C_19  and  C_27
REMARK   11  A    between atoms: C_19  and  C_28
REMARK   12  A    between atoms: C_19  and  C_29
REMARK   13  A    between atoms: C_35  and  C_36
REMARK                            x       y       z     vdW  Elec       q    Type
REMARK                         _______ _______ _______ _____ _____    ______ ____
ROOT
ATOM      9  C   UNL     1      17.074   6.573  20.775  0.00  0.00    +0.047 C 
ATOM     10  C   UNL     1      15.964   7.559  21.183  0.00  0.00    +0.037 C 
ATOM     11  C   UNL     1      14.820   7.359  20.174  0.00  0.00    +0.100 C 
ATOM     13  C   UNL     1      16.757   6.319  19.330  0.00  0.00    -0.021 C 
ATOM     14  C   UNL     1      15.529   6.740  19.011  0.00  0.00    -0.010 C 
ENDROOT
BRANCH   9  12
ATOM      6  N   UNL     1      20.629   7.322  21.243  0.00  0.00    -0.236 N 
ATOM      7  N   UNL     1      20.158   8.534  21.586  0.00  0.00    -0.171 NA
ATOM     12  C   UNL     1      18.467   7.101  21.032  0.00  0.00    +0.003 A 
ATOM     15  C   UNL     1      19.657   6.429  20.903  0.00  0.00    +0.046 A 
ATOM     16  C   UNL     1      18.837   8.392  21.454  0.00  0.00    +0.064 A 
ATOM     17  C   UNL     1      19.940   5.039  20.492  0.00  0.00    +0.066 C 
ATOM     20  C   UNL     1      17.953   9.536  21.747  0.00  0.00    +0.068 C 
BRANCH   6  18
ATOM     18  C   UNL     1      22.004   7.084  21.261  0.00  0.00    +0.066 A 
ATOM     21  C   UNL     1      24.752   6.602  21.295  0.00  0.00    -0.042 A 
ATOM     23  C   UNL     1      22.821   7.633  20.272  0.00  0.00    +0.028 A 
ATOM     24  C   UNL     1      22.561   6.294  22.266  0.00  0.00    +0.028 A 
ATOM     25  C   UNL     1      24.194   7.392  20.289  0.00  0.00    +0.006 A 
ATOM     26  C   UNL     1      23.934   6.053  22.283  0.00  0.00    +0.006 A 
BRANCH  21  19
ATOM     19  C   UNL     1      26.220   6.343  21.312  0.00  0.00    -0.013 C 
ATOM     27  C   UNL     1      26.529   4.871  21.723  0.00  0.00    +0.015 C 
ATOM     28  C   UNL     1      26.947   7.278  22.330  0.00  0.00    +0.015 C 
ATOM     29  C   UNL     1      26.957   6.559  19.949  0.00  0.00    +0.015 C 
ENDBRANCH  21  19
ENDBRANCH   6  18
ENDBRANCH   9  12
BRANCH  11   5
ATOM      5  N   UNL     1      13.779   6.480  20.693  0.00  0.00    -0.183 NA
ATOM     37  H   UNL     1      14.068   5.604  21.146  0.00  0.00    +0.149 HD
BRANCH   5   1
ATOM      1  S   UNL     1      12.159   6.706  20.224  0.00  0.00    +0.059 S 
ATOM      2  O   UNL     1      11.362   5.588  20.695  0.00  0.00    -0.153 OA
ATOM      3  O   UNL     1      12.121   7.092  18.827  0.00  0.00    -0.153 OA
BRANCH   1  22
ATOM     22  C   UNL     1      11.706   8.131  21.166  0.00  0.00    +0.105 A 
ATOM     30  C   UNL     1      10.936   7.990  22.321  0.00  0.00    +0.030 A 
ATOM     31  C   UNL     1      12.118   9.399  20.754  0.00  0.00    +0.030 A 
ATOM     32  C   UNL     1      10.579   9.115  23.064  0.00  0.00    +0.025 A 
ATOM     33  C   UNL     1      11.761  10.524  21.498  0.00  0.00    +0.025 A 
ATOM     34  C   UNL     1      10.992  10.382  22.652  0.00  0.00    +0.033 A 
BRANCH  34   8
ATOM      4  O   UNL     1      12.094  11.442  25.246  0.00  0.00    -0.276 OA
ATOM      8  N   UNL     1      10.634  11.508  23.396  0.00  0.00    -0.286 N 
ATOM     35  C   UNL     1      11.184  11.956  24.604  0.00  0.00    +0.214 C 
ATOM     36  C   UNL     1      10.517  13.220  25.087  0.00  0.00    +0.109 C 
ATOM     38  H   UNL     1       9.880  12.067  23.003  0.00  0.00    +0.155 HD
ENDBRANCH  34   8
ENDBRANCH   1  22
ENDBRANCH   5   1
ENDBRANCH  11   5
TORSDOF 7
ENDMDL
MODEL 3
REMARK VINA RESULT:      -8.0      2.639      4.451
REMARK  Name = 40777705
REMARK  13 active torsions:
REMARK  status: ('A' for Active; 'I' for Inactive)
REMARK    1  A    between atoms: S_1  and  N_5
REMARK    2  A    between atoms: S_1  and  C_22
REMARK    3  A    between atoms: N_5  and  C_11
REMARK    4  A    between atoms: N_6  and  C_18
REMARK    5  A    between atoms: N_8  and  C_34
REMARK    6  A    between atoms: C_9  and  C_12
REMARK    7  A    between atoms: C_15  and  C_17
REMARK    8  A    between atoms: C_16  and  C_20
REMARK    9  A    between atoms: C_19  and  C_21
REMARK   10  A    between atoms: C_19  and  C_27
REMARK   11  A    between atoms: C_19  and  C_28
REMARK   12  A    between atoms: C_19  and  C_29
REMARK   13  A    between atoms: C_35  and  C_36
REMARK                            x       y       z     vdW  Elec       q    Type
REMARK                         _______ _______ _______ _____ _____    ______ ____
ROOT
ATOM      9  C   UNL     1      17.052   6.557  20.719  0.00  0.00    +0.047 C 
ATOM     10  C   UNL     1      16.002   7.592  21.166  0.00  0.00    +0.037 C 
ATOM     11  C   UNL     1      14.804   7.426  20.217  0.00  0.00    +0.100 C 
ATOM     13  C   UNL     1      16.655   6.300  19.294  0.00  0.00    -0.021 C 
ATOM     14  C   UNL     1      15.431   6.766  19.029  0.00  0.00    -0.010 C 
ENDROOT
BRANCH   9  12
ATOM      6  N   UNL     1      20.262   8.212  21.329  0.00  0.00    -0.236 N 
ATOM      7  N   UNL     1      20.759   7.025  20.940  0.00  0.00    -0.171 NA
ATOM     12  C   UNL     1      18.475   7.032  20.901  0.00  0.00    +0.003 A 
ATOM     15  C   UNL     1      18.900   8.267  21.324  0.00  0.00    +0.046 A 
ATOM     16  C   UNL     1      19.662   6.309  20.680  0.00  0.00    +0.064 A 
ATOM     17  C   UNL     1      18.135   9.469  21.715  0.00  0.00    +0.066 C 
ATOM     20  C   UNL     1      19.800   4.916  20.217  0.00  0.00    +0.068 C 
BRANCH   6  18
ATOM     18  C   UNL     1      21.133   9.242  21.690  0.00  0.00    +0.066 A 
ATOM     21  C   UNL     1      22.867  11.304  22.411  0.00  0.00    -0.042 A 
ATOM     23  C   UNL     1      21.655   9.294  22.982  0.00  0.00    +0.028 A 
ATOM     24  C   UNL     1      21.477  10.220  20.758  0.00  0.00    +0.028 A 
ATOM     25  C   UNL     1      22.522  10.326  23.343  0.00  0.00    +0.006 A 
ATOM     26  C   UNL     1      22.344  11.252  21.118  0.00  0.00    +0.006 A 
BRANCH  21  19
ATOM     19  C   UNL     1      23.793  12.408  22.796  0.00  0.00    -0.013 C 
ATOM     27  C   UNL     1      24.839  12.687  21.673  0.00  0.00    +0.015 C 
ATOM     28  C   UNL     1      24.582  12.056  24.096  0.00  0.00    +0.015 C 
ATOM     29  C   UNL     1      23.112  13.787  23.083  0.00  0.00    +0.015 C 
ENDBRANCH  21  19
ENDBRANCH   6  18
ENDBRANCH   9  12
BRANCH  11   5
ATOM      5  N   UNL     1      13.756   6.595  20.797  0.00  0.00    -0.183 NA
ATOM     37  H   UNL     1      14.037   5.746  21.302  0.00  0.00    +0.149 HD
BRANCH   5   1
ATOM      1  S   UNL     1      12.135   6.813  20.326  0.00  0.00    +0.059 S 
ATOM      2  O   UNL     1      11.340   5.701  20.813  0.00  0.00    -0.153 OA
ATOM      3  O   UNL     1      12.096   7.179  18.923  0.00  0.00    -0.153 OA
BRANCH   1  22
ATOM     22  C   UNL     1      11.682   8.251  21.248  0.00  0.00    +0.105 A 
ATOM     30  C   UNL     1      10.892   8.127  22.392  0.00  0.00    +0.030 A 
ATOM     31  C   UNL     1      12.113   9.511  20.833  0.00  0.00    +0.030 A 
ATOM     32  C   UNL     1      10.535   9.262  23.120  0.00  0.00    +0.025 A 
ATOM     33  C   UNL     1      11.755  10.646  21.560  0.00  0.00    +0.025 A 
ATOM     34  C   UNL     1      10.966  10.521  22.704  0.00  0.00    +0.033 A 
BRANCH  34   8
ATOM      4  O   UNL     1      11.881  11.477  25.408  0.00  0.00    -0.276 OA
ATOM      8  N   UNL     1      10.609  11.657  23.432  0.00  0.00    -0.286 N 
ATOM     35  C   UNL     1      11.067  12.055  24.695  0.00  0.00    +0.214 C 
ATOM     36  C   UNL     1      10.435  13.350  25.137  0.00  0.00    +0.109 C 
ATOM     38  H   UNL     1       9.929  12.267  22.981  0.00  0.00    +0.155 HD
ENDBRANCH  34   8
ENDBRANCH   1  22
ENDBRANCH   5   1
ENDBRANCH  11   5
TORSDOF 7
ENDMDL
MODEL 4
REMARK VINA RESULT:      -7.9     28.029     31.727
REMARK  Name = 40777705
REMARK  13 active torsions:
REMARK  status: ('A' for Active; 'I' for Inactive)
REMARK    1  A    between atoms: S_1  and  N_5
REMARK    2  A    between atoms: S_1  and  C_22
REMARK    3  A    between atoms: N_5  and  C_11
REMARK    4  A    between atoms: N_6  and  C_18
REMARK    5  A    between atoms: N_8  and  C_34
REMARK    6  A    between atoms: C_9  and  C_12
REMARK    7  A    between atoms: C_15  and  C_17
REMARK    8  A    between atoms: C_16  and  C_20
REMARK    9  A    between atoms: C_19  and  C_21
REMARK   10  A    between atoms: C_19  and  C_27
REMARK   11  A    between atoms: C_19  and  C_28
REMARK   12  A    between atoms: C_19  and  C_29
REMARK   13  A    between atoms: C_35  and  C_36
REMARK                            x       y       z     vdW  Elec       q    Type
REMARK                         _______ _______ _______ _____ _____    ______ ____
ROOT
ATOM      9  C   UNL     1      -4.205  -9.755  10.914  0.00  0.00    +0.047 C 
ATOM     10  C   UNL     1      -4.343 -10.885  11.952  0.00  0.00    +0.037 C 
ATOM     11  C   UNL     1      -2.998 -10.949  12.696  0.00  0.00    +0.100 C 
ATOM     13  C   UNL     1      -2.717  -9.657  10.747  0.00  0.00    -0.021 C 
ATOM     14  C   UNL     1      -2.066 -10.299  11.722  0.00  0.00    -0.010 C 
ENDROOT
BRANCH   9  12
ATOM      6  N   UNL     1      -6.253  -9.862   7.879  0.00  0.00    -0.236 N 
ATOM      7  N   UNL     1      -5.748 -11.104   7.781  0.00  0.00    -0.171 NA
ATOM     12  C   UNL     1      -4.967 -10.023   9.635  0.00  0.00    +0.003 A 
ATOM     15  C   UNL     1      -5.817  -9.174   8.971  0.00  0.00    +0.046 A 
ATOM     16  C   UNL     1      -4.963 -11.196   8.857  0.00  0.00    +0.064 A 
ATOM     17  C   UNL     1      -6.237  -7.792   9.282  0.00  0.00    +0.066 C 
ATOM     20  C   UNL     1      -4.216 -12.442   9.104  0.00  0.00    +0.068 C 
BRANCH   6  18
ATOM     18  C   UNL     1      -7.140  -9.397   6.906  0.00  0.00    +0.066 A 
ATOM     21  C   UNL     1      -8.910  -8.474   4.957  0.00  0.00    -0.042 A 
ATOM     23  C   UNL     1      -8.512  -9.398   7.154  0.00  0.00    +0.028 A 
ATOM     24  C   UNL     1      -6.652  -8.936   5.683  0.00  0.00    +0.028 A 
ATOM     25  C   UNL     1      -9.397  -8.936   6.180  0.00  0.00    +0.006 A 
ATOM     26  C   UNL     1      -7.537  -8.475   4.709  0.00  0.00    +0.006 A 
BRANCH  21  19
ATOM     19  C   UNL     1      -9.856  -7.982   3.915  0.00  0.00    -0.013 C 
ATOM     27  C   UNL     1     -10.459  -9.164   3.095  0.00  0.00    +0.015 C 
ATOM     28  C   UNL     1      -9.141  -7.028   2.907  0.00  0.00    +0.015 C 
ATOM     29  C   UNL     1     -11.085  -7.176   4.450  0.00  0.00    +0.015 C 
ENDBRANCH  21  19
ENDBRANCH   6  18
ENDBRANCH   9  12
BRANCH  11   5
ATOM      5  N   UNL     1      -3.037 -10.224  13.961  0.00  0.00    -0.183 NA
ATOM     37  H   UNL     1      -3.080  -9.199  13.929  0.00  0.00    +0.149 HD
BRANCH   5   1
ATOM      1  S   UNL     1      -2.638 -11.019  15.413  0.00  0.00    +0.059 S 
ATOM      2  O   UNL     1      -1.557 -10.308  16.068  0.00  0.00    -0.153 OA
ATOM      3  O   UNL     1      -2.525 -12.443  15.156  0.00  0.00    -0.153 OA
BRANCH   1  22
ATOM     22  C   UNL     1      -4.105 -10.781  16.369  0.00  0.00    +0.105 A 
ATOM     30  C   UNL     1      -5.207 -10.136  15.808  0.00  0.00    +0.030 A 
ATOM     31  C   UNL     1      -4.160 -11.237  17.687  0.00  0.00    +0.030 A 
ATOM     32  C   UNL     1      -6.365  -9.948  16.564  0.00  0.00    +0.025 A 
ATOM     33  C   UNL     1      -5.318 -11.049  18.442  0.00  0.00    +0.025 A 
ATOM     34  C   UNL     1      -6.419 -10.405  17.880  0.00  0.00    +0.033 A 
BRANCH  34   8
ATOM      4  O   UNL     1      -8.754 -12.243  18.370  0.00  0.00    -0.276 OA
ATOM      8  N   UNL     1      -7.578 -10.217  18.636  0.00  0.00    -0.286 N 
ATOM     35  C   UNL     1      -8.639 -11.111  18.830  0.00  0.00    +0.214 C 
ATOM     36  C   UNL     1      -9.707 -10.527  19.720  0.00  0.00    +0.109 C 
ATOM     38  H   UNL     1      -7.651  -9.314  19.102  0.00  0.00    +0.155 HD
ENDBRANCH  34   8
ENDBRANCH   1  22
ENDBRANCH   5   1
ENDBRANCH  11   5
TORSDOF 7
ENDMDL
MODEL 5
REMARK VINA RESULT:      -7.8     26.062     30.896
REMARK  Name = 40777705
REMARK  13 active torsions:
REMARK  status: ('A' for Active; 'I' for Inactive)
REMARK    1  A    between atoms: S_1  and  N_5
REMARK    2  A    between atoms: S_1  and  C_22
REMARK    3  A    between atoms: N_5  and  C_11
REMARK    4  A    between atoms: N_6  and  C_18
REMARK    5  A    between atoms: N_8  and  C_34
REMARK    6  A    between atoms: C_9  and  C_12
REMARK    7  A    between atoms: C_15  and  C_17
REMARK    8  A    between atoms: C_16  and  C_20
REMARK    9  A    between atoms: C_19  and  C_21
REMARK   10  A    between atoms: C_19  and  C_27
REMARK   11  A    between atoms: C_19  and  C_28
REMARK   12  A    between atoms: C_19  and  C_29
REMARK   13  A    between atoms: C_35  and  C_36
REMARK                            x       y       z     vdW  Elec       q    Type
REMARK                         _______ _______ _______ _____ _____    ______ ____
ROOT
ATOM      9  C   UNL     1     -12.428  10.109  32.172  0.00  0.00    +0.047 C 
ATOM     10  C   UNL     1     -11.994   8.640  32.009  0.00  0.00    +0.037 C 
ATOM     11  C   UNL     1     -12.812   7.835  33.032  0.00  0.00    +0.100 C 
ATOM     13  C   UNL     1     -12.983  10.123  33.566  0.00  0.00    -0.021 C 
ATOM     14  C   UNL     1     -13.198   8.886  34.026  0.00  0.00    -0.010 C 
ENDROOT
BRANCH   9  12
ATOM      6  N   UNL     1      -9.409  12.172  31.962  0.00  0.00    -0.236 N 
ATOM      7  N   UNL     1     -10.152  12.878  31.092  0.00  0.00    -0.171 NA
ATOM     12  C   UNL     1     -11.307  11.094  31.929  0.00  0.00    +0.003 A 
ATOM     15  C   UNL     1     -10.055  11.095  32.491  0.00  0.00    +0.046 A 
ATOM     16  C   UNL     1     -11.310  12.213  31.076  0.00  0.00    +0.064 A 
ATOM     17  C   UNL     1      -9.434  10.175  33.467  0.00  0.00    +0.066 C 
ATOM     20  C   UNL     1     -12.408  12.692  30.216  0.00  0.00    +0.068 C 
BRANCH   6  18
ATOM     18  C   UNL     1      -8.102  12.576  32.242  0.00  0.00    +0.066 A 
ATOM     21  C   UNL     1      -5.491  13.379  32.808  0.00  0.00    -0.042 A 
ATOM     23  C   UNL     1      -7.071  12.268  31.355  0.00  0.00    +0.028 A 
ATOM     24  C   UNL     1      -7.829  13.285  33.412  0.00  0.00    +0.028 A 
ATOM     25  C   UNL     1      -5.765  12.670  31.638  0.00  0.00    +0.006 A 
ATOM     26  C   UNL     1      -6.523  13.686  33.695  0.00  0.00    +0.006 A 
BRANCH  21  19
ATOM     19  C   UNL     1      -4.095  13.807  33.111  0.00  0.00    -0.013 C 
ATOM     27  C   UNL     1      -4.074  15.166  33.876  0.00  0.00    +0.015 C 
ATOM     28  C   UNL     1      -3.263  13.991  31.803  0.00  0.00    +0.015 C 
ATOM     29  C   UNL     1      -3.266  12.818  33.996  0.00  0.00    +0.015 C 
ENDBRANCH  21  19
ENDBRANCH   6  18
ENDBRANCH   9  12
BRANCH  11   5
ATOM      5  N   UNL     1     -13.986   7.215  32.429  0.00  0.00    -0.183 NA
ATOM     37  H   UNL     1     -14.421   7.683  31.626  0.00  0.00    +0.149 HD
BRANCH   5   1
ATOM      1  S   UNL     1     -14.821   5.985  33.259  0.00  0.00    +0.059 S 
ATOM      2  O   UNL     1     -16.250   6.204  33.129  0.00  0.00    -0.153 OA
ATOM      3  O   UNL     1     -14.227   5.811  34.570  0.00  0.00    -0.153 OA
BRANCH   1  22
ATOM     22  C   UNL     1     -14.401   4.557  32.307  0.00  0.00    +0.105 A 
ATOM     30  C   UNL     1     -14.744   4.493  30.956  0.00  0.00    +0.030 A 
ATOM     31  C   UNL     1     -13.726   3.493  32.906  0.00  0.00    +0.030 A 
ATOM     32  C   UNL     1     -14.412   3.366  30.204  0.00  0.00    +0.025 A 
ATOM     33  C   UNL     1     -13.395   2.365  32.154  0.00  0.00    +0.025 A 
ATOM     34  C   UNL     1     -13.737   2.302  30.804  0.00  0.00    +0.033 A 
BRANCH  34   8
ATOM      4  O   UNL     1     -14.699  -0.543  31.017  0.00  0.00    -0.276 OA
ATOM      8  N   UNL     1     -13.404   1.174  30.052  0.00  0.00    -0.286 N 
ATOM     35  C   UNL     1     -13.885  -0.134  30.196  0.00  0.00    +0.214 C 
ATOM     36  C   UNL     1     -13.276  -1.068  29.180  0.00  0.00    +0.109 C 
ATOM     38  H   UNL     1     -12.728   1.333  29.307  0.00  0.00    +0.155 HD
ENDBRANCH  34   8
ENDBRANCH   1  22
ENDBRANCH   5   1
ENDBRANCH  11   5
TORSDOF 7
ENDMDL
MODEL 6
REMARK VINA RESULT:      -7.8     27.839     32.459
REMARK  Name = 40777705
REMARK  13 active torsions:
REMARK  status: ('A' for Active; 'I' for Inactive)
REMARK    1  A    between atoms: S_1  and  N_5
REMARK    2  A    between atoms: S_1  and  C_22
REMARK    3  A    between atoms: N_5  and  C_11
REMARK    4  A    between atoms: N_6  and  C_18
REMARK    5  A    between atoms: N_8  and  C_34
REMARK    6  A    between atoms: C_9  and  C_12
REMARK    7  A    between atoms: C_15  and  C_17
REMARK    8  A    between atoms: C_16  and  C_20
REMARK    9  A    between atoms: C_19  and  C_21
REMARK   10  A    between atoms: C_19  and  C_27
REMARK   11  A    between atoms: C_19  and  C_28
REMARK   12  A    between atoms: C_19  and  C_29
REMARK   13  A    between atoms: C_35  and  C_36
REMARK                            x       y       z     vdW  Elec       q    Type
REMARK                         _______ _______ _______ _____ _____    ______ ____
ROOT
ATOM      9  C   UNL     1      -6.257 -10.928  16.833  0.00  0.00    +0.047 C 
ATOM     10  C   UNL     1      -4.888 -10.386  17.284  0.00  0.00    +0.037 C 
ATOM     11  C   UNL     1      -3.839 -11.078  16.397  0.00  0.00    +0.100 C 
ATOM     13  C   UNL     1      -5.885 -12.226  16.178  0.00  0.00    -0.021 C 
ATOM     14  C   UNL     1      -4.572 -12.300  15.936  0.00  0.00    -0.010 C 
ENDROOT
BRANCH   9  12
ATOM      6  N   UNL     1      -9.072 -11.140  19.168  0.00  0.00    -0.236 N 
ATOM      7  N   UNL     1      -8.096 -11.362  20.065  0.00  0.00    -0.171 NA
ATOM     12  C   UNL     1      -7.252 -11.055  17.965  0.00  0.00    +0.003 A 
ATOM     15  C   UNL     1      -8.619 -10.950  17.896  0.00  0.00    +0.046 A 
ATOM     16  C   UNL     1      -6.986 -11.309  19.323  0.00  0.00    +0.064 A 
ATOM     17  C   UNL     1      -9.511 -10.692  16.747  0.00  0.00    +0.066 C 
ATOM     20  C   UNL     1      -5.675 -11.511  19.966  0.00  0.00    +0.068 C 
BRANCH   6  18
ATOM     18  C   UNL     1     -10.404 -11.122  19.585  0.00  0.00    +0.066 A 
ATOM     21  C   UNL     1     -13.067 -11.082  20.413  0.00  0.00    -0.042 A 
ATOM     23  C   UNL     1     -11.107 -12.318  19.729  0.00  0.00    +0.028 A 
ATOM     24  C   UNL     1     -11.032  -9.906  19.855  0.00  0.00    +0.028 A 
ATOM     25  C   UNL     1     -12.439 -12.298  20.142  0.00  0.00    +0.006 A 
ATOM     26  C   UNL     1     -12.364  -9.887  20.269  0.00  0.00    +0.006 A 
BRANCH  21  19
ATOM     19  C   UNL     1     -14.492 -11.061  20.855  0.00  0.00    -0.013 C 
ATOM     27  C   UNL     1     -14.656 -11.705  22.266  0.00  0.00    +0.015 C 
ATOM     28  C   UNL     1     -15.402 -11.856  19.866  0.00  0.00    +0.015 C 
ATOM     29  C   UNL     1     -15.139  -9.641  20.967  0.00  0.00    +0.015 C 
ENDBRANCH  21  19
ENDBRANCH   6  18
ENDBRANCH   9  12
BRANCH  11   5
ATOM      5  N   UNL     1      -3.435 -10.243  15.272  0.00  0.00    -0.183 NA
ATOM     37  H   UNL     1      -4.107  -9.553  14.917  0.00  0.00    +0.149 HD
BRANCH   5   1
ATOM      1  S   UNL     1      -2.068 -10.661  14.348  0.00  0.00    +0.059 S 
ATOM      2  O   UNL     1      -1.664 -12.016  14.674  0.00  0.00    -0.153 OA
ATOM      3  O   UNL     1      -1.106  -9.578  14.411  0.00  0.00    -0.153 OA
BRANCH   1  22
ATOM     22  C   UNL     1      -2.729 -10.670  12.709  0.00  0.00    +0.105 A 
ATOM     30  C   UNL     1      -2.267  -9.753  11.765  0.00  0.00    +0.030 A 
ATOM     31  C   UNL     1      -3.715 -11.593  12.360  0.00  0.00    +0.030 A 
ATOM     32  C   UNL     1      -2.790  -9.760  10.471  0.00  0.00    +0.025 A 
ATOM     33  C   UNL     1      -4.238 -11.600  11.066  0.00  0.00    +0.025 A 
ATOM     34  C   UNL     1      -3.774 -10.684  10.123  0.00  0.00    +0.033 A 
BRANCH  34   8
ATOM      4  O   UNL     1      -5.845  -8.913   8.840  0.00  0.00    -0.276 OA
ATOM      8  N   UNL     1      -4.297 -10.691   8.828  0.00  0.00    -0.286 N 
ATOM     35  C   UNL     1      -5.266  -9.839   8.282  0.00  0.00    +0.214 C 
ATOM     36  C   UNL     1      -5.558 -10.176   6.841  0.00  0.00    +0.109 C 
ATOM     38  H   UNL     1      -3.920 -11.408   8.212  0.00  0.00    +0.155 HD
ENDBRANCH  34   8
ENDBRANCH   1  22
ENDBRANCH   5   1
ENDBRANCH  11   5
TORSDOF 7
ENDMDL
MODEL 7
REMARK VINA RESULT:      -7.6      2.791      4.264
REMARK  Name = 40777705
REMARK  13 active torsions:
REMARK  status: ('A' for Active; 'I' for Inactive)
REMARK    1  A    between atoms: S_1  and  N_5
REMARK    2  A    between atoms: S_1  and  C_22
REMARK    3  A    between atoms: N_5  and  C_11
REMARK    4  A    between atoms: N_6  and  C_18
REMARK    5  A    between atoms: N_8  and  C_34
REMARK    6  A    between atoms: C_9  and  C_12
REMARK    7  A    between atoms: C_15  and  C_17
REMARK    8  A    between atoms: C_16  and  C_20
REMARK    9  A    between atoms: C_19  and  C_21
REMARK   10  A    between atoms: C_19  and  C_27
REMARK   11  A    between atoms: C_19  and  C_28
REMARK   12  A    between atoms: C_19  and  C_29
REMARK   13  A    between atoms: C_35  and  C_36
REMARK                            x       y       z     vdW  Elec       q    Type
REMARK                         _______ _______ _______ _____ _____    ______ ____
ROOT
ATOM      9  C   UNL     1      17.695   6.210  20.807  0.00  0.00    +0.047 C 
ATOM     10  C   UNL     1      16.656   7.296  21.144  0.00  0.00    +0.037 C 
ATOM     11  C   UNL     1      15.539   7.161  20.096  0.00  0.00    +0.100 C 
ATOM     13  C   UNL     1      17.413   5.941  19.357  0.00  0.00    -0.021 C 
ATOM     14  C   UNL     1      16.237   6.452  18.978  0.00  0.00    -0.010 C 
ENDROOT
BRANCH   9  12
ATOM      6  N   UNL     1      21.285   6.693  21.353  0.00  0.00    -0.236 N 
ATOM      7  N   UNL     1      20.892   7.917  21.746  0.00  0.00    -0.171 NA
ATOM     12  C   UNL     1      19.116   6.630  21.106  0.00  0.00    +0.003 A 
ATOM     15  C   UNL     1      20.260   5.885  20.960  0.00  0.00    +0.046 A 
ATOM     16  C   UNL     1      19.566   7.872  21.592  0.00  0.00    +0.064 A 
ATOM     17  C   UNL     1      20.455   4.499  20.487  0.00  0.00    +0.066 C 
ATOM     20  C   UNL     1      18.758   9.059  21.926  0.00  0.00    +0.068 C 
BRANCH   6  18
ATOM     18  C   UNL     1      22.640   6.361  21.377  0.00  0.00    +0.066 A 
ATOM     21  C   UNL     1      25.351   5.705  21.427  0.00  0.00    -0.042 A 
ATOM     23  C   UNL     1      23.156   5.605  22.430  0.00  0.00    +0.028 A 
ATOM     24  C   UNL     1      23.480   6.790  20.350  0.00  0.00    +0.028 A 
ATOM     25  C   UNL     1      24.511   5.277  22.455  0.00  0.00    +0.006 A 
ATOM     26  C   UNL     1      24.836   6.461  20.374  0.00  0.00    +0.006 A 
BRANCH  21  19
ATOM     19  C   UNL     1      26.801   5.355  21.454  0.00  0.00    -0.013 C 
ATOM     27  C   UNL     1      27.590   6.130  20.354  0.00  0.00    +0.015 C 
ATOM     28  C   UNL     1      27.019   3.830  21.202  0.00  0.00    +0.015 C 
ATOM     29  C   UNL     1      27.542   5.665  22.796  0.00  0.00    +0.015 C 
ENDBRANCH  21  19
ENDBRANCH   6  18
ENDBRANCH   9  12
BRANCH  11   5
ATOM      5  N   UNL     1      14.409   6.386  20.595  0.00  0.00    -0.183 NA
ATOM     37  H   UNL     1      14.530   5.372  20.703  0.00  0.00    +0.149 HD
BRANCH   5   1
ATOM      1  S   UNL     1      12.851   7.070  20.626  0.00  0.00    +0.059 S 
ATOM      2  O   UNL     1      12.698   7.861  21.834  0.00  0.00    -0.153 OA
ATOM      3  O   UNL     1      11.878   6.046  20.297  0.00  0.00    -0.153 OA
BRANCH   1  22
ATOM     22  C   UNL     1      12.918   8.180  19.253  0.00  0.00    +0.105 A 
ATOM     30  C   UNL     1      13.094   9.548  19.469  0.00  0.00    +0.030 A 
ATOM     31  C   UNL     1      12.792   7.691  17.953  0.00  0.00    +0.030 A 
ATOM     32  C   UNL     1      13.146  10.424  18.385  0.00  0.00    +0.025 A 
ATOM     33  C   UNL     1      12.844   8.567  16.869  0.00  0.00    +0.025 A 
ATOM     34  C   UNL     1      13.021   9.933  17.085  0.00  0.00    +0.033 A 
BRANCH  34   8
ATOM      4  O   UNL     1      15.322  10.697  15.299  0.00  0.00    -0.276 OA
ATOM      8  N   UNL     1      13.074  10.810  16.000  0.00  0.00    -0.286 N 
ATOM     35  C   UNL     1      14.178  11.131  15.200  0.00  0.00    +0.214 C 
ATOM     36  C   UNL     1      13.820  12.125  14.125  0.00  0.00    +0.109 C 
ATOM     38  H   UNL     1      12.194  11.268  15.769  0.00  0.00    +0.155 HD
ENDBRANCH  34   8
ENDBRANCH   1  22
ENDBRANCH   5   1
ENDBRANCH  11   5
TORSDOF 7
ENDMDL
MODEL 8
REMARK VINA RESULT:      -7.6     28.997     31.310
REMARK  Name = 40777705
REMARK  13 active torsions:
REMARK  status: ('A' for Active; 'I' for Inactive)
REMARK    1  A    between atoms: S_1  and  N_5
REMARK    2  A    between atoms: S_1  and  C_22
REMARK    3  A    between atoms: N_5  and  C_11
REMARK    4  A    between atoms: N_6  and  C_18
REMARK    5  A    between atoms: N_8  and  C_34
REMARK    6  A    between atoms: C_9  and  C_12
REMARK    7  A    between atoms: C_15  and  C_17
REMARK    8  A    between atoms: C_16  and  C_20
REMARK    9  A    between atoms: C_19  and  C_21
REMARK   10  A    between atoms: C_19  and  C_27
REMARK   11  A    between atoms: C_19  and  C_28
REMARK   12  A    between atoms: C_19  and  C_29
REMARK   13  A    between atoms: C_35  and  C_36
REMARK                            x       y       z     vdW  Elec       q    Type
REMARK                         _______ _______ _______ _____ _____    ______ ____
ROOT
ATOM      9  C   UNL     1     -12.304  10.626  24.389  0.00  0.00    +0.047 C 
ATOM     10  C   UNL     1     -13.475   9.856  23.749  0.00  0.00    +0.037 C 
ATOM     11  C   UNL     1     -13.549  10.328  22.287  0.00  0.00    +0.100 C 
ATOM     13  C   UNL     1     -12.178  11.820  23.488  0.00  0.00    -0.021 C 
ATOM     14  C   UNL     1     -12.849  11.650  22.344  0.00  0.00    -0.010 C 
ENDROOT
BRANCH   9  12
ATOM      6  N   UNL     1     -12.355  11.147  28.015  0.00  0.00    -0.236 N 
ATOM      7  N   UNL     1     -13.505  11.787  27.739  0.00  0.00    -0.171 NA
ATOM     12  C   UNL     1     -12.532  10.956  25.847  0.00  0.00    +0.003 A 
ATOM     15  C   UNL     1     -11.734  10.632  26.915  0.00  0.00    +0.046 A 
ATOM     16  C   UNL     1     -13.607  11.667  26.413  0.00  0.00    +0.064 A 
ATOM     17  C   UNL     1     -10.458   9.891  26.978  0.00  0.00    +0.066 C 
ATOM     20  C   UNL     1     -14.767  12.257  25.720  0.00  0.00    +0.068 C 
BRANCH   6  18
ATOM     18  C   UNL     1     -11.909  11.064  29.334  0.00  0.00    +0.066 A 
ATOM     21  C   UNL     1     -11.022  10.903  31.974  0.00  0.00    -0.042 A 
ATOM     23  C   UNL     1     -12.215   9.943  30.106  0.00  0.00    +0.028 A 
ATOM     24  C   UNL     1     -11.160  12.105  29.883  0.00  0.00    +0.028 A 
ATOM     25  C   UNL     1     -11.772   9.862  31.426  0.00  0.00    +0.006 A 
ATOM     26  C   UNL     1     -10.717  12.024  31.203  0.00  0.00    +0.006 A 
BRANCH  21  19
ATOM     19  C   UNL     1     -10.549  10.817  33.386  0.00  0.00    -0.013 C 
ATOM     27  C   UNL     1      -9.009  10.577  33.453  0.00  0.00    +0.015 C 
ATOM     28  C   UNL     1     -11.241   9.641  34.144  0.00  0.00    +0.015 C 
ATOM     29  C   UNL     1     -10.811  12.087  34.261  0.00  0.00    +0.015 C 
ENDBRANCH  21  19
ENDBRANCH   6  18
ENDBRANCH   9  12
BRANCH  11   5
ATOM      5  N   UNL     1     -12.874   9.407  21.379  0.00  0.00    -0.183 NA
ATOM     37  H   UNL     1     -11.885   9.579  21.164  0.00  0.00    +0.149 HD
BRANCH   5   1
ATOM      1  S   UNL     1     -13.784   8.333  20.422  0.00  0.00    +0.059 S 
ATOM      2  O   UNL     1     -12.915   7.709  19.442  0.00  0.00    -0.153 OA
ATOM      3  O   UNL     1     -15.004   8.994  19.998  0.00  0.00    -0.153 OA
BRANCH   1  22
ATOM     22  C   UNL     1     -14.247   7.102  21.602  0.00  0.00    +0.105 A 
ATOM     30  C   UNL     1     -15.455   7.214  22.291  0.00  0.00    +0.030 A 
ATOM     31  C   UNL     1     -13.404   6.017  21.845  0.00  0.00    +0.030 A 
ATOM     32  C   UNL     1     -15.819   6.242  23.223  0.00  0.00    +0.025 A 
ATOM     33  C   UNL     1     -13.769   5.045  22.777  0.00  0.00    +0.025 A 
ATOM     34  C   UNL     1     -14.977   5.158  23.465  0.00  0.00    +0.033 A 
BRANCH  34   8
ATOM      4  O   UNL     1     -16.518   2.595  23.114  0.00  0.00    -0.276 OA
ATOM      8  N   UNL     1     -15.342   4.185  24.397  0.00  0.00    -0.286 N 
ATOM     35  C   UNL     1     -16.065   3.005  24.178  0.00  0.00    +0.214 C 
ATOM     36  C   UNL     1     -16.252   2.218  25.451  0.00  0.00    +0.109 C 
ATOM     38  H   UNL     1     -15.040   4.364  25.353  0.00  0.00    +0.155 HD
ENDBRANCH  34   8
ENDBRANCH   1  22
ENDBRANCH   5   1
ENDBRANCH  11   5
TORSDOF 7
ENDMDL
MODEL 9
REMARK VINA RESULT:      -7.5     27.480     31.062
REMARK  Name = 40777705
REMARK  13 active torsions:
REMARK  status: ('A' for Active; 'I' for Inactive)
REMARK    1  A    between atoms: S_1  and  N_5
REMARK    2  A    between atoms: S_1  and  C_22
REMARK    3  A    between atoms: N_5  and  C_11
REMARK    4  A    between atoms: N_6  and  C_18
REMARK    5  A    between atoms: N_8  and  C_34
REMARK    6  A    between atoms: C_9  and  C_12
REMARK    7  A    between atoms: C_15  and  C_17
REMARK    8  A    between atoms: C_16  and  C_20
REMARK    9  A    between atoms: C_19  and  C_21
REMARK   10  A    between atoms: C_19  and  C_27
REMARK   11  A    between atoms: C_19  and  C_28
REMARK   12  A    between atoms: C_19  and  C_29
REMARK   13  A    between atoms: C_35  and  C_36
REMARK                            x       y       z     vdW  Elec       q    Type
REMARK                         _______ _______ _______ _____ _____    ______ ____
ROOT
ATOM      9  C   UNL     1      -3.230 -11.036  13.451  0.00  0.00    +0.047 C 
ATOM     10  C   UNL     1      -4.346 -10.749  14.473  0.00  0.00    +0.037 C 
ATOM     11  C   UNL     1      -4.453 -12.004  15.356  0.00  0.00    +0.100 C 
ATOM     13  C   UNL     1      -3.187 -12.536  13.442  0.00  0.00    -0.021 C 
ATOM     14  C   UNL     1      -3.845 -13.057  14.483  0.00  0.00    -0.010 C 
ENDROOT
BRANCH   9  12
ATOM      6  N   UNL     1      -4.385  -9.685  10.247  0.00  0.00    -0.236 N 
ATOM      7  N   UNL     1      -3.104  -9.288  10.143  0.00  0.00    -0.171 NA
ATOM     12  C   UNL     1      -3.480 -10.404  12.100  0.00  0.00    +0.003 A 
ATOM     15  C   UNL     1      -4.660 -10.358  11.401  0.00  0.00    +0.046 A 
ATOM     16  C   UNL     1      -2.557  -9.730  11.278  0.00  0.00    +0.064 A 
ATOM     17  C   UNL     1      -6.000 -10.886  11.731  0.00  0.00    +0.066 C 
ATOM     20  C   UNL     1      -1.128  -9.480  11.538  0.00  0.00    +0.068 C 
BRANCH   6  18
ATOM     18  C   UNL     1      -5.285  -9.394   9.221  0.00  0.00    +0.066 A 
ATOM     21  C   UNL     1      -7.088  -8.820   7.172  0.00  0.00    -0.042 A 
ATOM     23  C   UNL     1      -6.262  -8.416   9.406  0.00  0.00    +0.028 A 
ATOM     24  C   UNL     1      -5.210 -10.086   8.013  0.00  0.00    +0.028 A 
ATOM     25  C   UNL     1      -7.163  -8.128   8.381  0.00  0.00    +0.006 A 
ATOM     26  C   UNL     1      -6.111  -9.799   6.988  0.00  0.00    +0.006 A 
BRANCH  21  19
ATOM     19  C   UNL     1      -8.053  -8.513   6.076  0.00  0.00    -0.013 C 
ATOM     27  C   UNL     1      -9.093  -9.662   5.902  0.00  0.00    +0.015 C 
ATOM     28  C   UNL     1      -7.318  -8.332   4.711  0.00  0.00    +0.015 C 
ATOM     29  C   UNL     1      -8.898  -7.211   6.270  0.00  0.00    +0.015 C 
ENDBRANCH  21  19
ENDBRANCH   6  18
ENDBRANCH   9  12
BRANCH  11   5
ATOM      5  N   UNL     1      -3.718 -11.858  16.606  0.00  0.00    -0.183 NA
ATOM     37  H   UNL     1      -2.725 -11.602  16.556  0.00  0.00    +0.149 HD
BRANCH   5   1
ATOM      1  S   UNL     1      -4.373 -12.463  18.056  0.00  0.00    +0.059 S 
ATOM      2  O   UNL     1      -3.676 -11.870  19.182  0.00  0.00    -0.153 OA
ATOM      3  O   UNL     1      -4.497 -13.905  17.953  0.00  0.00    -0.153 OA
BRANCH   1  22
ATOM     22  C   UNL     1      -6.010 -11.799  18.018  0.00  0.00    +0.105 A 
ATOM     30  C   UNL     1      -7.109 -12.654  17.932  0.00  0.00    +0.030 A 
ATOM     31  C   UNL     1      -6.204 -10.418  18.072  0.00  0.00    +0.030 A 
ATOM     32  C   UNL     1      -8.401 -12.130  17.902  0.00  0.00    +0.025 A 
ATOM     33  C   UNL     1      -7.496  -9.894  18.041  0.00  0.00    +0.025 A 
ATOM     34  C   UNL     1      -8.594 -10.750  17.956  0.00  0.00    +0.033 A 
BRANCH  34   8
ATOM      4  O   UNL     1     -10.549 -10.239  20.189  0.00  0.00    -0.276 OA
ATOM      8  N   UNL     1      -9.887 -10.225  17.926  0.00  0.00    -0.286 N 
ATOM     35  C   UNL     1     -10.758 -10.008  19.002  0.00  0.00    +0.214 C 
ATOM     36  C   UNL     1     -12.071  -9.421  18.549  0.00  0.00    +0.109 C 
ATOM     38  H   UNL     1     -10.231  -9.969  17.002  0.00  0.00    +0.155 HD
ENDBRANCH  34   8
ENDBRANCH   1  22
ENDBRANCH   5   1
ENDBRANCH  11   5
TORSDOF 7
ENDMDL
MODEL 10
REMARK VINA RESULT:      -7.5     28.608     32.071
REMARK  Name = 40777705
REMARK  13 active torsions:
REMARK  status: ('A' for Active; 'I' for Inactive)
REMARK    1  A    between atoms: S_1  and  N_5
REMARK    2  A    between atoms: S_1  and  C_22
REMARK    3  A    between atoms: N_5  and  C_11
REMARK    4  A    between atoms: N_6  and  C_18
REMARK    5  A    between atoms: N_8  and  C_34
REMARK    6  A    between atoms: C_9  and  C_12
REMARK    7  A    between atoms: C_15  and  C_17
REMARK    8  A    between atoms: C_16  and  C_20
REMARK    9  A    between atoms: C_19  and  C_21
REMARK   10  A    between atoms: C_19  and  C_27
REMARK   11  A    between atoms: C_19  and  C_28
REMARK   12  A    between atoms: C_19  and  C_29
REMARK   13  A    between atoms: C_35  and  C_36
REMARK                            x       y       z     vdW  Elec       q    Type
REMARK                         _______ _______ _______ _____ _____    ______ ____
ROOT
ATOM      9  C   UNL     1      -5.140 -10.443  16.183  0.00  0.00    +0.047 C 
ATOM     10  C   UNL     1      -4.367 -11.483  15.351  0.00  0.00    +0.037 C 
ATOM     11  C   UNL     1      -4.447 -11.009  13.890  0.00  0.00    +0.100 C 
ATOM     13  C   UNL     1      -6.037  -9.818  15.155  0.00  0.00    -0.021 C 
ATOM     14  C   UNL     1      -5.651 -10.121  13.911  0.00  0.00    -0.010 C 
ENDROOT
BRANCH   9  12
ATOM      6  N   UNL     1      -7.377 -11.777  18.759  0.00  0.00    -0.236 N 
ATOM      7  N   UNL     1      -6.220 -12.041  19.392  0.00  0.00    -0.171 NA
ATOM     12  C   UNL     1      -5.863 -11.044  17.368  0.00  0.00    +0.003 A 
ATOM     15  C   UNL     1      -7.217 -11.181  17.544  0.00  0.00    +0.046 A 
ATOM     16  C   UNL     1      -5.299 -11.591  18.536  0.00  0.00    +0.064 A 
ATOM     17  C   UNL     1      -8.347 -10.801  16.671  0.00  0.00    +0.066 C 
ATOM     20  C   UNL     1      -3.871 -11.707  18.883  0.00  0.00    +0.068 C 
BRANCH   6  18
ATOM     18  C   UNL     1      -8.588 -12.116  19.364  0.00  0.00    +0.066 A 
ATOM     21  C   UNL     1     -11.006 -12.794  20.578  0.00  0.00    -0.042 A 
ATOM     23  C   UNL     1      -9.517 -11.122  19.672  0.00  0.00    +0.028 A 
ATOM     24  C   UNL     1      -8.868 -13.449  19.664  0.00  0.00    +0.028 A 
ATOM     25  C   UNL     1     -10.726 -11.461  20.279  0.00  0.00    +0.006 A 
ATOM     26  C   UNL     1     -10.077 -13.788  20.271  0.00  0.00    +0.006 A 
BRANCH  21  19
ATOM     19  C   UNL     1     -12.299 -13.157  21.229  0.00  0.00    -0.013 C 
ATOM     27  C   UNL     1     -12.062 -13.887  22.587  0.00  0.00    +0.015 C 
ATOM     28  C   UNL     1     -13.139 -14.111  20.323  0.00  0.00    +0.015 C 
ATOM     29  C   UNL     1     -13.245 -11.956  21.560  0.00  0.00    +0.015 C 
ENDBRANCH  21  19
ENDBRANCH   6  18
ENDBRANCH   9  12
BRANCH  11   5
ATOM      5  N   UNL     1      -3.252 -10.277  13.486  0.00  0.00    -0.183 NA
ATOM     37  H   UNL     1      -3.154  -9.303  13.796  0.00  0.00    +0.149 HD
BRANCH   5   1
ATOM      1  S   UNL     1      -2.262 -10.882  12.240  0.00  0.00    +0.059 S 
ATOM      2  O   UNL     1      -2.177 -12.326  12.353  0.00  0.00    -0.153 OA
ATOM      3  O   UNL     1      -1.053 -10.083  12.167  0.00  0.00    -0.153 OA
BRANCH   1  22
ATOM     22  C   UNL     1      -3.218 -10.503  10.803  0.00  0.00    +0.105 A 
ATOM     30  C   UNL     1      -3.900 -11.518  10.131  0.00  0.00    +0.030 A 
ATOM     31  C   UNL     1      -3.291  -9.189  10.339  0.00  0.00    +0.030 A 
ATOM     32  C   UNL     1      -4.655 -11.219   8.996  0.00  0.00    +0.025 A 
ATOM     33  C   UNL     1      -4.046  -8.890   9.205  0.00  0.00    +0.025 A 
ATOM     34  C   UNL     1      -4.727  -9.905   8.534  0.00  0.00    +0.033 A 
BRANCH  34   8
ATOM      4  O   UNL     1      -7.523  -8.817   8.278  0.00  0.00    -0.276 OA
ATOM      8  N   UNL     1      -5.483  -9.606   7.399  0.00  0.00    -0.286 N 
ATOM     35  C   UNL     1      -6.788  -9.100   7.337  0.00  0.00    +0.214 C 
ATOM     36  C   UNL     1      -7.248  -8.913   5.913  0.00  0.00    +0.109 C 
ATOM     38  H   UNL     1      -5.018  -9.780   6.509  0.00  0.00    +0.155 HD
ENDBRANCH  34   8
ENDBRANCH   1  22
ENDBRANCH   5   1
ENDBRANCH  11   5
TORSDOF 7
ENDMDL
