MODEL 1
REMARK VINA RESULT:      -7.3      0.000      0.000
REMARK  Name = 26744403
REMARK  4 active torsions:
REMARK  status: ('A' for Active; 'I' for Inactive)
REMARK    1  A    between atoms: O_3  and  C_12
REMARK    2  A    between atoms: N_5  and  C_8
REMARK    3  A    between atoms: C_9  and  C_15
REMARK    4  A    between atoms: C_18  and  C_19
REMARK                            x       y       z     vdW  Elec       q    Type
REMARK                         _______ _______ _______ _____ _____    ______ ____
ROOT
ATOM      5  N   UNL     1      12.826   7.973  19.353  0.00  0.00    -0.286 NA
ATOM      9  C   UNL     1      13.309   8.730  20.526  0.00  0.00    +0.149 C 
ATOM     10  C   UNL     1      11.415   7.685  19.598  0.00  0.00    +0.116 C 
ATOM     11  C   UNL     1      12.411   8.270  21.688  0.00  0.00    +0.061 C 
ATOM     12  C   UNL     1      11.426   7.290  21.062  0.00  0.00    +0.130 C 
ENDROOT
BRANCH   5   8
ATOM      2  O   UNL     1      12.973   8.642  15.211  0.00  0.00    -0.380 OA
ATOM      8  C   UNL     1      13.033   8.676  18.089  0.00  0.00    +0.062 C 
ATOM     13  C   UNL     1      11.727   8.774  17.293  0.00  0.00    +0.047 C 
ATOM     14  C   UNL     1      14.102   7.967  17.254  0.00  0.00    +0.047 C 
ATOM     16  C   UNL     1      11.987   9.390  15.923  0.00  0.00    +0.161 C 
ATOM     17  C   UNL     1      14.231   8.628  15.885  0.00  0.00    +0.161 C 
ENDBRANCH   5   8
BRANCH   9  15
ATOM      4  O   UNL     1      15.430   9.494  21.469  0.00  0.00    -0.336 OA
ATOM      6  N   UNL     1      15.539   7.488  20.480  0.00  0.00    -0.190 NA
ATOM      7  N   UNL     1      16.757   9.066  21.600  0.00  0.00    -0.056 NA
ATOM     15  C   UNL     1      14.781   8.507  20.799  0.00  0.00    +0.245 A 
ATOM     18  C   UNL     1      16.742   7.877  20.992  0.00  0.00    +0.202 A 
BRANCH  18  19
ATOM      1  F   UNL     1      21.273   4.676  20.564  0.00  0.00    -0.205 F 
ATOM     19  C   UNL     1      17.910   7.052  20.882  0.00  0.00    +0.023 A 
ATOM     20  C   UNL     1      18.985   7.246  21.748  0.00  0.00    +0.014 A 
ATOM     21  C   UNL     1      17.970   6.055  19.908  0.00  0.00    +0.014 A 
ATOM     22  C   UNL     1      20.122   6.444  21.641  0.00  0.00    +0.039 A 
ATOM     23  C   UNL     1      19.106   5.253  19.801  0.00  0.00    +0.039 A 
ATOM     24  C   UNL     1      20.182   5.448  20.667  0.00  0.00    +0.123 A 
ENDBRANCH  18  19
ENDBRANCH   9  15
BRANCH  12   3
ATOM      3  O   UNL     1      10.147   7.418  21.652  0.00  0.00    -0.390 OA
ATOM     25  H   UNL     1      10.228   8.042  22.394  0.00  0.00    +0.210 HD
ENDBRANCH  12   3
TORSDOF 4
ENDMDL
MODEL 2
REMARK VINA RESULT:      -7.1      1.167      3.685
REMARK  Name = 26744403
REMARK  4 active torsions:
REMARK  status: ('A' for Active; 'I' for Inactive)
REMARK    1  A    between atoms: O_3  and  C_12
REMARK    2  A    between atoms: N_5  and  C_8
REMARK    3  A    between atoms: C_9  and  C_15
REMARK    4  A    between atoms: C_18  and  C_19
REMARK                            x       y       z     vdW  Elec       q    Type
REMARK                         _______ _______ _______ _____ _____    ______ ____
ROOT
ATOM      5  N   UNL     1      13.349   8.749  19.474  0.00  0.00    -0.286 NA
ATOM      9  C   UNL     1      14.151   7.572  19.084  0.00  0.00    +0.149 C 
ATOM     10  C   UNL     1      12.439   9.017  18.363  0.00  0.00    +0.116 C 
ATOM     11  C   UNL     1      14.189   7.614  17.545  0.00  0.00    +0.061 C 
ATOM     12  C   UNL     1      13.344   8.823  17.163  0.00  0.00    +0.130 C 
ENDROOT
BRANCH   5   8
ATOM      2  O   UNL     1      10.201   8.803  22.250  0.00  0.00    -0.380 OA
ATOM      8  C   UNL     1      12.639   8.569  20.738  0.00  0.00    +0.062 C 
ATOM     13  C   UNL     1      11.477   7.583  20.580  0.00  0.00    +0.047 C 
ATOM     14  C   UNL     1      12.119   9.913  21.253  0.00  0.00    +0.047 C 
ATOM     16  C   UNL     1      10.667   7.508  21.869  0.00  0.00    +0.161 C 
ATOM     17  C   UNL     1      11.273   9.709  22.506  0.00  0.00    +0.161 C 
ENDBRANCH   5   8
BRANCH   9  15
ATOM      4  O   UNL     1      15.952   8.747  20.243  0.00  0.00    -0.336 OA
ATOM      6  N   UNL     1      16.400   6.598  19.801  0.00  0.00    -0.190 NA
ATOM      7  N   UNL     1      17.237   8.505  20.746  0.00  0.00    -0.056 NA
ATOM     15  C   UNL     1      15.532   7.574  19.704  0.00  0.00    +0.245 A 
ATOM     18  C   UNL     1      17.429   7.218  20.447  0.00  0.00    +0.202 A 
BRANCH  18  19
ATOM      1  F   UNL     1      22.116   4.514  21.743  0.00  0.00    -0.205 F 
ATOM     19  C   UNL     1      18.637   6.520  20.781  0.00  0.00    +0.023 A 
ATOM     20  C   UNL     1      19.066   5.452  19.994  0.00  0.00    +0.014 A 
ATOM     21  C   UNL     1      19.385   6.912  21.893  0.00  0.00    +0.014 A 
ATOM     22  C   UNL     1      20.241   4.773  20.319  0.00  0.00    +0.039 A 
ATOM     23  C   UNL     1      20.559   6.234  22.217  0.00  0.00    +0.039 A 
ATOM     24  C   UNL     1      20.987   5.164  21.430  0.00  0.00    +0.123 A 
ENDBRANCH  18  19
ENDBRANCH   9  15
BRANCH  12   3
ATOM      3  O   UNL     1      12.607   8.567  15.983  0.00  0.00    -0.390 OA
ATOM     25  H   UNL     1      13.221   8.641  15.232  0.00  0.00    +0.210 HD
ENDBRANCH  12   3
TORSDOF 4
ENDMDL
MODEL 3
REMARK VINA RESULT:      -6.5      2.103      3.467
REMARK  Name = 26744403
REMARK  4 active torsions:
REMARK  status: ('A' for Active; 'I' for Inactive)
REMARK    1  A    between atoms: O_3  and  C_12
REMARK    2  A    between atoms: N_5  and  C_8
REMARK    3  A    between atoms: C_9  and  C_15
REMARK    4  A    between atoms: C_18  and  C_19
REMARK                            x       y       z     vdW  Elec       q    Type
REMARK                         _______ _______ _______ _____ _____    ______ ____
ROOT
ATOM      5  N   UNL     1      13.791   9.076  19.045  0.00  0.00    -0.286 NA
ATOM      9  C   UNL     1      13.768   7.652  19.436  0.00  0.00    +0.149 C 
ATOM     10  C   UNL     1      12.511   9.348  18.394  0.00  0.00    +0.116 C 
ATOM     11  C   UNL     1      12.824   6.981  18.421  0.00  0.00    +0.061 C 
ATOM     12  C   UNL     1      12.331   8.115  17.531  0.00  0.00    +0.130 C 
ENDROOT
BRANCH   5   8
ATOM      2  O   UNL     1      14.210  12.667  21.180  0.00  0.00    -0.380 OA
ATOM      8  C   UNL     1      14.040   9.977  20.168  0.00  0.00    +0.062 C 
ATOM     13  C   UNL     1      12.798  10.814  20.489  0.00  0.00    +0.047 C 
ATOM     14  C   UNL     1      15.225  10.896  19.861  0.00  0.00    +0.047 C 
ATOM     16  C   UNL     1      13.114  11.839  21.572  0.00  0.00    +0.161 C 
ATOM     17  C   UNL     1      15.408  11.917  20.979  0.00  0.00    +0.161 C 
ENDBRANCH   5   8
BRANCH   9  15
ATOM      4  O   UNL     1      15.464   6.229  18.402  0.00  0.00    -0.336 OA
ATOM      6  N   UNL     1      16.100   7.145  20.344  0.00  0.00    -0.190 NA
ATOM      7  N   UNL     1      16.769   5.776  18.639  0.00  0.00    -0.056 NA
ATOM     15  C   UNL     1      15.147   7.029  19.453  0.00  0.00    +0.245 A 
ATOM     18  C   UNL     1      17.073   6.359  19.801  0.00  0.00    +0.202 A 
BRANCH  18  19
ATOM      1  F   UNL     1      21.993   5.655  22.302  0.00  0.00    -0.205 F 
ATOM     19  C   UNL     1      18.342   6.178  20.446  0.00  0.00    +0.023 A 
ATOM     20  C   UNL     1      18.673   6.946  21.562  0.00  0.00    +0.014 A 
ATOM     21  C   UNL     1      19.244   5.232  19.958  0.00  0.00    +0.014 A 
ATOM     22  C   UNL     1      19.907   6.770  22.189  0.00  0.00    +0.039 A 
ATOM     23  C   UNL     1      20.477   5.056  20.585  0.00  0.00    +0.039 A 
ATOM     24  C   UNL     1      20.808   5.826  21.700  0.00  0.00    +0.123 A 
ENDBRANCH  18  19
ENDBRANCH   9  15
BRANCH  12   3
ATOM      3  O   UNL     1      10.978   7.918  17.169  0.00  0.00    -0.390 OA
ATOM     25  H   UNL     1      10.429   8.365  17.837  0.00  0.00    +0.210 HD
ENDBRANCH  12   3
TORSDOF 4
ENDMDL
MODEL 4
REMARK VINA RESULT:      -6.5     31.976     32.938
REMARK  Name = 26744403
REMARK  4 active torsions:
REMARK  status: ('A' for Active; 'I' for Inactive)
REMARK    1  A    between atoms: O_3  and  C_12
REMARK    2  A    between atoms: N_5  and  C_8
REMARK    3  A    between atoms: C_9  and  C_15
REMARK    4  A    between atoms: C_18  and  C_19
REMARK                            x       y       z     vdW  Elec       q    Type
REMARK                         _______ _______ _______ _____ _____    ______ ____
ROOT
ATOM      5  N   UNL     1     -15.194   1.640  29.795  0.00  0.00    -0.286 NA
ATOM      9  C   UNL     1     -15.410   1.156  31.174  0.00  0.00    +0.149 C 
ATOM     10  C   UNL     1     -14.900   0.461  28.984  0.00  0.00    +0.116 C 
ATOM     11  C   UNL     1     -14.574  -0.134  31.273  0.00  0.00    +0.061 C 
ATOM     12  C   UNL     1     -13.965  -0.317  29.890  0.00  0.00    +0.130 C 
ENDROOT
BRANCH   5   8
ATOM      2  O   UNL     1     -17.698   3.528  27.004  0.00  0.00    -0.380 OA
ATOM      8  C   UNL     1     -16.324   2.402  29.269  0.00  0.00    +0.062 C 
ATOM     13  C   UNL     1     -17.165   1.551  28.312  0.00  0.00    +0.047 C 
ATOM     14  C   UNL     1     -15.830   3.661  28.553  0.00  0.00    +0.047 C 
ATOM     16  C   UNL     1     -18.259   2.398  27.672  0.00  0.00    +0.161 C 
ATOM     17  C   UNL     1     -16.999   4.392  27.899  0.00  0.00    +0.161 C 
ENDBRANCH   5   8
BRANCH   9  15
ATOM      4  O   UNL     1     -15.057   1.771  33.513  0.00  0.00    -0.336 OA
ATOM      6  N   UNL     1     -14.669   3.433  32.063  0.00  0.00    -0.190 NA
ATOM      7  N   UNL     1     -14.672   2.877  34.281  0.00  0.00    -0.056 NA
ATOM     15  C   UNL     1     -15.028   2.183  32.219  0.00  0.00    +0.245 A 
ATOM     18  C   UNL     1     -14.461   3.816  33.355  0.00  0.00    +0.202 A 
BRANCH  18  19
ATOM      1  F   UNL     1     -12.831   8.977  34.645  0.00  0.00    -0.205 F 
ATOM     19  C   UNL     1     -14.041   5.147  33.687  0.00  0.00    +0.023 A 
ATOM     20  C   UNL     1     -13.784   6.070  32.675  0.00  0.00    +0.014 A 
ATOM     21  C   UNL     1     -13.890   5.517  35.024  0.00  0.00    +0.014 A 
ATOM     22  C   UNL     1     -13.375   7.365  32.998  0.00  0.00    +0.039 A 
ATOM     23  C   UNL     1     -13.481   6.811  35.347  0.00  0.00    +0.039 A 
ATOM     24  C   UNL     1     -13.223   7.735  34.333  0.00  0.00    +0.123 A 
ENDBRANCH  18  19
ENDBRANCH   9  15
BRANCH  12   3
ATOM      3  O   UNL     1     -13.912  -1.686  29.541  0.00  0.00    -0.390 OA
ATOM     25  H   UNL     1     -13.491  -1.750  28.667  0.00  0.00    +0.210 HD
ENDBRANCH  12   3
TORSDOF 4
ENDMDL
MODEL 5
REMARK VINA RESULT:      -6.4     27.421     28.783
REMARK  Name = 26744403
REMARK  4 active torsions:
REMARK  status: ('A' for Active; 'I' for Inactive)
REMARK    1  A    between atoms: O_3  and  C_12
REMARK    2  A    between atoms: N_5  and  C_8
REMARK    3  A    between atoms: C_9  and  C_15
REMARK    4  A    between atoms: C_18  and  C_19
REMARK                            x       y       z     vdW  Elec       q    Type
REMARK                         _______ _______ _______ _____ _____    ______ ____
ROOT
ATOM      5  N   UNL     1      -7.503 -11.013  17.740  0.00  0.00    -0.286 NA
ATOM      9  C   UNL     1      -6.243 -10.278  17.510  0.00  0.00    +0.149 C 
ATOM     10  C   UNL     1      -7.602 -11.224  19.182  0.00  0.00    +0.116 C 
ATOM     11  C   UNL     1      -5.331 -10.685  18.682  0.00  0.00    +0.061 C 
ATOM     12  C   UNL     1      -6.181 -11.613  19.540  0.00  0.00    +0.130 C 
ENDROOT
BRANCH   5   8
ATOM      2  O   UNL     1     -10.902  -8.551  17.621  0.00  0.00    -0.380 OA
ATOM      8  C   UNL     1      -8.676 -10.327  17.202  0.00  0.00    +0.062 C 
ATOM     13  C   UNL     1      -8.510  -8.806  17.281  0.00  0.00    +0.047 C 
ATOM     14  C   UNL     1      -9.937 -10.756  17.956  0.00  0.00    +0.047 C 
ATOM     16  C   UNL     1      -9.791  -8.109  16.840  0.00  0.00    +0.161 C 
ATOM     17  C   UNL     1     -11.140  -9.951  17.477  0.00  0.00    +0.161 C 
ENDBRANCH   5   8
BRANCH   9  15
ATOM      4  O   UNL     1      -5.096 -11.818  15.998  0.00  0.00    -0.336 OA
ATOM      6  N   UNL     1      -5.532  -9.812  15.102  0.00  0.00    -0.190 NA
ATOM      7  N   UNL     1      -4.598 -11.859  14.689  0.00  0.00    -0.056 NA
ATOM     15  C   UNL     1      -5.630 -10.579  16.159  0.00  0.00    +0.245 A 
ATOM     18  C   UNL     1      -4.892 -10.640  14.227  0.00  0.00    +0.202 A 
BRANCH  18  19
ATOM      1  F   UNL     1      -3.617  -9.012   9.062  0.00  0.00    -0.205 F 
ATOM     19  C   UNL     1      -4.563 -10.220  12.896  0.00  0.00    +0.023 A 
ATOM     20  C   UNL     1      -3.322 -10.545  12.348  0.00  0.00    +0.014 A 
ATOM     21  C   UNL     1      -5.486  -9.488  12.147  0.00  0.00    +0.014 A 
ATOM     22  C   UNL     1      -3.002 -10.137  11.053  0.00  0.00    +0.039 A 
ATOM     23  C   UNL     1      -5.165  -9.080  10.852  0.00  0.00    +0.039 A 
ATOM     24  C   UNL     1      -3.923  -9.404  10.306  0.00  0.00    +0.123 A 
ENDBRANCH  18  19
ENDBRANCH   9  15
BRANCH  12   3
ATOM      3  O   UNL     1      -5.911 -11.414  20.914  0.00  0.00    -0.390 OA
ATOM     25  H   UNL     1      -4.999 -11.712  21.079  0.00  0.00    +0.210 HD
ENDBRANCH  12   3
TORSDOF 4
ENDMDL
MODEL 6
REMARK VINA RESULT:      -6.2     26.070     28.700
REMARK  Name = 26744403
REMARK  4 active torsions:
REMARK  status: ('A' for Active; 'I' for Inactive)
REMARK    1  A    between atoms: O_3  and  C_12
REMARK    2  A    between atoms: N_5  and  C_8
REMARK    3  A    between atoms: C_9  and  C_15
REMARK    4  A    between atoms: C_18  and  C_19
REMARK                            x       y       z     vdW  Elec       q    Type
REMARK                         _______ _______ _______ _____ _____    ______ ____
ROOT
ATOM      5  N   UNL     1      -3.216 -10.495  14.289  0.00  0.00    -0.286 NA
ATOM      9  C   UNL     1      -3.435 -11.263  15.532  0.00  0.00    +0.149 C 
ATOM     10  C   UNL     1      -1.770 -10.338  14.148  0.00  0.00    +0.116 C 
ATOM     11  C   UNL     1      -2.218 -10.933  16.417  0.00  0.00    +0.061 C 
ATOM     12  C   UNL     1      -1.351 -10.012  15.568  0.00  0.00    +0.130 C 
ENDROOT
BRANCH   5   8
ATOM      2  O   UNL     1      -4.181 -11.163  10.259  0.00  0.00    -0.380 OA
ATOM      8  C   UNL     1      -3.820 -11.119  13.114  0.00  0.00    +0.062 C 
ATOM     13  C   UNL     1      -2.746 -11.647  12.158  0.00  0.00    +0.047 C 
ATOM     14  C   UNL     1      -4.723 -10.120  12.386  0.00  0.00    +0.047 C 
ATOM     16  C   UNL     1      -3.387 -12.174  10.879  0.00  0.00    +0.161 C 
ATOM     17  C   UNL     1      -5.255 -10.732  11.094  0.00  0.00    +0.161 C 
ENDBRANCH   5   8
BRANCH   9  15
ATOM      4  O   UNL     1      -5.301  -9.727  15.889  0.00  0.00    -0.336 OA
ATOM      6  N   UNL     1      -5.454 -11.636  17.049  0.00  0.00    -0.190 NA
ATOM      7  N   UNL     1      -6.495  -9.645  16.618  0.00  0.00    -0.056 NA
ATOM     15  C   UNL     1      -4.751 -10.929  16.200  0.00  0.00    +0.245 A 
ATOM     18  C   UNL     1      -6.513 -10.807  17.277  0.00  0.00    +0.202 A 
BRANCH  18  19
ATOM      1  F   UNL     1     -10.638 -12.220  20.733  0.00  0.00    -0.205 F 
ATOM     19  C   UNL     1      -7.577 -11.172  18.168  0.00  0.00    +0.023 A 
ATOM     20  C   UNL     1      -7.462 -12.313  18.960  0.00  0.00    +0.014 A 
ATOM     21  C   UNL     1      -8.726 -10.383  18.242  0.00  0.00    +0.014 A 
ATOM     22  C   UNL     1      -8.497 -12.668  19.827  0.00  0.00    +0.039 A 
ATOM     23  C   UNL     1      -9.759 -10.738  19.109  0.00  0.00    +0.039 A 
ATOM     24  C   UNL     1      -9.645 -11.880  19.901  0.00  0.00    +0.123 A 
ENDBRANCH  18  19
ENDBRANCH   9  15
BRANCH  12   3
ATOM      3  O   UNL     1       0.022 -10.274  15.785  0.00  0.00    -0.390 OA
ATOM     25  H   UNL     1       0.127 -10.534  16.716  0.00  0.00    +0.210 HD
ENDBRANCH  12   3
TORSDOF 4
ENDMDL
MODEL 7
REMARK VINA RESULT:      -6.1     16.672     19.923
REMARK  Name = 26744403
REMARK  4 active torsions:
REMARK  status: ('A' for Active; 'I' for Inactive)
REMARK    1  A    between atoms: O_3  and  C_12
REMARK    2  A    between atoms: N_5  and  C_8
REMARK    3  A    between atoms: C_9  and  C_15
REMARK    4  A    between atoms: C_18  and  C_19
REMARK                            x       y       z     vdW  Elec       q    Type
REMARK                         _______ _______ _______ _____ _____    ______ ____
ROOT
ATOM      5  N   UNL     1      13.455   5.008  -0.664  0.00  0.00    -0.286 NA
ATOM      9  C   UNL     1      13.689   4.036   0.424  0.00  0.00    +0.149 C 
ATOM     10  C   UNL     1      14.771   5.373  -1.183  0.00  0.00    +0.116 C 
ATOM     11  C   UNL     1      15.088   4.382   0.966  0.00  0.00    +0.061 C 
ATOM     12  C   UNL     1      15.579   5.528   0.091  0.00  0.00    +0.130 C 
ENDROOT
BRANCH   5   8
ATOM      2  O   UNL     1      10.217   3.013  -2.441  0.00  0.00    -0.380 OA
ATOM      8  C   UNL     1      12.572   4.499  -1.710  0.00  0.00    +0.062 C 
ATOM     13  C   UNL     1      11.159   5.075  -1.566  0.00  0.00    +0.047 C 
ATOM     14  C   UNL     1      12.521   2.970  -1.667  0.00  0.00    +0.047 C 
ATOM     16  C   UNL     1      10.220   4.434  -2.581  0.00  0.00    +0.161 C 
ATOM     17  C   UNL     1      11.505   2.445  -2.678  0.00  0.00    +0.161 C 
ENDBRANCH   5   8
BRANCH   9  15
ATOM      4  O   UNL     1      12.176   2.894   1.966  0.00  0.00    -0.336 OA
ATOM      6  N   UNL     1      12.040   5.128   2.040  0.00  0.00    -0.190 NA
ATOM      7  N   UNL     1      11.203   3.193   2.928  0.00  0.00    -0.056 NA
ATOM     15  C   UNL     1      12.618   4.088   1.493  0.00  0.00    +0.245 A 
ATOM     18  C   UNL     1      11.181   4.529   2.913  0.00  0.00    +0.202 A 
BRANCH  18  19
ATOM      1  F   UNL     1       7.813   7.499   6.199  0.00  0.00    -0.205 F 
ATOM     19  C   UNL     1      10.313   5.295   3.761  0.00  0.00    +0.023 A 
ATOM     20  C   UNL     1       9.750   6.482   3.292  0.00  0.00    +0.014 A 
ATOM     21  C   UNL     1      10.031   4.852   5.053  0.00  0.00    +0.014 A 
ATOM     22  C   UNL     1       8.905   7.227   4.115  0.00  0.00    +0.039 A 
ATOM     23  C   UNL     1       9.186   5.597   5.876  0.00  0.00    +0.039 A 
ATOM     24  C   UNL     1       8.624   6.785   5.407  0.00  0.00    +0.123 A 
ENDBRANCH  18  19
ENDBRANCH   9  15
BRANCH  12   3
ATOM      3  O   UNL     1      16.968   5.418  -0.149  0.00  0.00    -0.390 OA
ATOM     25  H   UNL     1      17.257   6.242  -0.576  0.00  0.00    +0.210 HD
ENDBRANCH  12   3
TORSDOF 4
ENDMDL
MODEL 8
REMARK VINA RESULT:      -6.0      3.861      8.217
REMARK  Name = 26744403
REMARK  4 active torsions:
REMARK  status: ('A' for Active; 'I' for Inactive)
REMARK    1  A    between atoms: O_3  and  C_12
REMARK    2  A    between atoms: N_5  and  C_8
REMARK    3  A    between atoms: C_9  and  C_15
REMARK    4  A    between atoms: C_18  and  C_19
REMARK                            x       y       z     vdW  Elec       q    Type
REMARK                         _______ _______ _______ _____ _____    ______ ____
ROOT
ATOM      5  N   UNL     1      19.943   6.292  22.134  0.00  0.00    -0.286 NA
ATOM      9  C   UNL     1      19.782   6.326  20.666  0.00  0.00    +0.149 C 
ATOM     10  C   UNL     1      21.211   5.616  22.396  0.00  0.00    +0.116 C 
ATOM     11  C   UNL     1      20.564   5.100  20.156  0.00  0.00    +0.061 C 
ATOM     12  C   UNL     1      21.165   4.469  21.405  0.00  0.00    +0.130 C 
ENDROOT
BRANCH   5   8
ATOM      2  O   UNL     1      21.277   9.882  23.853  0.00  0.00    -0.380 OA
ATOM      8  C   UNL     1      19.887   7.616  22.750  0.00  0.00    +0.062 C 
ATOM     13  C   UNL     1      20.580   8.662  21.871  0.00  0.00    +0.047 C 
ATOM     14  C   UNL     1      20.534   7.586  24.136  0.00  0.00    +0.047 C 
ATOM     16  C   UNL     1      20.629  10.007  22.586  0.00  0.00    +0.161 C 
ATOM     17  C   UNL     1      20.585   8.991  24.727  0.00  0.00    +0.161 C 
ENDBRANCH   5   8
BRANCH   9  15
ATOM      4  O   UNL     1      18.037   5.613  19.112  0.00  0.00    -0.336 OA
ATOM      6  N   UNL     1      17.295   6.889  20.795  0.00  0.00    -0.190 NA
ATOM      7  N   UNL     1      16.656   5.748  18.920  0.00  0.00    -0.056 NA
ATOM     15  C   UNL     1      18.331   6.314  20.237  0.00  0.00    +0.245 A 
ATOM     18  C   UNL     1      16.292   6.514  19.952  0.00  0.00    +0.202 A 
BRANCH  18  19
ATOM      1  F   UNL     1      11.022   8.086  20.799  0.00  0.00    -0.205 F 
ATOM     19  C   UNL     1      14.933   6.920  20.170  0.00  0.00    +0.023 A 
ATOM     20  C   UNL     1      14.030   6.932  19.108  0.00  0.00    +0.014 A 
ATOM     21  C   UNL     1      14.515   7.301  21.446  0.00  0.00    +0.014 A 
ATOM     22  C   UNL     1      12.708   7.326  19.319  0.00  0.00    +0.039 A 
ATOM     23  C   UNL     1      13.194   7.694  21.657  0.00  0.00    +0.039 A 
ATOM     24  C   UNL     1      12.291   7.708  20.594  0.00  0.00    +0.123 A 
ENDBRANCH  18  19
ENDBRANCH   9  15
BRANCH  12   3
ATOM      3  O   UNL     1      22.454   3.953  21.136  0.00  0.00    -0.390 OA
ATOM     25  H   UNL     1      22.961   4.651  20.685  0.00  0.00    +0.210 HD
ENDBRANCH  12   3
TORSDOF 4
ENDMDL
MODEL 9
REMARK VINA RESULT:      -6.0     26.229     28.379
REMARK  Name = 26744403
REMARK  4 active torsions:
REMARK  status: ('A' for Active; 'I' for Inactive)
REMARK    1  A    between atoms: O_3  and  C_12
REMARK    2  A    between atoms: N_5  and  C_8
REMARK    3  A    between atoms: C_9  and  C_15
REMARK    4  A    between atoms: C_18  and  C_19
REMARK                            x       y       z     vdW  Elec       q    Type
REMARK                         _______ _______ _______ _____ _____    ______ ____
ROOT
ATOM      5  N   UNL     1      -5.197 -10.318   8.919  0.00  0.00    -0.286 NA
ATOM      9  C   UNL     1      -4.302  -9.315   9.533  0.00  0.00    +0.149 C 
ATOM     10  C   UNL     1      -6.204  -9.570   8.170  0.00  0.00    +0.116 C 
ATOM     11  C   UNL     1      -5.179  -8.063   9.713  0.00  0.00    +0.061 C 
ATOM     12  C   UNL     1      -6.534  -8.443   9.129  0.00  0.00    +0.130 C 
ENDROOT
BRANCH   5   8
ATOM      2  O   UNL     1      -4.595 -13.533   6.288  0.00  0.00    -0.380 OA
ATOM      8  C   UNL     1      -4.490 -11.283   8.080  0.00  0.00    +0.062 C 
ATOM     13  C   UNL     1      -4.907 -11.145   6.612  0.00  0.00    +0.047 C 
ATOM     14  C   UNL     1      -4.756 -12.708   8.568  0.00  0.00    +0.047 C 
ATOM     16  C   UNL     1      -4.263 -12.242   5.773  0.00  0.00    +0.161 C 
ATOM     17  C   UNL     1      -4.120 -13.720   7.621  0.00  0.00    +0.161 C 
ENDBRANCH   5   8
BRANCH   9  15
ATOM      4  O   UNL     1      -2.398 -10.202  10.782  0.00  0.00    -0.336 OA
ATOM      6  N   UNL     1      -4.234  -9.879  12.022  0.00  0.00    -0.190 NA
ATOM      7  N   UNL     1      -2.063 -10.595  12.084  0.00  0.00    -0.056 NA
ATOM     15  C   UNL     1      -3.693  -9.795  10.833  0.00  0.00    +0.245 A 
ATOM     18  C   UNL     1      -3.196 -10.375  12.756  0.00  0.00    +0.202 A 
BRANCH  18  19
ATOM      1  F   UNL     1      -3.692 -11.398  18.202  0.00  0.00    -0.205 F 
ATOM     19  C   UNL     1      -3.324 -10.638  14.160  0.00  0.00    +0.023 A 
ATOM     20  C   UNL     1      -4.580 -10.895  14.710  0.00  0.00    +0.014 A 
ATOM     21  C   UNL     1      -2.192 -10.639  14.976  0.00  0.00    +0.014 A 
ATOM     22  C   UNL     1      -4.705 -11.152  16.076  0.00  0.00    +0.039 A 
ATOM     23  C   UNL     1      -2.317 -10.896  16.341  0.00  0.00    +0.039 A 
ATOM     24  C   UNL     1      -3.574 -11.152  16.891  0.00  0.00    +0.123 A 
ENDBRANCH  18  19
ENDBRANCH   9  15
BRANCH  12   3
ATOM      3  O   UNL     1      -7.122  -7.342   8.465  0.00  0.00    -0.390 OA
ATOM     25  H   UNL     1      -8.025  -7.239   8.811  0.00  0.00    +0.210 HD
ENDBRANCH  12   3
TORSDOF 4
ENDMDL
MODEL 10
REMARK VINA RESULT:      -6.0     17.051     20.131
REMARK  Name = 26744403
REMARK  4 active torsions:
REMARK  status: ('A' for Active; 'I' for Inactive)
REMARK    1  A    between atoms: O_3  and  C_12
REMARK    2  A    between atoms: N_5  and  C_8
REMARK    3  A    between atoms: C_9  and  C_15
REMARK    4  A    between atoms: C_18  and  C_19
REMARK                            x       y       z     vdW  Elec       q    Type
REMARK                         _______ _______ _______ _____ _____    ______ ____
ROOT
ATOM      5  N   UNL     1      12.737   4.274  -0.130  0.00  0.00    -0.286 NA
ATOM      9  C   UNL     1      12.680   3.617   1.191  0.00  0.00    +0.149 C 
ATOM     10  C   UNL     1      14.095   4.077  -0.633  0.00  0.00    +0.116 C 
ATOM     11  C   UNL     1      14.125   3.670   1.720  0.00  0.00    +0.061 C 
ATOM     12  C   UNL     1      14.928   4.333   0.608  0.00  0.00    +0.130 C 
ENDROOT
BRANCH   5   8
ATOM      2  O   UNL     1      10.803   3.501  -3.775  0.00  0.00    -0.380 OA
ATOM      8  C   UNL     1      11.727   3.780  -1.063  0.00  0.00    +0.062 C 
ATOM     13  C   UNL     1      12.327   2.759  -2.035  0.00  0.00    +0.047 C 
ATOM     14  C   UNL     1      11.108   4.943  -1.843  0.00  0.00    +0.047 C 
ATOM     16  C   UNL     1      11.296   2.354  -3.082  0.00  0.00    +0.161 C 
ATOM     17  C   UNL     1      10.144   4.417  -2.902  0.00  0.00    +0.161 C 
ENDBRANCH   5   8
BRANCH   9  15
ATOM      4  O   UNL     1      11.356   3.577   3.245  0.00  0.00    -0.336 OA
ATOM      6  N   UNL     1      11.091   5.435   2.023  0.00  0.00    -0.190 NA
ATOM      7  N   UNL     1      10.440   4.375   3.943  0.00  0.00    -0.056 NA
ATOM     15  C   UNL     1      11.689   4.274   2.128  0.00  0.00    +0.245 A 
ATOM     18  C   UNL     1      10.336   5.452   3.158  0.00  0.00    +0.202 A 
BRANCH  18  19
ATOM      1  F   UNL     1       7.047   9.760   4.414  0.00  0.00    -0.205 F 
ATOM     19  C   UNL     1       9.487   6.562   3.482  0.00  0.00    +0.023 A 
ATOM     20  C   UNL     1       9.003   6.714   4.781  0.00  0.00    +0.014 A 
ATOM     21  C   UNL     1       9.149   7.492   2.498  0.00  0.00    +0.014 A 
ATOM     22  C   UNL     1       8.178   7.794   5.097  0.00  0.00    +0.039 A 
ATOM     23  C   UNL     1       8.324   8.571   2.814  0.00  0.00    +0.039 A 
ATOM     24  C   UNL     1       7.839   8.722   4.113  0.00  0.00    +0.123 A 
ENDBRANCH  18  19
ENDBRANCH   9  15
BRANCH  12   3
ATOM      3  O   UNL     1      16.215   3.757   0.506  0.00  0.00    -0.390 OA
ATOM     25  H   UNL     1      16.625   3.798   1.387  0.00  0.00    +0.210 HD
ENDBRANCH  12   3
TORSDOF 4
ENDMDL
