MODEL 1
REMARK VINA RESULT:      -7.4      0.000      0.000
REMARK  Name = 51137598
REMARK  6 active torsions:
REMARK  status: ('A' for Active; 'I' for Inactive)
REMARK    1  A    between atoms: O_3  and  C_20
REMARK    2  A    between atoms: O_3  and  C_21
REMARK    3  A    between atoms: N_4  and  C_8
REMARK    4  A    between atoms: N_5  and  C_18
REMARK    5  A    between atoms: C_10  and  C_17
REMARK    6  A    between atoms: C_19  and  C_20
REMARK                            x       y       z     vdW  Elec       q    Type
REMARK                         _______ _______ _______ _____ _____    ______ ____
ROOT
ATOM      2  O   UNL     1      13.167   7.994  19.481  0.00  0.00    -0.421 OA
ATOM      6  N   UNL     1      11.573   7.845  17.919  0.00  0.00    -0.112 NA
ATOM      7  N   UNL     1      12.756   7.392  17.367  0.00  0.00    -0.109 NA
ATOM     17  C   UNL     1      11.860   8.185  19.155  0.00  0.00    +0.222 A 
ATOM     19  C   UNL     1      13.659   7.497  18.314  0.00  0.00    +0.254 A 
ENDROOT
BRANCH  17  10
ATOM      4  N   UNL     1      10.968  10.074  22.165  0.00  0.00    -0.299 NA
ATOM      9  C   UNL     1      11.452  10.090  20.783  0.00  0.00    +0.097 C 
ATOM     10  C   UNL     1      10.962   8.744  20.233  0.00  0.00    +0.092 C 
ATOM     11  C   UNL     1      11.245   8.720  22.645  0.00  0.00    +0.085 C 
ATOM     12  C   UNL     1      10.809   7.849  21.475  0.00  0.00    +0.029 C 
BRANCH   4   8
ATOM      5  N   UNL     1      13.120  11.821  25.386  0.00  0.00    -0.305 NA
ATOM      8  C   UNL     1      11.603  11.098  22.991  0.00  0.00    +0.059 C 
ATOM     13  C   UNL     1      13.102  10.815  23.125  0.00  0.00    +0.034 C 
ATOM     14  C   UNL     1      10.957  11.163  24.377  0.00  0.00    +0.034 C 
ATOM     15  C   UNL     1      13.768  11.822  24.068  0.00  0.00    +0.085 C 
ATOM     16  C   UNL     1      11.693  12.157  25.279  0.00  0.00    +0.085 C 
ATOM     18  C   UNL     1      13.799  12.749  26.290  0.00  0.00    +0.104 C 
ENDBRANCH   4   8
ENDBRANCH  17  10
BRANCH  19  20
ATOM     20  C   UNL     1      15.088   7.159  18.286  0.00  0.00    +0.326 C 
BRANCH  20   3
ATOM      3  O   UNL     1      15.448   6.432  19.464  0.00  0.00    -0.483 OA
BRANCH   3  21
ATOM      1  F   UNL     1      20.263   7.735  21.773  0.00  0.00    -0.205 F 
ATOM     21  C   UNL     1      16.645   6.757  20.038  0.00  0.00    +0.121 A 
ATOM     22  C   UNL     1      17.779   5.990  19.768  0.00  0.00    +0.048 A 
ATOM     23  C   UNL     1      16.734   7.854  20.895  0.00  0.00    +0.048 A 
ATOM     24  C   UNL     1      19.000   6.320  20.354  0.00  0.00    +0.042 A 
ATOM     25  C   UNL     1      17.956   8.184  21.481  0.00  0.00    +0.042 A 
ATOM     26  C   UNL     1      19.089   7.417  21.211  0.00  0.00    +0.124 A 
ENDBRANCH   3  21
ENDBRANCH  20   3
ENDBRANCH  19  20
TORSDOF 5
ENDMDL
MODEL 2
REMARK VINA RESULT:      -7.0      3.492      7.195
REMARK  Name = 51137598
REMARK  6 active torsions:
REMARK  status: ('A' for Active; 'I' for Inactive)
REMARK    1  A    between atoms: O_3  and  C_20
REMARK    2  A    between atoms: O_3  and  C_21
REMARK    3  A    between atoms: N_4  and  C_8
REMARK    4  A    between atoms: N_5  and  C_18
REMARK    5  A    between atoms: C_10  and  C_17
REMARK    6  A    between atoms: C_19  and  C_20
REMARK                            x       y       z     vdW  Elec       q    Type
REMARK                         _______ _______ _______ _____ _____    ______ ____
ROOT
ATOM      2  O   UNL     1      12.187   8.455  21.412  0.00  0.00    -0.421 OA
ATOM      6  N   UNL     1      10.955   6.591  21.313  0.00  0.00    -0.112 NA
ATOM      7  N   UNL     1      10.332   7.469  22.180  0.00  0.00    -0.109 NA
ATOM     17  C   UNL     1      12.033   7.209  20.888  0.00  0.00    +0.222 A 
ATOM     19  C   UNL     1      11.086   8.543  22.208  0.00  0.00    +0.254 A 
ENDROOT
BRANCH  17  10
ATOM      4  N   UNL     1      15.375   6.942  19.410  0.00  0.00    -0.299 NA
ATOM      9  C   UNL     1      14.494   6.686  20.552  0.00  0.00    +0.097 C 
ATOM     10  C   UNL     1      13.095   6.738  19.923  0.00  0.00    +0.092 C 
ATOM     11  C   UNL     1      14.730   8.030  18.674  0.00  0.00    +0.085 C 
ATOM     12  C   UNL     1      13.265   7.614  18.670  0.00  0.00    +0.029 C 
BRANCH   4   8
ATOM      5  N   UNL     1      18.931   7.005  21.736  0.00  0.00    -0.305 NA
ATOM      8  C   UNL     1      16.736   7.279  19.821  0.00  0.00    +0.059 C 
ATOM     13  C   UNL     1      17.592   6.012  19.908  0.00  0.00    +0.034 C 
ATOM     14  C   UNL     1      16.738   8.004  21.170  0.00  0.00    +0.034 C 
ATOM     15  C   UNL     1      18.994   6.332  20.432  0.00  0.00    +0.085 C 
ATOM     16  C   UNL     1      18.168   8.258  21.653  0.00  0.00    +0.085 C 
ATOM     18  C   UNL     1      20.278   7.259  22.248  0.00  0.00    +0.104 C 
ENDBRANCH   4   8
ENDBRANCH  17  10
BRANCH  19  20
ATOM     20  C   UNL     1      10.908   9.794  22.958  0.00  0.00    +0.326 C 
BRANCH  20   3
ATOM      3  O   UNL     1      12.039  10.648  22.772  0.00  0.00    -0.483 OA
BRANCH   3  21
ATOM      1  F   UNL     1      11.208  15.199  19.804  0.00  0.00    -0.205 F 
ATOM     21  C   UNL     1      11.833  11.779  22.034  0.00  0.00    +0.121 A 
ATOM     22  C   UNL     1      10.852  12.695  22.420  0.00  0.00    +0.048 A 
ATOM     23  C   UNL     1      12.601  12.020  20.895  0.00  0.00    +0.048 A 
ATOM     24  C   UNL     1      10.641  13.849  21.666  0.00  0.00    +0.042 A 
ATOM     25  C   UNL     1      12.390  13.174  20.142  0.00  0.00    +0.042 A 
ATOM     26  C   UNL     1      11.410  14.090  20.527  0.00  0.00    +0.124 A 
ENDBRANCH   3  21
ENDBRANCH  20   3
ENDBRANCH  19  20
TORSDOF 5
ENDMDL
MODEL 3
REMARK VINA RESULT:      -6.8     26.549     28.295
REMARK  Name = 51137598
REMARK  6 active torsions:
REMARK  status: ('A' for Active; 'I' for Inactive)
REMARK    1  A    between atoms: O_3  and  C_20
REMARK    2  A    between atoms: O_3  and  C_21
REMARK    3  A    between atoms: N_4  and  C_8
REMARK    4  A    between atoms: N_5  and  C_18
REMARK    5  A    between atoms: C_10  and  C_17
REMARK    6  A    between atoms: C_19  and  C_20
REMARK                            x       y       z     vdW  Elec       q    Type
REMARK                         _______ _______ _______ _____ _____    ______ ____
ROOT
ATOM      2  O   UNL     1      -3.161 -11.096  14.603  0.00  0.00    -0.421 OA
ATOM      6  N   UNL     1      -1.826 -10.672  16.347  0.00  0.00    -0.112 NA
ATOM      7  N   UNL     1      -1.182 -10.242  15.201  0.00  0.00    -0.109 NA
ATOM     17  C   UNL     1      -2.977 -11.163  15.950  0.00  0.00    +0.222 A 
ATOM     19  C   UNL     1      -1.998 -10.509  14.208  0.00  0.00    +0.254 A 
ENDROOT
BRANCH  17  10
ATOM      4  N   UNL     1      -6.339 -11.472  17.374  0.00  0.00    -0.299 NA
ATOM      9  C   UNL     1      -5.485 -11.478  16.183  0.00  0.00    +0.097 C 
ATOM     10  C   UNL     1      -4.094 -11.773  16.761  0.00  0.00    +0.092 C 
ATOM     11  C   UNL     1      -5.578 -10.731  18.379  0.00  0.00    +0.085 C 
ATOM     12  C   UNL     1      -4.171 -11.293  18.222  0.00  0.00    +0.029 C 
BRANCH   4   8
ATOM      5  N   UNL     1      -9.516  -8.650  17.463  0.00  0.00    -0.305 NA
ATOM      8  C   UNL     1      -7.648 -10.876  17.117  0.00  0.00    +0.059 C 
ATOM     13  C   UNL     1      -7.490  -9.552  16.366  0.00  0.00    +0.034 C 
ATOM     14  C   UNL     1      -8.411 -10.646  18.425  0.00  0.00    +0.034 C 
ATOM     15  C   UNL     1      -8.844  -8.863  16.175  0.00  0.00    +0.085 C 
ATOM     16  C   UNL     1      -9.735  -9.922  18.167  0.00  0.00    +0.085 C 
ATOM     18  C   UNL     1     -10.783  -7.947  17.270  0.00  0.00    +0.104 C 
ENDBRANCH   4   8
ENDBRANCH  17  10
BRANCH  19  20
ATOM     20  C   UNL     1      -1.832 -10.267  12.769  0.00  0.00    +0.326 C 
BRANCH  20   3
ATOM      3  O   UNL     1      -2.879 -10.906  12.035  0.00  0.00    -0.483 OA
BRANCH   3  21
ATOM      1  F   UNL     1      -6.231  -7.617   9.179  0.00  0.00    -0.205 F 
ATOM     21  C   UNL     1      -3.712 -10.088  11.325  0.00  0.00    +0.121 A 
ATOM     22  C   UNL     1      -4.943  -9.711  11.862  0.00  0.00    +0.048 A 
ATOM     23  C   UNL     1      -3.332  -9.630  10.063  0.00  0.00    +0.048 A 
ATOM     24  C   UNL     1      -5.794  -8.877  11.137  0.00  0.00    +0.042 A 
ATOM     25  C   UNL     1      -4.183  -8.797   9.338  0.00  0.00    +0.042 A 
ATOM     26  C   UNL     1      -5.415  -8.419   9.875  0.00  0.00    +0.124 A 
ENDBRANCH   3  21
ENDBRANCH  20   3
ENDBRANCH  19  20
TORSDOF 5
ENDMDL
MODEL 4
REMARK VINA RESULT:      -6.7     27.238     29.864
REMARK  Name = 51137598
REMARK  6 active torsions:
REMARK  status: ('A' for Active; 'I' for Inactive)
REMARK    1  A    between atoms: O_3  and  C_20
REMARK    2  A    between atoms: O_3  and  C_21
REMARK    3  A    between atoms: N_4  and  C_8
REMARK    4  A    between atoms: N_5  and  C_18
REMARK    5  A    between atoms: C_10  and  C_17
REMARK    6  A    between atoms: C_19  and  C_20
REMARK                            x       y       z     vdW  Elec       q    Type
REMARK                         _______ _______ _______ _____ _____    ______ ____
ROOT
ATOM      2  O   UNL     1     -16.007   4.510  24.596  0.00  0.00    -0.421 OA
ATOM      6  N   UNL     1     -16.344   2.864  23.119  0.00  0.00    -0.112 NA
ATOM      7  N   UNL     1     -15.607   3.854  22.496  0.00  0.00    -0.109 NA
ATOM     17  C   UNL     1     -16.554   3.290  24.343  0.00  0.00    +0.222 A 
ATOM     19  C   UNL     1     -15.434   4.795  23.395  0.00  0.00    +0.254 A 
ENDROOT
BRANCH  17  10
ATOM      4  N   UNL     1     -17.128   2.068  27.750  0.00  0.00    -0.299 NA
ATOM      9  C   UNL     1     -16.937   3.209  26.851  0.00  0.00    +0.097 C 
ATOM     10  C   UNL     1     -17.299   2.628  25.478  0.00  0.00    +0.092 C 
ATOM     11  C   UNL     1     -16.541   0.930  27.042  0.00  0.00    +0.085 C 
ATOM     12  C   UNL     1     -17.052   1.116  25.619  0.00  0.00    +0.029 C 
BRANCH   4   8
ATOM      5  N   UNL     1     -14.119   2.427  30.730  0.00  0.00    -0.305 NA
ATOM      8  C   UNL     1     -16.518   2.282  29.060  0.00  0.00    +0.059 C 
ATOM     13  C   UNL     1     -15.557   3.473  29.009  0.00  0.00    +0.034 C 
ATOM     14  C   UNL     1     -15.772   1.029  29.528  0.00  0.00    +0.034 C 
ATOM     15  C   UNL     1     -14.833   3.652  30.347  0.00  0.00    +0.085 C 
ATOM     16  C   UNL     1     -15.041   1.288  30.848  0.00  0.00    +0.085 C 
ATOM     18  C   UNL     1     -13.392   2.629  31.983  0.00  0.00    +0.104 C 
ENDBRANCH   4   8
ENDBRANCH  17  10
BRANCH  19  20
ATOM     20  C   UNL     1     -14.724   6.076  23.285  0.00  0.00    +0.326 C 
BRANCH  20   3
ATOM      3  O   UNL     1     -14.885   6.620  21.972  0.00  0.00    -0.483 OA
BRANCH   3  21
ATOM      1  F   UNL     1     -10.403   8.810  19.665  0.00  0.00    -0.205 F 
ATOM     21  C   UNL     1     -13.771   7.165  21.398  0.00  0.00    +0.121 A 
ATOM     22  C   UNL     1     -12.625   6.388  21.224  0.00  0.00    +0.048 A 
ATOM     23  C   UNL     1     -13.778   8.498  20.987  0.00  0.00    +0.048 A 
ATOM     24  C   UNL     1     -11.488   6.943  20.639  0.00  0.00    +0.042 A 
ATOM     25  C   UNL     1     -12.641   9.054  20.402  0.00  0.00    +0.042 A 
ATOM     26  C   UNL     1     -11.495   8.277  20.228  0.00  0.00    +0.124 A 
ENDBRANCH   3  21
ENDBRANCH  20   3
ENDBRANCH  19  20
TORSDOF 5
ENDMDL
MODEL 5
REMARK VINA RESULT:      -6.7     26.932     29.837
REMARK  Name = 51137598
REMARK  6 active torsions:
REMARK  status: ('A' for Active; 'I' for Inactive)
REMARK    1  A    between atoms: O_3  and  C_20
REMARK    2  A    between atoms: O_3  and  C_21
REMARK    3  A    between atoms: N_4  and  C_8
REMARK    4  A    between atoms: N_5  and  C_18
REMARK    5  A    between atoms: C_10  and  C_17
REMARK    6  A    between atoms: C_19  and  C_20
REMARK                            x       y       z     vdW  Elec       q    Type
REMARK                         _______ _______ _______ _____ _____    ______ ____
ROOT
ATOM      2  O   UNL     1      -8.277 -10.242  17.846  0.00  0.00    -0.421 OA
ATOM      6  N   UNL     1      -8.355 -11.058  19.927  0.00  0.00    -0.112 NA
ATOM      7  N   UNL     1      -9.651 -10.963  19.456  0.00  0.00    -0.109 NA
ATOM     17  C   UNL     1      -7.586 -10.627  18.954  0.00  0.00    +0.222 A 
ATOM     19  C   UNL     1      -9.558 -10.482  18.238  0.00  0.00    +0.254 A 
ENDROOT
BRANCH  17  10
ATOM      4  N   UNL     1      -4.218 -10.981  17.555  0.00  0.00    -0.299 NA
ATOM      9  C   UNL     1      -5.546 -10.368  17.466  0.00  0.00    +0.097 C 
ATOM     10  C   UNL     1      -6.082 -10.504  18.897  0.00  0.00    +0.092 C 
ATOM     11  C   UNL     1      -4.413 -12.186  18.360  0.00  0.00    +0.085 C 
ATOM     12  C   UNL     1      -5.313 -11.699  19.489  0.00  0.00    +0.029 C 
BRANCH   4   8
ATOM      5  N   UNL     1      -2.481 -10.329  13.731  0.00  0.00    -0.305 NA
ATOM      8  C   UNL     1      -3.651 -11.275  16.241  0.00  0.00    +0.059 C 
ATOM     13  C   UNL     1      -2.215 -10.752  16.155  0.00  0.00    +0.034 C 
ATOM     14  C   UNL     1      -4.500 -10.657  15.127  0.00  0.00    +0.034 C 
ATOM     15  C   UNL     1      -1.637 -10.963  14.752  0.00  0.00    +0.085 C 
ATOM     16  C   UNL     1      -3.848 -10.870  13.759  0.00  0.00    +0.085 C 
ATOM     18  C   UNL     1      -1.891 -10.495  12.403  0.00  0.00    +0.104 C 
ENDBRANCH   4   8
ENDBRANCH  17  10
BRANCH  19  20
ATOM     20  C   UNL     1     -10.617 -10.179  17.267  0.00  0.00    +0.326 C 
BRANCH  20   3
ATOM      3  O   UNL     1     -11.410  -9.081  17.726  0.00  0.00    -0.483 OA
BRANCH   3  21
ATOM      1  F   UNL     1     -12.122  -4.929  14.197  0.00  0.00    -0.205 F 
ATOM     21  C   UNL     1     -11.587  -8.049  16.849  0.00  0.00    +0.121 A 
ATOM     22  C   UNL     1     -10.520  -7.205  16.540  0.00  0.00    +0.048 A 
ATOM     23  C   UNL     1     -12.835  -7.839  16.261  0.00  0.00    +0.048 A 
ATOM     24  C   UNL     1     -10.701  -6.151  15.645  0.00  0.00    +0.042 A 
ATOM     25  C   UNL     1     -13.015  -6.785  15.366  0.00  0.00    +0.042 A 
ATOM     26  C   UNL     1     -11.948  -5.940  15.057  0.00  0.00    +0.124 A 
ENDBRANCH   3  21
ENDBRANCH  20   3
ENDBRANCH  19  20
TORSDOF 5
ENDMDL
MODEL 6
REMARK VINA RESULT:      -6.5     26.895     28.825
REMARK  Name = 51137598
REMARK  6 active torsions:
REMARK  status: ('A' for Active; 'I' for Inactive)
REMARK    1  A    between atoms: O_3  and  C_20
REMARK    2  A    between atoms: O_3  and  C_21
REMARK    3  A    between atoms: N_4  and  C_8
REMARK    4  A    between atoms: N_5  and  C_18
REMARK    5  A    between atoms: C_10  and  C_17
REMARK    6  A    between atoms: C_19  and  C_20
REMARK                            x       y       z     vdW  Elec       q    Type
REMARK                         _______ _______ _______ _____ _____    ______ ____
ROOT
ATOM      2  O   UNL     1      -3.973 -11.620  15.226  0.00  0.00    -0.421 OA
ATOM      6  N   UNL     1      -2.311 -10.721  16.422  0.00  0.00    -0.112 NA
ATOM      7  N   UNL     1      -1.749 -11.467  15.403  0.00  0.00    -0.109 NA
ATOM     17  C   UNL     1      -3.611 -10.839  16.280  0.00  0.00    +0.222 A 
ATOM     19  C   UNL     1      -2.756 -11.973  14.730  0.00  0.00    +0.254 A 
ENDROOT
BRANCH  17  10
ATOM      4  N   UNL     1      -6.858 -10.698  17.970  0.00  0.00    -0.299 NA
ATOM      9  C   UNL     1      -5.523 -11.294  17.886  0.00  0.00    +0.097 C 
ATOM     10  C   UNL     1      -4.727 -10.241  17.102  0.00  0.00    +0.092 C 
ATOM     11  C   UNL     1      -7.110 -10.149  16.638  0.00  0.00    +0.085 C 
ATOM     12  C   UNL     1      -5.789  -9.475  16.293  0.00  0.00    +0.029 C 
BRANCH   4   8
ATOM      5  N   UNL     1      -9.858 -12.570  20.328  0.00  0.00    -0.305 NA
ATOM      8  C   UNL     1      -7.876 -11.665  18.375  0.00  0.00    +0.059 C 
ATOM     13  C   UNL     1      -9.229 -10.969  18.549  0.00  0.00    +0.034 C 
ATOM     14  C   UNL     1      -7.478 -12.367  19.676  0.00  0.00    +0.034 C 
ATOM     15  C   UNL     1     -10.286 -11.947  19.069  0.00  0.00    +0.085 C 
ATOM     16  C   UNL     1      -8.593 -13.299  20.159  0.00  0.00    +0.085 C 
ATOM     18  C   UNL     1     -10.899 -13.462  20.838  0.00  0.00    +0.104 C 
ENDBRANCH   4   8
ENDBRANCH  17  10
BRANCH  19  20
ATOM     20  C   UNL     1      -2.749 -12.844  13.547  0.00  0.00    +0.326 C 
BRANCH  20   3
ATOM      3  O   UNL     1      -1.857 -12.325  12.557  0.00  0.00    -0.483 OA
BRANCH   3  21
ATOM      1  F   UNL     1      -3.943  -8.605   9.090  0.00  0.00    -0.205 F 
ATOM     21  C   UNL     1      -2.375 -11.401  11.695  0.00  0.00    +0.121 A 
ATOM     22  C   UNL     1      -1.796 -10.135  11.598  0.00  0.00    +0.048 A 
ATOM     23  C   UNL     1      -3.484 -11.722  10.911  0.00  0.00    +0.048 A 
ATOM     24  C   UNL     1      -2.326  -9.191  10.719  0.00  0.00    +0.042 A 
ATOM     25  C   UNL     1      -4.014 -10.777  10.032  0.00  0.00    +0.042 A 
ATOM     26  C   UNL     1      -3.435  -9.512   9.935  0.00  0.00    +0.124 A 
ENDBRANCH   3  21
ENDBRANCH  20   3
ENDBRANCH  19  20
TORSDOF 5
ENDMDL
MODEL 7
REMARK VINA RESULT:      -6.3     26.719     29.238
REMARK  Name = 51137598
REMARK  6 active torsions:
REMARK  status: ('A' for Active; 'I' for Inactive)
REMARK    1  A    between atoms: O_3  and  C_20
REMARK    2  A    between atoms: O_3  and  C_21
REMARK    3  A    between atoms: N_4  and  C_8
REMARK    4  A    between atoms: N_5  and  C_18
REMARK    5  A    between atoms: C_10  and  C_17
REMARK    6  A    between atoms: C_19  and  C_20
REMARK                            x       y       z     vdW  Elec       q    Type
REMARK                         _______ _______ _______ _____ _____    ______ ____
ROOT
ATOM      2  O   UNL     1      -7.022 -11.690  17.901  0.00  0.00    -0.421 OA
ATOM      6  N   UNL     1      -7.587 -11.103  19.984  0.00  0.00    -0.112 NA
ATOM      7  N   UNL     1      -6.234 -11.390  19.973  0.00  0.00    -0.109 NA
ATOM     17  C   UNL     1      -8.005 -11.291  18.754  0.00  0.00    +0.222 A 
ATOM     19  C   UNL     1      -5.948 -11.728  18.737  0.00  0.00    +0.254 A 
ENDROOT
BRANCH  17  10
ATOM      4  N   UNL     1     -10.707  -9.701  16.858  0.00  0.00    -0.299 NA
ATOM      9  C   UNL     1      -9.394 -10.351  16.849  0.00  0.00    +0.097 C 
ATOM     10  C   UNL     1      -9.389 -11.129  18.172  0.00  0.00    +0.092 C 
ATOM     11  C   UNL     1     -10.872  -9.205  18.224  0.00  0.00    +0.085 C 
ATOM     12  C   UNL     1     -10.384 -10.374  19.071  0.00  0.00    +0.029 C 
BRANCH   4   8
ATOM      5  N   UNL     1     -12.144  -6.224  14.880  0.00  0.00    -0.305 NA
ATOM      8  C   UNL     1     -10.808  -8.635  15.864  0.00  0.00    +0.059 C 
ATOM     13  C   UNL     1     -10.625  -7.269  16.531  0.00  0.00    +0.034 C 
ATOM     14  C   UNL     1     -12.157  -8.686  15.141  0.00  0.00    +0.034 C 
ATOM     15  C   UNL     1     -10.826  -6.135  15.523  0.00  0.00    +0.085 C 
ATOM     16  C   UNL     1     -12.308  -7.506  14.178  0.00  0.00    +0.085 C 
ATOM     18  C   UNL     1     -12.341  -5.106  13.958  0.00  0.00    +0.104 C 
ENDBRANCH   4   8
ENDBRANCH  17  10
BRANCH  19  20
ATOM     20  C   UNL     1      -4.663 -12.128  18.149  0.00  0.00    +0.326 C 
BRANCH  20   3
ATOM      3  O   UNL     1      -3.868 -10.974  17.864  0.00  0.00    -0.483 OA
BRANCH   3  21
ATOM      1  F   UNL     1      -2.092 -10.443  12.690  0.00  0.00    -0.205 F 
ATOM     21  C   UNL     1      -3.426 -10.842  16.578  0.00  0.00    +0.121 A 
ATOM     22  C   UNL     1      -4.339 -10.851  15.523  0.00  0.00    +0.048 A 
ATOM     23  C   UNL     1      -2.063 -10.698  16.319  0.00  0.00    +0.048 A 
ATOM     24  C   UNL     1      -3.889 -10.716  14.210  0.00  0.00    +0.042 A 
ATOM     25  C   UNL     1      -1.613 -10.564  15.006  0.00  0.00    +0.042 A 
ATOM     26  C   UNL     1      -2.525 -10.573  13.951  0.00  0.00    +0.124 A 
ENDBRANCH   3  21
ENDBRANCH  20   3
ENDBRANCH  19  20
TORSDOF 5
ENDMDL
MODEL 8
REMARK VINA RESULT:      -6.2     27.011     29.138
REMARK  Name = 51137598
REMARK  6 active torsions:
REMARK  status: ('A' for Active; 'I' for Inactive)
REMARK    1  A    between atoms: O_3  and  C_20
REMARK    2  A    between atoms: O_3  and  C_21
REMARK    3  A    between atoms: N_4  and  C_8
REMARK    4  A    between atoms: N_5  and  C_18
REMARK    5  A    between atoms: C_10  and  C_17
REMARK    6  A    between atoms: C_19  and  C_20
REMARK                            x       y       z     vdW  Elec       q    Type
REMARK                         _______ _______ _______ _____ _____    ______ ____
ROOT
ATOM      2  O   UNL     1      -3.421 -10.720  14.699  0.00  0.00    -0.421 OA
ATOM      6  N   UNL     1      -1.306 -11.216  15.231  0.00  0.00    -0.112 NA
ATOM      7  N   UNL     1      -1.970 -10.873  16.394  0.00  0.00    -0.109 NA
ATOM     17  C   UNL     1      -2.192 -11.113  14.267  0.00  0.00    +0.222 A 
ATOM     19  C   UNL     1      -3.201 -10.590  16.036  0.00  0.00    +0.254 A 
ENDROOT
BRANCH  17  10
ATOM      4  N   UNL     1      -3.107 -11.072  10.720  0.00  0.00    -0.299 NA
ATOM      9  C   UNL     1      -2.749 -10.316  11.923  0.00  0.00    +0.097 C 
ATOM     10  C   UNL     1      -2.037 -11.366  12.787  0.00  0.00    +0.092 C 
ATOM     11  C   UNL     1      -3.605 -12.354  11.216  0.00  0.00    +0.085 C 
ATOM     12  C   UNL     1      -2.597 -12.714  12.299  0.00  0.00    +0.029 C 
BRANCH   4   8
ATOM      5  N   UNL     1      -6.623  -8.921   9.682  0.00  0.00    -0.305 NA
ATOM      8  C   UNL     1      -4.092 -10.374   9.896  0.00  0.00    +0.059 C 
ATOM     13  C   UNL     1      -4.245  -8.925  10.367  0.00  0.00    +0.034 C 
ATOM     14  C   UNL     1      -5.447 -11.084   9.942  0.00  0.00    +0.034 C 
ATOM     15  C   UNL     1      -5.344  -8.206   9.580  0.00  0.00    +0.085 C 
ATOM     16  C   UNL     1      -6.507 -10.294   9.170  0.00  0.00    +0.085 C 
ATOM     18  C   UNL     1      -7.674  -8.196   8.968  0.00  0.00    +0.104 C 
ENDBRANCH   4   8
ENDBRANCH  17  10
BRANCH  19  20
ATOM     20  C   UNL     1      -4.342 -10.168  16.859  0.00  0.00    +0.326 C 
BRANCH  20   3
ATOM      3  O   UNL     1      -4.594 -11.129  17.887  0.00  0.00    -0.483 OA
BRANCH   3  21
ATOM      1  F   UNL     1      -9.758 -11.432  19.744  0.00  0.00    -0.205 F 
ATOM     21  C   UNL     1      -5.877 -11.204  18.349  0.00  0.00    +0.121 A 
ATOM     22  C   UNL     1      -6.233 -12.195  19.264  0.00  0.00    +0.048 A 
ATOM     23  C   UNL     1      -6.834 -10.290  17.905  0.00  0.00    +0.048 A 
ATOM     24  C   UNL     1      -7.543 -12.273  19.735  0.00  0.00    +0.042 A 
ATOM     25  C   UNL     1      -8.144 -10.368  18.375  0.00  0.00    +0.042 A 
ATOM     26  C   UNL     1      -8.500 -11.359  19.291  0.00  0.00    +0.124 A 
ENDBRANCH   3  21
ENDBRANCH  20   3
ENDBRANCH  19  20
TORSDOF 5
ENDMDL
MODEL 9
REMARK VINA RESULT:      -6.1      4.210      6.816
REMARK  Name = 51137598
REMARK  6 active torsions:
REMARK  status: ('A' for Active; 'I' for Inactive)
REMARK    1  A    between atoms: O_3  and  C_20
REMARK    2  A    between atoms: O_3  and  C_21
REMARK    3  A    between atoms: N_4  and  C_8
REMARK    4  A    between atoms: N_5  and  C_18
REMARK    5  A    between atoms: C_10  and  C_17
REMARK    6  A    between atoms: C_19  and  C_20
REMARK                            x       y       z     vdW  Elec       q    Type
REMARK                         _______ _______ _______ _____ _____    ______ ____
ROOT
ATOM      2  O   UNL     1      13.838   8.427  18.729  0.00  0.00    -0.421 OA
ATOM      6  N   UNL     1      11.952   7.695  17.774  0.00  0.00    -0.112 NA
ATOM      7  N   UNL     1      12.344   6.762  18.716  0.00  0.00    -0.109 NA
ATOM     17  C   UNL     1      12.853   8.649  17.817  0.00  0.00    +0.222 A 
ATOM     19  C   UNL     1      13.450   7.230  19.248  0.00  0.00    +0.254 A 
ENDROOT
BRANCH  17  10
ATOM      4  N   UNL     1      14.341  11.128  15.567  0.00  0.00    -0.299 NA
ATOM      9  C   UNL     1      13.800   9.780  15.751  0.00  0.00    +0.097 C 
ATOM     10  C   UNL     1      12.941   9.925  17.014  0.00  0.00    +0.092 C 
ATOM     11  C   UNL     1      14.733  11.562  16.908  0.00  0.00    +0.085 C 
ATOM     12  C   UNL     1      13.555  11.120  17.765  0.00  0.00    +0.029 C 
BRANCH   4   8
ATOM      5  N   UNL     1      17.398  12.692  13.061  0.00  0.00    -0.305 NA
ATOM      8  C   UNL     1      15.458  11.157  14.625  0.00  0.00    +0.059 C 
ATOM     13  C   UNL     1      16.675  11.830  15.265  0.00  0.00    +0.034 C 
ATOM     14  C   UNL     1      15.071  11.892  13.339  0.00  0.00    +0.034 C 
ATOM     15  C   UNL     1      17.823  11.958  14.261  0.00  0.00    +0.085 C 
ATOM     16  C   UNL     1      16.271  12.019  12.398  0.00  0.00    +0.085 C 
ATOM     18  C   UNL     1      18.518  12.850  12.134  0.00  0.00    +0.104 C 
ENDBRANCH   4   8
ENDBRANCH  17  10
BRANCH  19  20
ATOM     20  C   UNL     1      14.299   6.655  20.299  0.00  0.00    +0.326 C 
BRANCH  20   3
ATOM      3  O   UNL     1      14.828   7.692  21.130  0.00  0.00    -0.483 OA
BRANCH   3  21
ATOM      1  F   UNL     1      20.306   8.046  21.415  0.00  0.00    -0.205 F 
ATOM     21  C   UNL     1      16.190   7.780  21.200  0.00  0.00    +0.121 A 
ATOM     22  C   UNL     1      16.968   6.623  21.144  0.00  0.00    +0.048 A 
ATOM     23  C   UNL     1      16.803   9.027  21.330  0.00  0.00    +0.048 A 
ATOM     24  C   UNL     1      18.357   6.713  21.217  0.00  0.00    +0.042 A 
ATOM     25  C   UNL     1      18.193   9.116  21.402  0.00  0.00    +0.042 A 
ATOM     26  C   UNL     1      18.971   7.960  21.346  0.00  0.00    +0.124 A 
ENDBRANCH   3  21
ENDBRANCH  20   3
ENDBRANCH  19  20
TORSDOF 5
ENDMDL
MODEL 10
REMARK VINA RESULT:      -6.0     26.604     28.904
REMARK  Name = 51137598
REMARK  6 active torsions:
REMARK  status: ('A' for Active; 'I' for Inactive)
REMARK    1  A    between atoms: O_3  and  C_20
REMARK    2  A    between atoms: O_3  and  C_21
REMARK    3  A    between atoms: N_4  and  C_8
REMARK    4  A    between atoms: N_5  and  C_18
REMARK    5  A    between atoms: C_10  and  C_17
REMARK    6  A    between atoms: C_19  and  C_20
REMARK                            x       y       z     vdW  Elec       q    Type
REMARK                         _______ _______ _______ _____ _____    ______ ____
ROOT
ATOM      2  O   UNL     1      -4.010 -10.052  11.818  0.00  0.00    -0.421 OA
ATOM      6  N   UNL     1      -1.797  -9.870  11.551  0.00  0.00    -0.112 NA
ATOM      7  N   UNL     1      -2.409  -9.248  10.479  0.00  0.00    -0.109 NA
ATOM     17  C   UNL     1      -2.769 -10.324  12.307  0.00  0.00    +0.222 A 
ATOM     19  C   UNL     1      -3.700  -9.379  10.676  0.00  0.00    +0.254 A 
ENDROOT
BRANCH  17  10
ATOM      4  N   UNL     1      -3.479 -11.073  15.823  0.00  0.00    -0.299 NA
ATOM      9  C   UNL     1      -3.977 -10.947  14.451  0.00  0.00    +0.097 C 
ATOM     10  C   UNL     1      -2.701 -11.085  13.609  0.00  0.00    +0.092 C 
ATOM     11  C   UNL     1      -2.257 -10.269  15.855  0.00  0.00    +0.085 C 
ATOM     12  C   UNL     1      -1.565 -10.652  14.553  0.00  0.00    +0.029 C 
BRANCH   4   8
ATOM      5  N   UNL     1      -6.975 -11.082  18.239  0.00  0.00    -0.305 NA
ATOM      8  C   UNL     1      -4.459 -10.635  16.814  0.00  0.00    +0.059 C 
ATOM     13  C   UNL     1      -4.595 -11.682  17.922  0.00  0.00    +0.034 C 
ATOM     14  C   UNL     1      -5.821 -10.382  16.163  0.00  0.00    +0.034 C 
ATOM     15  C   UNL     1      -5.689 -11.287  18.919  0.00  0.00    +0.085 C 
ATOM     16  C   UNL     1      -6.875 -10.030  17.216  0.00  0.00    +0.085 C 
ATOM     18  C   UNL     1      -8.020 -10.755  19.208  0.00  0.00    +0.104 C 
ENDBRANCH   4   8
ENDBRANCH  17  10
BRANCH  19  20
ATOM     20  C   UNL     1      -4.825  -8.910   9.856  0.00  0.00    +0.326 C 
BRANCH  20   3
ATOM      3  O   UNL     1      -5.636 -10.015   9.449  0.00  0.00    -0.483 OA
BRANCH   3  21
ATOM      1  F   UNL     1      -5.186 -11.579   4.200  0.00  0.00    -0.205 F 
ATOM     21  C   UNL     1      -5.525 -10.404   8.144  0.00  0.00    +0.121 A 
ATOM     22  C   UNL     1      -4.708 -11.483   7.805  0.00  0.00    +0.048 A 
ATOM     23  C   UNL     1      -6.227  -9.722   7.150  0.00  0.00    +0.048 A 
ATOM     24  C   UNL     1      -4.593 -11.880   6.473  0.00  0.00    +0.042 A 
ATOM     25  C   UNL     1      -6.112 -10.119   5.818  0.00  0.00    +0.042 A 
ATOM     26  C   UNL     1      -5.295 -11.198   5.479  0.00  0.00    +0.124 A 
ENDBRANCH   3  21
ENDBRANCH  20   3
ENDBRANCH  19  20
TORSDOF 5
ENDMDL
