MODEL 1
REMARK VINA RESULT:      -5.7      0.000      0.000
REMARK  Name = 75536960
REMARK  5 active torsions:
REMARK  status: ('A' for Active; 'I' for Inactive)
REMARK    1  A    between atoms: O_2  and  C_7
REMARK    2  A    between atoms: O_3  and  C_16
REMARK    3  A    between atoms: O_3  and  C_17
REMARK    4  A    between atoms: N_4  and  C_9
REMARK    5  A    between atoms: C_9  and  C_12
REMARK                            x       y       z     vdW  Elec       q    Type
REMARK                         _______ _______ _______ _____ _____    ______ ____
ROOT
ATOM      1  O   UNL     1      10.975   8.897  21.355  0.00  0.00    -0.376 OA
ATOM      4  N   UNL     1      13.480   7.863  19.811  0.00  0.00    -0.293 NA
ATOM      6  C   UNL     1      12.932   6.574  20.248  0.00  0.00    +0.118 C 
ATOM      7  C   UNL     1      11.609   6.584  21.029  0.00  0.00    +0.154 C 
ATOM      8  C   UNL     1      12.470   8.835  19.388  0.00  0.00    +0.113 C 
ATOM     10  C   UNL     1      11.470   7.736  22.014  0.00  0.00    +0.192 C 
ATOM     11  C   UNL     1      11.948   9.606  20.601  0.00  0.00    +0.175 C 
ENDROOT
BRANCH   7   2
ATOM      2  O   UNL     1      11.517   5.362  21.764  0.00  0.00    -0.388 OA
ATOM     18  H   UNL     1      12.414   4.992  21.828  0.00  0.00    +0.210 HD
ENDBRANCH   7   2
BRANCH   4   9
ATOM      9  C   UNL     1      14.491   7.655  18.774  0.00  0.00    +0.121 C 
BRANCH   9  12
ATOM      5  N   UNL     1      17.712   5.735  19.295  0.00  0.00    -0.221 NA
ATOM     12  C   UNL     1      15.812   7.230  19.356  0.00  0.00    -0.015 A 
ATOM     13  C   UNL     1      16.362   7.895  20.447  0.00  0.00    +0.011 A 
ATOM     14  C   UNL     1      16.520   6.166  18.821  0.00  0.00    +0.119 A 
ATOM     15  C   UNL     1      17.585   7.481  20.962  0.00  0.00    +0.067 A 
ATOM     16  C   UNL     1      18.213   6.405  20.356  0.00  0.00    +0.214 A 
BRANCH  16   3
ATOM      3  O   UNL     1      19.420   5.978  20.846  0.00  0.00    -0.480 OA
ATOM     17  C   UNL     1      20.043   6.806  21.820  0.00  0.00    +0.279 C 
ENDBRANCH  16   3
ENDBRANCH   9  12
ENDBRANCH   4   9
TORSDOF 4
ENDMDL
MODEL 2
REMARK VINA RESULT:      -5.2      1.663      2.292
REMARK  Name = 75536960
REMARK  5 active torsions:
REMARK  status: ('A' for Active; 'I' for Inactive)
REMARK    1  A    between atoms: O_2  and  C_7
REMARK    2  A    between atoms: O_3  and  C_16
REMARK    3  A    between atoms: O_3  and  C_17
REMARK    4  A    between atoms: N_4  and  C_9
REMARK    5  A    between atoms: C_9  and  C_12
REMARK                            x       y       z     vdW  Elec       q    Type
REMARK                         _______ _______ _______ _____ _____    ______ ____
ROOT
ATOM      1  O   UNL     1      12.792  10.270  18.800  0.00  0.00    -0.376 OA
ATOM      4  N   UNL     1      14.558   7.736  19.237  0.00  0.00    -0.293 NA
ATOM      6  C   UNL     1      13.257   7.177  19.619  0.00  0.00    +0.118 C 
ATOM      7  C   UNL     1      12.023   8.085  19.502  0.00  0.00    +0.154 C 
ATOM      8  C   UNL     1      14.511   8.642  18.088  0.00  0.00    +0.113 C 
ATOM     10  C   UNL     1      12.269   9.533  19.900  0.00  0.00    +0.192 C 
ATOM     11  C   UNL     1      14.175  10.059  18.555  0.00  0.00    +0.175 C 
ENDROOT
BRANCH   7   2
ATOM      2  O   UNL     1      11.003   7.561  20.355  0.00  0.00    -0.388 OA
ATOM     18  H   UNL     1      10.625   8.306  20.851  0.00  0.00    +0.210 HD
ENDBRANCH   7   2
BRANCH   4   9
ATOM      9  C   UNL     1      15.528   6.661  19.031  0.00  0.00    +0.121 C 
BRANCH   9  12
ATOM      5  N   UNL     1      17.900   8.054  21.632  0.00  0.00    -0.221 NA
ATOM     12  C   UNL     1      16.767   6.855  19.864  0.00  0.00    -0.015 A 
ATOM     13  C   UNL     1      17.893   6.062  19.671  0.00  0.00    +0.011 A 
ATOM     14  C   UNL     1      16.820   7.828  20.849  0.00  0.00    +0.119 A 
ATOM     15  C   UNL     1      19.022   6.264  20.457  0.00  0.00    +0.067 A 
ATOM     16  C   UNL     1      18.975   7.264  21.414  0.00  0.00    +0.214 A 
BRANCH  16   3
ATOM      3  O   UNL     1      20.075   7.482  22.201  0.00  0.00    -0.480 OA
ATOM     17  C   UNL     1      20.752   6.330  22.689  0.00  0.00    +0.279 C 
ENDBRANCH  16   3
ENDBRANCH   9  12
ENDBRANCH   4   9
TORSDOF 4
ENDMDL
MODEL 3
REMARK VINA RESULT:      -5.0     25.291     27.410
REMARK  Name = 75536960
REMARK  5 active torsions:
REMARK  status: ('A' for Active; 'I' for Inactive)
REMARK    1  A    between atoms: O_2  and  C_7
REMARK    2  A    between atoms: O_3  and  C_16
REMARK    3  A    between atoms: O_3  and  C_17
REMARK    4  A    between atoms: N_4  and  C_9
REMARK    5  A    between atoms: C_9  and  C_12
REMARK                            x       y       z     vdW  Elec       q    Type
REMARK                         _______ _______ _______ _____ _____    ______ ____
ROOT
ATOM      1  O   UNL     1      -7.606 -13.427  17.939  0.00  0.00    -0.376 OA
ATOM      4  N   UNL     1      -5.090 -11.587  17.827  0.00  0.00    -0.293 NA
ATOM      6  C   UNL     1      -5.846 -10.876  18.864  0.00  0.00    +0.118 C 
ATOM      7  C   UNL     1      -7.189 -11.476  19.311  0.00  0.00    +0.154 C 
ATOM      8  C   UNL     1      -5.164 -13.046  17.919  0.00  0.00    +0.113 C 
ATOM     10  C   UNL     1      -8.012 -12.084  18.183  0.00  0.00    +0.192 C 
ATOM     11  C   UNL     1      -6.407 -13.553  17.187  0.00  0.00    +0.175 C 
ENDROOT
BRANCH   7   2
ATOM      2  O   UNL     1      -7.964 -10.436  19.910  0.00  0.00    -0.388 OA
ATOM     18  H   UNL     1      -7.800  -9.622  19.404  0.00  0.00    +0.210 HD
ENDBRANCH   7   2
BRANCH   4   9
ATOM      9  C   UNL     1      -3.703 -11.121  17.807  0.00  0.00    +0.121 C 
BRANCH   9  12
ATOM      5  N   UNL     1      -3.707 -10.683  14.047  0.00  0.00    -0.221 NA
ATOM     12  C   UNL     1      -3.210 -10.887  16.404  0.00  0.00    -0.015 A 
ATOM     13  C   UNL     1      -1.861 -10.664  16.146  0.00  0.00    +0.011 A 
ATOM     14  C   UNL     1      -4.084 -10.887  15.330  0.00  0.00    +0.119 A 
ATOM     15  C   UNL     1      -1.435 -10.451  14.840  0.00  0.00    +0.067 A 
ATOM     16  C   UNL     1      -2.389 -10.470  13.836  0.00  0.00    +0.214 A 
BRANCH  16   3
ATOM      3  O   UNL     1      -1.993 -10.262  12.540  0.00  0.00    -0.480 OA
ATOM     17  C   UNL     1      -3.021 -10.209  11.558  0.00  0.00    +0.279 C 
ENDBRANCH  16   3
ENDBRANCH   9  12
ENDBRANCH   4   9
TORSDOF 4
ENDMDL
MODEL 4
REMARK VINA RESULT:      -5.0     25.936     27.566
REMARK  Name = 75536960
REMARK  5 active torsions:
REMARK  status: ('A' for Active; 'I' for Inactive)
REMARK    1  A    between atoms: O_2  and  C_7
REMARK    2  A    between atoms: O_3  and  C_16
REMARK    3  A    between atoms: O_3  and  C_17
REMARK    4  A    between atoms: N_4  and  C_9
REMARK    5  A    between atoms: C_9  and  C_12
REMARK                            x       y       z     vdW  Elec       q    Type
REMARK                         _______ _______ _______ _____ _____    ______ ____
ROOT
ATOM      1  O   UNL     1     -12.042  10.053  14.889  0.00  0.00    -0.376 OA
ATOM      4  N   UNL     1     -11.302   9.122  17.773  0.00  0.00    -0.293 NA
ATOM      6  C   UNL     1     -10.518   8.146  17.009  0.00  0.00    +0.118 C 
ATOM      7  C   UNL     1     -10.529   8.257  15.476  0.00  0.00    +0.154 C 
ATOM      8  C   UNL     1     -11.298  10.473  17.209  0.00  0.00    +0.113 C 
ATOM     10  C   UNL     1     -11.878   8.639  14.884  0.00  0.00    +0.192 C 
ATOM     11  C   UNL     1     -12.396  10.600  16.152  0.00  0.00    +0.175 C 
ENDROOT
BRANCH   7   2
ATOM      2  O   UNL     1     -10.152   6.990  14.935  0.00  0.00    -0.388 OA
ATOM     18  H   UNL     1      -9.949   7.122  13.994  0.00  0.00    +0.210 HD
ENDBRANCH   7   2
BRANCH   4   9
ATOM      9  C   UNL     1     -10.877   9.125  19.173  0.00  0.00    +0.121 C 
BRANCH   9  12
ATOM      5  N   UNL     1     -13.920   8.276  21.259  0.00  0.00    -0.221 NA
ATOM     12  C   UNL     1     -11.828   8.354  20.049  0.00  0.00    -0.015 A 
ATOM     13  C   UNL     1     -11.535   7.058  20.459  0.00  0.00    +0.011 A 
ATOM     14  C   UNL     1     -13.023   8.913  20.473  0.00  0.00    +0.119 A 
ATOM     15  C   UNL     1     -12.433   6.371  21.268  0.00  0.00    +0.067 A 
ATOM     16  C   UNL     1     -13.600   7.019  21.637  0.00  0.00    +0.214 A 
BRANCH  16   3
ATOM      3  O   UNL     1     -14.501   6.362  22.434  0.00  0.00    -0.480 OA
ATOM     17  C   UNL     1     -14.290   4.968  22.624  0.00  0.00    +0.279 C 
ENDBRANCH  16   3
ENDBRANCH   9  12
ENDBRANCH   4   9
TORSDOF 4
ENDMDL
MODEL 5
REMARK VINA RESULT:      -4.9     31.231     32.734
REMARK  Name = 75536960
REMARK  5 active torsions:
REMARK  status: ('A' for Active; 'I' for Inactive)
REMARK    1  A    between atoms: O_2  and  C_7
REMARK    2  A    between atoms: O_3  and  C_16
REMARK    3  A    between atoms: O_3  and  C_17
REMARK    4  A    between atoms: N_4  and  C_9
REMARK    5  A    between atoms: C_9  and  C_12
REMARK                            x       y       z     vdW  Elec       q    Type
REMARK                         _______ _______ _______ _____ _____    ______ ____
ROOT
ATOM      1  O   UNL     1     -13.641   2.012  32.498  0.00  0.00    -0.376 OA
ATOM      4  N   UNL     1     -15.500   3.173  30.279  0.00  0.00    -0.293 NA
ATOM      6  C   UNL     1     -16.173   3.732  31.456  0.00  0.00    +0.118 C 
ATOM      7  C   UNL     1     -15.551   3.459  32.836  0.00  0.00    +0.154 C 
ATOM      8  C   UNL     1     -14.038   3.184  30.358  0.00  0.00    +0.113 C 
ATOM     10  C   UNL     1     -14.973   2.061  32.998  0.00  0.00    +0.192 C 
ATOM     11  C   UNL     1     -13.546   1.930  31.083  0.00  0.00    +0.175 C 
ENDROOT
BRANCH   7   2
ATOM      2  O   UNL     1     -16.568   3.634  33.824  0.00  0.00    -0.388 OA
ATOM     18  H   UNL     1     -17.142   2.849  33.794  0.00  0.00    +0.210 HD
ENDBRANCH   7   2
BRANCH   4   9
ATOM      9  C   UNL     1     -15.975   3.837  29.065  0.00  0.00    +0.121 C 
BRANCH   9  12
ATOM      5  N   UNL     1     -16.789   0.600  27.279  0.00  0.00    -0.221 NA
ATOM     12  C   UNL     1     -16.239   2.856  27.955  0.00  0.00    -0.015 A 
ATOM     13  C   UNL     1     -16.189   3.250  26.622  0.00  0.00    +0.011 A 
ATOM     14  C   UNL     1     -16.541   1.532  28.228  0.00  0.00    +0.119 A 
ATOM     15  C   UNL     1     -16.438   2.321  25.618  0.00  0.00    +0.067 A 
ATOM     16  C   UNL     1     -16.730   1.021  25.997  0.00  0.00    +0.214 A 
BRANCH  16   3
ATOM      3  O   UNL     1     -16.980   0.087  25.025  0.00  0.00    -0.480 OA
ATOM     17  C   UNL     1     -18.074   0.346  24.154  0.00  0.00    +0.279 C 
ENDBRANCH  16   3
ENDBRANCH   9  12
ENDBRANCH   4   9
TORSDOF 4
ENDMDL
MODEL 6
REMARK VINA RESULT:      -4.9     30.943     32.100
REMARK  Name = 75536960
REMARK  5 active torsions:
REMARK  status: ('A' for Active; 'I' for Inactive)
REMARK    1  A    between atoms: O_2  and  C_7
REMARK    2  A    between atoms: O_3  and  C_16
REMARK    3  A    between atoms: O_3  and  C_17
REMARK    4  A    between atoms: N_4  and  C_9
REMARK    5  A    between atoms: C_9  and  C_12
REMARK                            x       y       z     vdW  Elec       q    Type
REMARK                         _______ _______ _______ _____ _____    ______ ____
ROOT
ATOM      1  O   UNL     1     -16.729   7.163  32.172  0.00  0.00    -0.376 OA
ATOM      4  N   UNL     1     -14.834   4.739  32.684  0.00  0.00    -0.293 NA
ATOM      6  C   UNL     1     -13.851   5.822  32.784  0.00  0.00    +0.118 C 
ATOM      7  C   UNL     1     -14.358   7.267  32.651  0.00  0.00    +0.154 C 
ATOM      8  C   UNL     1     -16.131   5.042  33.292  0.00  0.00    +0.113 C 
ATOM     10  C   UNL     1     -15.453   7.454  31.611  0.00  0.00    +0.192 C 
ATOM     11  C   UNL     1     -17.019   5.777  32.287  0.00  0.00    +0.175 C 
ENDROOT
BRANCH   7   2
ATOM      2  O   UNL     1     -13.253   8.094  32.283  0.00  0.00    -0.388 OA
ATOM     18  H   UNL     1     -13.419   8.981  32.644  0.00  0.00    +0.210 HD
ENDBRANCH   7   2
BRANCH   4   9
ATOM      9  C   UNL     1     -14.272   3.497  33.214  0.00  0.00    +0.121 C 
BRANCH   9  12
ATOM      5  N   UNL     1     -14.850   0.119  31.606  0.00  0.00    -0.221 NA
ATOM     12  C   UNL     1     -14.278   2.395  32.189  0.00  0.00    -0.015 A 
ATOM     13  C   UNL     1     -13.748   2.594  30.918  0.00  0.00    +0.011 A 
ATOM     14  C   UNL     1     -14.813   1.151  32.480  0.00  0.00    +0.119 A 
ATOM     15  C   UNL     1     -13.768   1.557  29.992  0.00  0.00    +0.067 A 
ATOM     16  C   UNL     1     -14.326   0.351  30.382  0.00  0.00    +0.214 A 
BRANCH  16   3
ATOM      3  O   UNL     1     -14.358  -0.686  29.487  0.00  0.00    -0.480 OA
ATOM     17  C   UNL     1     -13.114  -1.307  29.182  0.00  0.00    +0.279 C 
ENDBRANCH  16   3
ENDBRANCH   9  12
ENDBRANCH   4   9
TORSDOF 4
ENDMDL
MODEL 7
REMARK VINA RESULT:      -4.8     26.205     27.832
REMARK  Name = 75536960
REMARK  5 active torsions:
REMARK  status: ('A' for Active; 'I' for Inactive)
REMARK    1  A    between atoms: O_2  and  C_7
REMARK    2  A    between atoms: O_3  and  C_16
REMARK    3  A    between atoms: O_3  and  C_17
REMARK    4  A    between atoms: N_4  and  C_9
REMARK    5  A    between atoms: C_9  and  C_12
REMARK                            x       y       z     vdW  Elec       q    Type
REMARK                         _______ _______ _______ _____ _____    ______ ____
ROOT
ATOM      1  O   UNL     1      -3.994 -12.543  12.202  0.00  0.00    -0.376 OA
ATOM      4  N   UNL     1      -3.238 -11.462  15.029  0.00  0.00    -0.293 NA
ATOM      6  C   UNL     1      -1.949 -12.055  14.659  0.00  0.00    +0.118 C 
ATOM      7  C   UNL     1      -1.823 -12.684  13.262  0.00  0.00    +0.154 C 
ATOM      8  C   UNL     1      -3.925 -10.779  13.932  0.00  0.00    +0.113 C 
ATOM     10  C   UNL     1      -3.061 -13.438  12.798  0.00  0.00    +0.192 C 
ATOM     11  C   UNL     1      -4.755 -11.782  13.130  0.00  0.00    +0.175 C 
ENDROOT
BRANCH   7   2
ATOM      2  O   UNL     1      -0.730 -13.604  13.286  0.00  0.00    -0.388 OA
ATOM     18  H   UNL     1       0.087 -13.085  13.373  0.00  0.00    +0.210 HD
ENDBRANCH   7   2
BRANCH   4   9
ATOM      9  C   UNL     1      -3.074 -10.585  16.188  0.00  0.00    +0.121 C 
BRANCH   9  12
ATOM      5  N   UNL     1      -6.414 -10.309  17.949  0.00  0.00    -0.221 NA
ATOM     12  C   UNL     1      -4.164 -10.790  17.206  0.00  0.00    -0.015 A 
ATOM     13  C   UNL     1      -3.969 -11.614  18.309  0.00  0.00    +0.011 A 
ATOM     14  C   UNL     1      -5.394 -10.166  17.072  0.00  0.00    +0.119 A 
ATOM     15  C   UNL     1      -4.994 -11.785  19.232  0.00  0.00    +0.067 A 
ATOM     16  C   UNL     1      -6.186 -11.116  19.008  0.00  0.00    +0.214 A 
BRANCH  16   3
ATOM      3  O   UNL     1      -7.212 -11.269  19.904  0.00  0.00    -0.480 OA
ATOM     17  C   UNL     1      -8.529 -11.305  19.369  0.00  0.00    +0.279 C 
ENDBRANCH  16   3
ENDBRANCH   9  12
ENDBRANCH   4   9
TORSDOF 4
ENDMDL
MODEL 8
REMARK VINA RESULT:      -4.6     26.241     28.725
REMARK  Name = 75536960
REMARK  5 active torsions:
REMARK  status: ('A' for Active; 'I' for Inactive)
REMARK    1  A    between atoms: O_2  and  C_7
REMARK    2  A    between atoms: O_3  and  C_16
REMARK    3  A    between atoms: O_3  and  C_17
REMARK    4  A    between atoms: N_4  and  C_9
REMARK    5  A    between atoms: C_9  and  C_12
REMARK                            x       y       z     vdW  Elec       q    Type
REMARK                         _______ _______ _______ _____ _____    ______ ____
ROOT
ATOM      1  O   UNL     1     -10.927 -10.779  17.378  0.00  0.00    -0.376 OA
ATOM      4  N   UNL     1      -8.069 -11.742  18.175  0.00  0.00    -0.293 NA
ATOM      6  C   UNL     1      -8.556 -11.348  19.501  0.00  0.00    +0.118 C 
ATOM      7  C   UNL     1     -10.003 -10.842  19.614  0.00  0.00    +0.154 C 
ATOM      8  C   UNL     1      -9.070 -12.409  17.339  0.00  0.00    +0.113 C 
ATOM     10  C   UNL     1     -10.456  -9.971  18.451  0.00  0.00    +0.192 C 
ATOM     11  C   UNL     1      -9.902 -11.367  16.590  0.00  0.00    +0.175 C 
ENDROOT
BRANCH   7   2
ATOM      2  O   UNL     1     -10.112 -10.071  20.812  0.00  0.00    -0.388 OA
ATOM     18  H   UNL     1     -11.052 -10.050  21.061  0.00  0.00    +0.210 HD
ENDBRANCH   7   2
BRANCH   4   9
ATOM      9  C   UNL     1      -6.855 -12.548  18.303  0.00  0.00    +0.121 C 
BRANCH   9  12
ATOM      5  N   UNL     1      -4.029 -12.360  15.792  0.00  0.00    -0.221 NA
ATOM     12  C   UNL     1      -5.725 -11.996  17.476  0.00  0.00    -0.015 A 
ATOM     13  C   UNL     1      -5.327 -10.669  17.600  0.00  0.00    +0.011 A 
ATOM     14  C   UNL     1      -5.050 -12.793  16.565  0.00  0.00    +0.119 A 
ATOM     15  C   UNL     1      -4.280 -10.188  16.821  0.00  0.00    +0.067 A 
ATOM     16  C   UNL     1      -3.670 -11.066  15.941  0.00  0.00    +0.214 A 
BRANCH  16   3
ATOM      3  O   UNL     1      -2.636 -10.614  15.163  0.00  0.00    -0.480 OA
ATOM     17  C   UNL     1      -1.339 -10.637  15.747  0.00  0.00    +0.279 C 
ENDBRANCH  16   3
ENDBRANCH   9  12
ENDBRANCH   4   9
TORSDOF 4
ENDMDL
MODEL 9
REMARK VINA RESULT:      -4.6     32.780     33.931
REMARK  Name = 75536960
REMARK  5 active torsions:
REMARK  status: ('A' for Active; 'I' for Inactive)
REMARK    1  A    between atoms: O_2  and  C_7
REMARK    2  A    between atoms: O_3  and  C_16
REMARK    3  A    between atoms: O_3  and  C_17
REMARK    4  A    between atoms: N_4  and  C_9
REMARK    5  A    between atoms: C_9  and  C_12
REMARK                            x       y       z     vdW  Elec       q    Type
REMARK                         _______ _______ _______ _____ _____    ______ ____
ROOT
ATOM      1  O   UNL     1       1.744 -12.060  -7.041  0.00  0.00    -0.376 OA
ATOM      4  N   UNL     1       1.617 -13.600  -4.332  0.00  0.00    -0.293 NA
ATOM      6  C   UNL     1       1.309 -12.252  -3.843  0.00  0.00    +0.118 C 
ATOM      7  C   UNL     1       1.201 -11.120  -4.877  0.00  0.00    +0.154 C 
ATOM      8  C   UNL     1       0.995 -13.934  -5.614  0.00  0.00    +0.113 C 
ATOM     10  C   UNL     1       2.218 -11.204  -6.007  0.00  0.00    +0.192 C 
ATOM     11  C   UNL     1       1.877 -13.447  -6.764  0.00  0.00    +0.175 C 
ENDROOT
BRANCH   7   2
ATOM      2  O   UNL     1       1.397  -9.878  -4.199  0.00  0.00    -0.388 OA
ATOM     18  H   UNL     1       1.631  -9.213  -4.869  0.00  0.00    +0.210 HD
ENDBRANCH   7   2
BRANCH   4   9
ATOM      9  C   UNL     1       1.297 -14.593  -3.306  0.00  0.00    +0.121 C 
BRANCH   9  12
ATOM      5  N   UNL     1       3.071 -14.692   0.037  0.00  0.00    -0.221 NA
ATOM     12  C   UNL     1       2.396 -14.719  -2.285  0.00  0.00    -0.015 A 
ATOM     13  C   UNL     1       3.708 -14.971  -2.670  0.00  0.00    +0.011 A 
ATOM     14  C   UNL     1       2.131 -14.590  -0.931  0.00  0.00    +0.119 A 
ATOM     15  C   UNL     1       4.701 -15.083  -1.704  0.00  0.00    +0.067 A 
ATOM     16  C   UNL     1       4.334 -14.937  -0.377  0.00  0.00    +0.214 A 
BRANCH  16   3
ATOM      3  O   UNL     1       5.295 -15.043   0.594  0.00  0.00    -0.480 OA
ATOM     17  C   UNL     1       5.001 -15.894   1.695  0.00  0.00    +0.279 C 
ENDBRANCH  16   3
ENDBRANCH   9  12
ENDBRANCH   4   9
TORSDOF 4
ENDMDL
MODEL 10
REMARK VINA RESULT:      -4.6     26.247     28.507
REMARK  Name = 75536960
REMARK  5 active torsions:
REMARK  status: ('A' for Active; 'I' for Inactive)
REMARK    1  A    between atoms: O_2  and  C_7
REMARK    2  A    between atoms: O_3  and  C_16
REMARK    3  A    between atoms: O_3  and  C_17
REMARK    4  A    between atoms: N_4  and  C_9
REMARK    5  A    between atoms: C_9  and  C_12
REMARK                            x       y       z     vdW  Elec       q    Type
REMARK                         _______ _______ _______ _____ _____    ______ ____
ROOT
ATOM      1  O   UNL     1     -11.396  -9.040  14.843  0.00  0.00    -0.376 OA
ATOM      4  N   UNL     1      -9.206  -9.382  17.037  0.00  0.00    -0.293 NA
ATOM      6  C   UNL     1      -9.716  -8.064  17.427  0.00  0.00    +0.118 C 
ATOM      7  C   UNL     1     -10.896  -7.486  16.629  0.00  0.00    +0.154 C 
ATOM      8  C   UNL     1     -10.239 -10.326  16.608  0.00  0.00    +0.113 C 
ATOM     10  C   UNL     1     -10.839  -7.763  15.134  0.00  0.00    +0.192 C 
ATOM     11  C   UNL     1     -10.535 -10.136  15.120  0.00  0.00    +0.175 C 
ENDROOT
BRANCH   7   2
ATOM      2  O   UNL     1     -10.907  -6.069  16.815  0.00  0.00    -0.388 OA
ATOM     18  H   UNL     1     -10.071  -5.825  17.248  0.00  0.00    +0.210 HD
ENDBRANCH   7   2
BRANCH   4   9
ATOM      9  C   UNL     1      -8.382  -9.941  18.109  0.00  0.00    +0.121 C 
BRANCH   9  12
ATOM      5  N   UNL     1      -5.237  -9.789  16.008  0.00  0.00    -0.221 NA
ATOM     12  C   UNL     1      -6.951 -10.123  17.680  0.00  0.00    -0.015 A 
ATOM     13  C   UNL     1      -6.031 -10.763  18.504  0.00  0.00    +0.011 A 
ATOM     14  C   UNL     1      -6.508  -9.658  16.453  0.00  0.00    +0.119 A 
ATOM     15  C   UNL     1      -4.715 -10.916  18.081  0.00  0.00    +0.067 A 
ATOM     16  C   UNL     1      -4.373 -10.416  16.835  0.00  0.00    +0.214 A 
BRANCH  16   3
ATOM      3  O   UNL     1      -3.082 -10.555  16.396  0.00  0.00    -0.480 OA
ATOM     17  C   UNL     1      -2.906 -11.041  15.071  0.00  0.00    +0.279 C 
ENDBRANCH  16   3
ENDBRANCH   9  12
ENDBRANCH   4   9
TORSDOF 4
ENDMDL
