MODEL 1
REMARK VINA RESULT:      -5.6      0.000      0.000
REMARK  Name = 75536845
REMARK  7 active torsions:
REMARK  status: ('A' for Active; 'I' for Inactive)
REMARK    1  A    between atoms: O_2  and  C_8
REMARK    2  A    between atoms: O_3  and  C_11
REMARK    3  A    between atoms: N_5  and  C_7
REMARK    4  A    between atoms: N_6  and  C_13
REMARK    5  A    between atoms: C_9  and  C_11
REMARK    6  A    between atoms: C_13  and  C_14
REMARK    7  A    between atoms: C_13  and  C_15
REMARK                            x       y       z     vdW  Elec       q    Type
REMARK                         _______ _______ _______ _____ _____    ______ ____
ROOT
ATOM      1  O   UNL     1      11.055   8.098  20.210  0.00  0.00    -0.370 OA
ATOM      7  C   UNL     1      12.667   6.396  20.519  0.00  0.00    +0.131 C 
ATOM      8  C   UNL     1      11.555   6.164  21.522  0.00  0.00    +0.168 C 
ATOM      9  C   UNL     1      10.677   7.409  21.416  0.00  0.00    +0.174 C 
ATOM     10  C   UNL     1      12.004   7.298  19.496  0.00  0.00    +0.185 C 
ENDROOT
BRANCH   7   5
ATOM      4  O   UNL     1      15.350   6.498  19.465  0.00  0.00    -0.253 OA
ATOM      5  N   UNL     1      13.813   7.033  21.119  0.00  0.00    -0.292 N 
ATOM      6  N   UNL     1      16.000   7.719  21.327  0.00  0.00    -0.297 N 
ATOM     12  C   UNL     1      15.080   7.033  20.538  0.00  0.00    +0.300 C 
ATOM     16  H   UNL     1      13.708   7.452  22.039  0.00  0.00    +0.151 HD
ATOM     18  H   UNL     1      15.663   8.192  22.160  0.00  0.00    +0.150 HD
BRANCH   6  13
ATOM     13  C   UNL     1      17.388   7.870  20.959  0.00  0.00    +0.068 C 
ATOM     14  C   UNL     1      18.182   6.636  21.369  0.00  0.00    +0.027 C 
ATOM     15  C   UNL     1      17.970   9.133  21.579  0.00  0.00    +0.027 C 
ENDBRANCH   6  13
ENDBRANCH   7   5
BRANCH   8   2
ATOM      2  O   UNL     1      10.808   5.025  21.091  0.00  0.00    -0.387 OA
ATOM     17  H   UNL     1      10.913   4.337  21.771  0.00  0.00    +0.210 HD
ENDBRANCH   8   2
BRANCH   9  11
ATOM     11  C   UNL     1      10.858   8.372  22.581  0.00  0.00    +0.190 C 
BRANCH  11   3
ATOM      3  O   UNL     1      12.203   8.823  22.593  0.00  0.00    -0.392 OA
ATOM     19  H   UNL     1      12.760   8.054  22.798  0.00  0.00    +0.210 HD
ENDBRANCH  11   3
ENDBRANCH   9  11
TORSDOF 5
ENDMDL
MODEL 2
REMARK VINA RESULT:      -5.4      3.060      5.204
REMARK  Name = 75536845
REMARK  7 active torsions:
REMARK  status: ('A' for Active; 'I' for Inactive)
REMARK    1  A    between atoms: O_2  and  C_8
REMARK    2  A    between atoms: O_3  and  C_11
REMARK    3  A    between atoms: N_5  and  C_7
REMARK    4  A    between atoms: N_6  and  C_13
REMARK    5  A    between atoms: C_9  and  C_11
REMARK    6  A    between atoms: C_13  and  C_14
REMARK    7  A    between atoms: C_13  and  C_15
REMARK                            x       y       z     vdW  Elec       q    Type
REMARK                         _______ _______ _______ _____ _____    ______ ____
ROOT
ATOM      1  O   UNL     1      11.729   6.298  21.420  0.00  0.00    -0.370 OA
ATOM      7  C   UNL     1      10.641   8.375  21.719  0.00  0.00    +0.131 C 
ATOM      8  C   UNL     1      11.498   8.480  20.473  0.00  0.00    +0.168 C 
ATOM      9  C   UNL     1      12.329   7.198  20.472  0.00  0.00    +0.174 C 
ATOM     10  C   UNL     1      10.512   6.876  21.905  0.00  0.00    +0.185 C 
ENDROOT
BRANCH   7   5
ATOM      4  O   UNL     1      10.874  11.201  22.253  0.00  0.00    -0.253 OA
ATOM      5  N   UNL     1      11.267   8.996  22.860  0.00  0.00    -0.292 N 
ATOM      6  N   UNL     1      11.992  10.702  24.224  0.00  0.00    -0.297 N 
ATOM     12  C   UNL     1      11.336  10.376  23.039  0.00  0.00    +0.300 C 
ATOM     16  H   UNL     1      11.734   8.401  23.539  0.00  0.00    +0.151 HD
ATOM     18  H   UNL     1      12.270   9.948  24.845  0.00  0.00    +0.150 HD
BRANCH   6  13
ATOM     13  C   UNL     1      12.201  12.065  24.653  0.00  0.00    +0.068 C 
ATOM     14  C   UNL     1      13.481  12.172  25.472  0.00  0.00    +0.027 C 
ATOM     15  C   UNL     1      10.999  12.568  25.440  0.00  0.00    +0.027 C 
ENDBRANCH   6  13
ENDBRANCH   7   5
BRANCH   8   2
ATOM      2  O   UNL     1      10.627   8.476  19.341  0.00  0.00    -0.387 OA
ATOM     17  H   UNL     1      10.128   7.642  19.363  0.00  0.00    +0.210 HD
ENDBRANCH   8   2
BRANCH   9  11
ATOM     11  C   UNL     1      13.776   7.420  20.889  0.00  0.00    +0.190 C 
BRANCH  11   3
ATOM      3  O   UNL     1      14.433   6.165  20.936  0.00  0.00    -0.392 OA
ATOM     19  H   UNL     1      15.215   6.229  20.361  0.00  0.00    +0.210 HD
ENDBRANCH  11   3
ENDBRANCH   9  11
TORSDOF 5
ENDMDL
MODEL 3
REMARK VINA RESULT:      -5.0      2.419      5.025
REMARK  Name = 75536845
REMARK  7 active torsions:
REMARK  status: ('A' for Active; 'I' for Inactive)
REMARK    1  A    between atoms: O_2  and  C_8
REMARK    2  A    between atoms: O_3  and  C_11
REMARK    3  A    between atoms: N_5  and  C_7
REMARK    4  A    between atoms: N_6  and  C_13
REMARK    5  A    between atoms: C_9  and  C_11
REMARK    6  A    between atoms: C_13  and  C_14
REMARK    7  A    between atoms: C_13  and  C_15
REMARK                            x       y       z     vdW  Elec       q    Type
REMARK                         _______ _______ _______ _____ _____    ______ ____
ROOT
ATOM      1  O   UNL     1      14.890   7.212  19.696  0.00  0.00    -0.370 OA
ATOM      7  C   UNL     1      13.040   7.187  21.167  0.00  0.00    +0.131 C 
ATOM      8  C   UNL     1      12.501   7.186  19.751  0.00  0.00    +0.168 C 
ATOM      9  C   UNL     1      13.729   7.427  18.874  0.00  0.00    +0.174 C 
ATOM     10  C   UNL     1      14.471   6.724  20.975  0.00  0.00    +0.185 C 
ENDROOT
BRANCH   7   5
ATOM      4  O   UNL     1      10.743   8.460  22.362  0.00  0.00    -0.253 OA
ATOM      5  N   UNL     1      12.986   8.497  21.766  0.00  0.00    -0.292 N 
ATOM      6  N   UNL     1      12.057  10.314  22.831  0.00  0.00    -0.297 N 
ATOM     12  C   UNL     1      11.828   9.038  22.323  0.00  0.00    +0.300 C 
ATOM     16  H   UNL     1      13.817   9.081  21.730  0.00  0.00    +0.151 HD
ATOM     18  H   UNL     1      13.006  10.674  22.820  0.00  0.00    +0.150 HD
BRANCH   6  13
ATOM     13  C   UNL     1      11.024  11.101  23.463  0.00  0.00    +0.068 C 
ATOM     14  C   UNL     1      10.914  12.465  22.794  0.00  0.00    +0.027 C 
ATOM     15  C   UNL     1      11.297  11.239  24.955  0.00  0.00    +0.027 C 
ENDBRANCH   6  13
ENDBRANCH   7   5
BRANCH   8   2
ATOM      2  O   UNL     1      11.979   5.885  19.481  0.00  0.00    -0.387 OA
ATOM     17  H   UNL     1      12.008   5.755  18.518  0.00  0.00    +0.210 HD
ENDBRANCH   8   2
BRANCH   9  11
ATOM     11  C   UNL     1      13.803   8.843  18.321  0.00  0.00    +0.190 C 
BRANCH  11   3
ATOM      3  O   UNL     1      12.697   9.582  18.812  0.00  0.00    -0.392 OA
ATOM     19  H   UNL     1      12.679  10.426  18.329  0.00  0.00    +0.210 HD
ENDBRANCH  11   3
ENDBRANCH   9  11
TORSDOF 5
ENDMDL
MODEL 4
REMARK VINA RESULT:      -4.8     24.761     25.961
REMARK  Name = 75536845
REMARK  7 active torsions:
REMARK  status: ('A' for Active; 'I' for Inactive)
REMARK    1  A    between atoms: O_2  and  C_8
REMARK    2  A    between atoms: O_3  and  C_11
REMARK    3  A    between atoms: N_5  and  C_7
REMARK    4  A    between atoms: N_6  and  C_13
REMARK    5  A    between atoms: C_9  and  C_11
REMARK    6  A    between atoms: C_13  and  C_14
REMARK    7  A    between atoms: C_13  and  C_15
REMARK                            x       y       z     vdW  Elec       q    Type
REMARK                         _______ _______ _______ _____ _____    ______ ____
ROOT
ATOM      1  O   UNL     1     -12.186   9.641  13.979  0.00  0.00    -0.370 OA
ATOM      7  C   UNL     1     -10.493   8.523  15.192  0.00  0.00    +0.131 C 
ATOM      8  C   UNL     1     -10.793   7.699  13.956  0.00  0.00    +0.168 C 
ATOM      9  C   UNL     1     -12.032   8.356  13.351  0.00  0.00    +0.174 C 
ATOM     10  C   UNL     1     -11.057   9.882  14.827  0.00  0.00    +0.185 C 
ENDROOT
BRANCH   7   5
ATOM      4  O   UNL     1      -9.852   9.119  17.941  0.00  0.00    -0.253 OA
ATOM      5  N   UNL     1     -11.129   7.986  16.369  0.00  0.00    -0.292 N 
ATOM      6  N   UNL     1     -11.533   7.668  18.612  0.00  0.00    -0.297 N 
ATOM     12  C   UNL     1     -10.754   8.330  17.666  0.00  0.00    +0.300 C 
ATOM     16  H   UNL     1     -11.847   7.277  16.250  0.00  0.00    +0.151 HD
ATOM     18  H   UNL     1     -12.305   7.094  18.285  0.00  0.00    +0.150 HD
BRANCH   6  13
ATOM     13  C   UNL     1     -11.354   7.843  20.034  0.00  0.00    +0.068 C 
ATOM     14  C   UNL     1     -11.867   6.622  20.787  0.00  0.00    +0.027 C 
ATOM     15  C   UNL     1     -12.047   9.114  20.507  0.00  0.00    +0.027 C 
ENDBRANCH   6  13
ENDBRANCH   7   5
BRANCH   8   2
ATOM      2  O   UNL     1      -9.695   7.845  13.054  0.00  0.00    -0.387 OA
ATOM     17  H   UNL     1     -10.053   8.180  12.215  0.00  0.00    +0.210 HD
ENDBRANCH   8   2
BRANCH   9  11
ATOM     11  C   UNL     1     -13.309   7.564  13.589  0.00  0.00    +0.190 C 
BRANCH  11   3
ATOM      3  O   UNL     1     -13.089   6.218  13.200  0.00  0.00    -0.392 OA
ATOM     19  H   UNL     1     -12.376   5.871  13.762  0.00  0.00    +0.210 HD
ENDBRANCH  11   3
ENDBRANCH   9  11
TORSDOF 5
ENDMDL
MODEL 5
REMARK VINA RESULT:      -4.8     14.785     16.356
REMARK  Name = 75536845
REMARK  7 active torsions:
REMARK  status: ('A' for Active; 'I' for Inactive)
REMARK    1  A    between atoms: O_2  and  C_8
REMARK    2  A    between atoms: O_3  and  C_11
REMARK    3  A    between atoms: N_5  and  C_7
REMARK    4  A    between atoms: N_6  and  C_13
REMARK    5  A    between atoms: C_9  and  C_11
REMARK    6  A    between atoms: C_13  and  C_14
REMARK    7  A    between atoms: C_13  and  C_15
REMARK                            x       y       z     vdW  Elec       q    Type
REMARK                         _______ _______ _______ _____ _____    ______ ____
ROOT
ATOM      1  O   UNL     1      11.406   5.897   8.440  0.00  0.00    -0.370 OA
ATOM      7  C   UNL     1      10.616   6.520   6.301  0.00  0.00    +0.131 C 
ATOM      8  C   UNL     1       9.426   6.489   7.240  0.00  0.00    +0.168 C 
ATOM      9  C   UNL     1       9.970   5.871   8.526  0.00  0.00    +0.174 C 
ATOM     10  C   UNL     1      11.788   6.610   7.258  0.00  0.00    +0.185 C 
ENDROOT
BRANCH   7   5
ATOM      4  O   UNL     1      11.239   6.383   3.487  0.00  0.00    -0.253 OA
ATOM      5  N   UNL     1      10.692   5.334   5.485  0.00  0.00    -0.292 N 
ATOM      6  N   UNL     1      11.006   4.077   3.583  0.00  0.00    -0.297 N 
ATOM     12  C   UNL     1      11.000   5.359   4.125  0.00  0.00    +0.300 C 
ATOM     16  H   UNL     1      10.451   4.441   5.904  0.00  0.00    +0.151 HD
ATOM     18  H   UNL     1      10.873   3.288   4.208  0.00  0.00    +0.150 HD
BRANCH   6  13
ATOM     13  C   UNL     1      11.296   3.817   2.192  0.00  0.00    +0.068 C 
ATOM     14  C   UNL     1      12.707   4.278   1.850  0.00  0.00    +0.027 C 
ATOM     15  C   UNL     1      10.263   4.490   1.297  0.00  0.00    +0.027 C 
ENDBRANCH   6  13
ENDBRANCH   7   5
BRANCH   8   2
ATOM      2  O   UNL     1       9.036   7.839   7.495  0.00  0.00    -0.387 OA
ATOM     17  H   UNL     1       8.095   7.917   7.262  0.00  0.00    +0.210 HD
ENDBRANCH   8   2
BRANCH   9  11
ATOM     11  C   UNL     1       9.540   4.425   8.726  0.00  0.00    +0.190 C 
BRANCH  11   3
ATOM      3  O   UNL     1      10.411   3.585   7.986  0.00  0.00    -0.392 OA
ATOM     19  H   UNL     1      11.139   3.334   8.580  0.00  0.00    +0.210 HD
ENDBRANCH  11   3
ENDBRANCH   9  11
TORSDOF 5
ENDMDL
MODEL 6
REMARK VINA RESULT:      -4.7      3.280      5.538
REMARK  Name = 75536845
REMARK  7 active torsions:
REMARK  status: ('A' for Active; 'I' for Inactive)
REMARK    1  A    between atoms: O_2  and  C_8
REMARK    2  A    between atoms: O_3  and  C_11
REMARK    3  A    between atoms: N_5  and  C_7
REMARK    4  A    between atoms: N_6  and  C_13
REMARK    5  A    between atoms: C_9  and  C_11
REMARK    6  A    between atoms: C_13  and  C_14
REMARK    7  A    between atoms: C_13  and  C_15
REMARK                            x       y       z     vdW  Elec       q    Type
REMARK                         _______ _______ _______ _____ _____    ______ ____
ROOT
ATOM      1  O   UNL     1      13.804   8.698  19.481  0.00  0.00    -0.370 OA
ATOM      7  C   UNL     1      12.710   8.573  21.573  0.00  0.00    +0.131 C 
ATOM      8  C   UNL     1      12.191   7.437  20.715  0.00  0.00    +0.168 C 
ATOM      9  C   UNL     1      12.766   7.713  19.327  0.00  0.00    +0.174 C 
ATOM     10  C   UNL     1      14.004   8.948  20.877  0.00  0.00    +0.185 C 
ENDROOT
BRANCH   7   5
ATOM      4  O   UNL     1      12.977  10.996  23.118  0.00  0.00    -0.253 OA
ATOM      5  N   UNL     1      11.792   9.684  21.613  0.00  0.00    -0.292 N 
ATOM      6  N   UNL     1      10.961  11.737  22.242  0.00  0.00    -0.297 N 
ATOM     12  C   UNL     1      12.000  10.822  22.392  0.00  0.00    +0.300 C 
ATOM     16  H   UNL     1      10.921   9.612  21.095  0.00  0.00    +0.151 HD
ATOM     18  H   UNL     1      10.236  11.535  21.560  0.00  0.00    +0.150 HD
BRANCH   6  13
ATOM     13  C   UNL     1      10.926  13.002  22.937  0.00  0.00    +0.068 C 
ATOM     14  C   UNL     1      10.339  12.823  24.332  0.00  0.00    +0.027 C 
ATOM     15  C   UNL     1      10.139  14.030  22.135  0.00  0.00    +0.027 C 
ENDBRANCH   6  13
ENDBRANCH   7   5
BRANCH   8   2
ATOM      2  O   UNL     1      12.743   6.220  21.219  0.00  0.00    -0.387 OA
ATOM     17  H   UNL     1      12.372   6.080  22.107  0.00  0.00    +0.210 HD
ENDBRANCH   8   2
BRANCH   9  11
ATOM     11  C   UNL     1      11.738   8.266  18.351  0.00  0.00    +0.190 C 
BRANCH  11   3
ATOM      3  O   UNL     1      10.531   8.515  19.053  0.00  0.00    -0.392 OA
ATOM     19  H   UNL     1      10.698   9.263  19.652  0.00  0.00    +0.210 HD
ENDBRANCH  11   3
ENDBRANCH   9  11
TORSDOF 5
ENDMDL
MODEL 7
REMARK VINA RESULT:      -4.5     32.421     34.046
REMARK  Name = 75536845
REMARK  7 active torsions:
REMARK  status: ('A' for Active; 'I' for Inactive)
REMARK    1  A    between atoms: O_2  and  C_8
REMARK    2  A    between atoms: O_3  and  C_11
REMARK    3  A    between atoms: N_5  and  C_7
REMARK    4  A    between atoms: N_6  and  C_13
REMARK    5  A    between atoms: C_9  and  C_11
REMARK    6  A    between atoms: C_13  and  C_14
REMARK    7  A    between atoms: C_13  and  C_15
REMARK                            x       y       z     vdW  Elec       q    Type
REMARK                         _______ _______ _______ _____ _____    ______ ____
ROOT
ATOM      1  O   UNL     1       2.756 -12.207  -6.098  0.00  0.00    -0.370 OA
ATOM      7  C   UNL     1       1.324 -13.374  -4.624  0.00  0.00    +0.131 C 
ATOM      8  C   UNL     1       0.570 -12.163  -5.135  0.00  0.00    +0.168 C 
ATOM      9  C   UNL     1       1.618 -11.350  -5.892  0.00  0.00    +0.174 C 
ATOM     10  C   UNL     1       2.433 -13.527  -5.646  0.00  0.00    +0.185 C 
ENDROOT
BRANCH   7   5
ATOM      4  O   UNL     1       2.345 -15.380  -2.820  0.00  0.00    -0.253 OA
ATOM      5  N   UNL     1       1.853 -13.163  -3.300  0.00  0.00    -0.292 N 
ATOM      6  N   UNL     1       2.780 -13.713  -1.266  0.00  0.00    -0.297 N 
ATOM     12  C   UNL     1       2.327 -14.196  -2.491  0.00  0.00    +0.300 C 
ATOM     16  H   UNL     1       1.826 -12.225  -2.911  0.00  0.00    +0.151 HD
ATOM     18  H   UNL     1       2.795 -12.709  -1.119  0.00  0.00    +0.150 HD
BRANCH   6  13
ATOM     13  C   UNL     1       3.323 -14.572  -0.240  0.00  0.00    +0.068 C 
ATOM     14  C   UNL     1       2.712 -14.231   1.114  0.00  0.00    +0.027 C 
ATOM     15  C   UNL     1       4.841 -14.466  -0.203  0.00  0.00    +0.027 C 
ENDBRANCH   6  13
ENDBRANCH   7   5
BRANCH   8   2
ATOM      2  O   UNL     1      -0.423 -12.621  -6.054  0.00  0.00    -0.387 OA
ATOM     17  H   UNL     1      -1.285 -12.318  -5.722  0.00  0.00    +0.210 HD
ENDBRANCH   8   2
BRANCH   9  11
ATOM     11  C   UNL     1       2.091 -10.121  -5.129  0.00  0.00    +0.190 C 
BRANCH  11   3
ATOM      3  O   UNL     1       1.293  -9.972  -3.966  0.00  0.00    -0.392 OA
ATOM     19  H   UNL     1       1.560  -9.140  -3.540  0.00  0.00    +0.210 HD
ENDBRANCH  11   3
ENDBRANCH   9  11
TORSDOF 5
ENDMDL
MODEL 8
REMARK VINA RESULT:      -4.5     24.745     26.732
REMARK  Name = 75536845
REMARK  7 active torsions:
REMARK  status: ('A' for Active; 'I' for Inactive)
REMARK    1  A    between atoms: O_2  and  C_8
REMARK    2  A    between atoms: O_3  and  C_11
REMARK    3  A    between atoms: N_5  and  C_7
REMARK    4  A    between atoms: N_6  and  C_13
REMARK    5  A    between atoms: C_9  and  C_11
REMARK    6  A    between atoms: C_13  and  C_14
REMARK    7  A    between atoms: C_13  and  C_15
REMARK                            x       y       z     vdW  Elec       q    Type
REMARK                         _______ _______ _______ _____ _____    ______ ____
ROOT
ATOM      1  O   UNL     1      -8.279 -11.248  16.976  0.00  0.00    -0.370 OA
ATOM      7  C   UNL     1      -6.220 -11.085  18.126  0.00  0.00    +0.131 C 
ATOM      8  C   UNL     1      -7.172 -10.082  18.745  0.00  0.00    +0.168 C 
ATOM      9  C   UNL     1      -8.387 -10.086  17.819  0.00  0.00    +0.174 C 
ATOM     10  C   UNL     1      -7.160 -12.032  17.407  0.00  0.00    +0.185 C 
ENDROOT
BRANCH   7   5
ATOM      4  O   UNL     1      -3.950 -12.316  16.839  0.00  0.00    -0.253 OA
ATOM      5  N   UNL     1      -5.297 -10.463  17.211  0.00  0.00    -0.292 N 
ATOM      6  N   UNL     1      -3.494 -10.299  15.789  0.00  0.00    -0.297 N 
ATOM     12  C   UNL     1      -4.221 -11.135  16.633  0.00  0.00    +0.300 C 
ATOM     16  H   UNL     1      -5.398  -9.470  17.021  0.00  0.00    +0.151 HD
ATOM     18  H   UNL     1      -3.842  -9.359  15.624  0.00  0.00    +0.150 HD
BRANCH   6  13
ATOM     13  C   UNL     1      -2.327 -10.743  15.063  0.00  0.00    +0.068 C 
ATOM     14  C   UNL     1      -1.075 -10.068  15.609  0.00  0.00    +0.027 C 
ATOM     15  C   UNL     1      -2.493 -10.476  13.573  0.00  0.00    +0.027 C 
ENDBRANCH   6  13
ENDBRANCH   7   5
BRANCH   8   2
ATOM      2  O   UNL     1      -7.557 -10.577  20.028  0.00  0.00    -0.387 OA
ATOM     17  H   UNL     1      -7.239  -9.941  20.691  0.00  0.00    +0.210 HD
ENDBRANCH   8   2
BRANCH   9  11
ATOM     11  C   UNL     1      -8.461  -8.862  16.919  0.00  0.00    +0.190 C 
BRANCH  11   3
ATOM      3  O   UNL     1      -7.703  -9.112  15.747  0.00  0.00    -0.392 OA
ATOM     19  H   UNL     1      -8.301  -9.528  15.103  0.00  0.00    +0.210 HD
ENDBRANCH  11   3
ENDBRANCH   9  11
TORSDOF 5
ENDMDL
MODEL 9
REMARK VINA RESULT:      -4.5     25.101     26.335
REMARK  Name = 75536845
REMARK  7 active torsions:
REMARK  status: ('A' for Active; 'I' for Inactive)
REMARK    1  A    between atoms: O_2  and  C_8
REMARK    2  A    between atoms: O_3  and  C_11
REMARK    3  A    between atoms: N_5  and  C_7
REMARK    4  A    between atoms: N_6  and  C_13
REMARK    5  A    between atoms: C_9  and  C_11
REMARK    6  A    between atoms: C_13  and  C_14
REMARK    7  A    between atoms: C_13  and  C_15
REMARK                            x       y       z     vdW  Elec       q    Type
REMARK                         _______ _______ _______ _____ _____    ______ ____
ROOT
ATOM      1  O   UNL     1      -4.295 -12.529  16.187  0.00  0.00    -0.370 OA
ATOM      7  C   UNL     1      -2.817 -11.455  14.687  0.00  0.00    +0.131 C 
ATOM      8  C   UNL     1      -2.733 -10.729  16.015  0.00  0.00    +0.168 C 
ATOM      9  C   UNL     1      -3.862 -11.329  16.851  0.00  0.00    +0.174 C 
ATOM     10  C   UNL     1      -3.426 -12.787  15.078  0.00  0.00    +0.185 C 
ENDROOT
BRANCH   7   5
ATOM      4  O   UNL     1      -2.131 -10.726  11.981  0.00  0.00    -0.253 OA
ATOM      5  N   UNL     1      -3.647 -10.755  13.739  0.00  0.00    -0.292 N 
ATOM      6  N   UNL     1      -4.229  -9.765  11.744  0.00  0.00    -0.297 N 
ATOM     12  C   UNL     1      -3.234 -10.441  12.445  0.00  0.00    +0.300 C 
ATOM     16  H   UNL     1      -4.556 -10.420  14.045  0.00  0.00    +0.151 HD
ATOM     18  H   UNL     1      -5.134  -9.644  12.188  0.00  0.00    +0.150 HD
BRANCH   6  13
ATOM     13  C   UNL     1      -4.063  -9.322  10.380  0.00  0.00    +0.068 C 
ATOM     14  C   UNL     1      -5.061  -8.218  10.056  0.00  0.00    +0.027 C 
ATOM     15  C   UNL     1      -4.204 -10.494   9.417  0.00  0.00    +0.027 C 
ENDBRANCH   6  13
ENDBRANCH   7   5
BRANCH   8   2
ATOM      2  O   UNL     1      -1.478 -11.057  16.614  0.00  0.00    -0.387 OA
ATOM     17  H   UNL     1      -0.785 -10.624  16.088  0.00  0.00    +0.210 HD
ENDBRANCH   8   2
BRANCH   9  11
ATOM     11  C   UNL     1      -5.065 -10.407  16.983  0.00  0.00    +0.190 C 
BRANCH  11   3
ATOM      3  O   UNL     1      -5.010  -9.435  15.952  0.00  0.00    -0.392 OA
ATOM     19  H   UNL     1      -4.084  -9.381  15.660  0.00  0.00    +0.210 HD
ENDBRANCH  11   3
ENDBRANCH   9  11
TORSDOF 5
ENDMDL
MODEL 10
REMARK VINA RESULT:      -4.4     24.436     26.789
REMARK  Name = 75536845
REMARK  7 active torsions:
REMARK  status: ('A' for Active; 'I' for Inactive)
REMARK    1  A    between atoms: O_2  and  C_8
REMARK    2  A    between atoms: O_3  and  C_11
REMARK    3  A    between atoms: N_5  and  C_7
REMARK    4  A    between atoms: N_6  and  C_13
REMARK    5  A    between atoms: C_9  and  C_11
REMARK    6  A    between atoms: C_13  and  C_14
REMARK    7  A    between atoms: C_13  and  C_15
REMARK                            x       y       z     vdW  Elec       q    Type
REMARK                         _______ _______ _______ _____ _____    ______ ____
ROOT
ATOM      1  O   UNL     1      -1.525 -12.269  14.419  0.00  0.00    -0.370 OA
ATOM      7  C   UNL     1      -3.868 -12.022  14.607  0.00  0.00    +0.131 C 
ATOM      8  C   UNL     1      -3.293 -10.672  14.232  0.00  0.00    +0.168 C 
ATOM      9  C   UNL     1      -1.781 -10.855  14.348  0.00  0.00    +0.174 C 
ATOM     10  C   UNL     1      -2.755 -12.975  14.218  0.00  0.00    +0.185 C 
ENDROOT
BRANCH   7   5
ATOM      4  O   UNL     1      -6.228 -11.041  15.946  0.00  0.00    -0.253 OA
ATOM      5  N   UNL     1      -4.170 -12.111  16.014  0.00  0.00    -0.292 N 
ATOM      6  N   UNL     1      -5.375 -11.827  17.954  0.00  0.00    -0.297 N 
ATOM     12  C   UNL     1      -5.340 -11.607  16.580  0.00  0.00    +0.300 C 
ATOM     16  H   UNL     1      -3.470 -12.507  16.635  0.00  0.00    +0.151 HD
ATOM     18  H   UNL     1      -4.628 -12.372  18.375  0.00  0.00    +0.150 HD
BRANCH   6  13
ATOM     13  C   UNL     1      -6.476 -11.404  18.787  0.00  0.00    +0.068 C 
ATOM     14  C   UNL     1      -5.958 -10.806  20.088  0.00  0.00    +0.027 C 
ATOM     15  C   UNL     1      -7.422 -12.568  19.052  0.00  0.00    +0.027 C 
ENDBRANCH   6  13
ENDBRANCH   7   5
BRANCH   8   2
ATOM      2  O   UNL     1      -3.632 -10.414  12.869  0.00  0.00    -0.387 OA
ATOM     17  H   UNL     1      -4.315  -9.723  12.866  0.00  0.00    +0.210 HD
ENDBRANCH   8   2
BRANCH   9  11
ATOM     11  C   UNL     1      -1.192 -10.210  15.594  0.00  0.00    +0.190 C 
BRANCH  11   3
ATOM      3  O   UNL     1      -1.457 -11.046  16.708  0.00  0.00    -0.392 OA
ATOM     19  H   UNL     1      -2.086 -10.573  17.278  0.00  0.00    +0.210 HD
ENDBRANCH  11   3
ENDBRANCH   9  11
TORSDOF 5
ENDMDL
