MODEL 1
REMARK VINA RESULT:      -8.7      0.000      0.000
REMARK  Name = 7675081
REMARK  5 active torsions:
REMARK  status: ('A' for Active; 'I' for Inactive)
REMARK    1  A    between atoms: S_1  and  N_9
REMARK    2  A    between atoms: S_1  and  C_22
REMARK    3  A    between atoms: N_11  and  C_18
REMARK    4  A    between atoms: C_13  and  C_17
REMARK    5  A    between atoms: C_21  and  C_25
REMARK                            x       y       z     vdW  Elec       q    Type
REMARK                         _______ _______ _______ _____ _____    ______ ____
ROOT
ATOM      7  O   UNL     1      17.731   6.222  19.277  0.00  0.00    -0.270 OA
ATOM      9  N   UNL     1      13.275   8.099  20.791  0.00  0.00    -0.162 NA
ATOM     10  N   UNL     1      15.976   7.108  20.544  0.00  0.00    -0.294 N 
ATOM     13  C   UNL     1      13.748   7.533  19.498  0.00  0.00    +0.183 C 
ATOM     14  C   UNL     1      14.938   6.588  19.653  0.00  0.00    +0.138 C 
ATOM     15  C   UNL     1      14.031   7.649  21.989  0.00  0.00    +0.129 C 
ATOM     16  C   UNL     1      15.521   7.831  21.735  0.00  0.00    +0.125 C 
ATOM     21  C   UNL     1      17.318   6.826  20.266  0.00  0.00    +0.247 C 
ENDROOT
BRANCH  21  25
ATOM      3  F   UNL     1      20.916   5.898  23.384  0.00  0.00    -0.205 F 
ATOM     25  C   UNL     1      18.332   7.283  21.230  0.00  0.00    +0.040 A 
ATOM     28  C   UNL     1      19.160   6.356  21.862  0.00  0.00    +0.051 A 
ATOM     29  C   UNL     1      18.463   8.642  21.512  0.00  0.00    +0.013 A 
ATOM     33  C   UNL     1      20.120   6.789  22.777  0.00  0.00    +0.124 A 
ATOM     34  C   UNL     1      19.423   9.075  22.427  0.00  0.00    +0.004 A 
ATOM     35  C   UNL     1      20.251   8.148  23.059  0.00  0.00    +0.038 A 
ENDBRANCH  21  25
BRANCH  13  17
ATOM      4  O   UNL     1      15.157   9.344  18.853  0.00  0.00    -0.274 OA
ATOM     11  N   UNL     1      13.125   9.048  17.756  0.00  0.00    -0.303 N 
ATOM     17  C   UNL     1      14.108   8.730  18.678  0.00  0.00    +0.234 C 
ATOM     36  H   UNL     1      12.309   8.448  17.677  0.00  0.00    +0.149 HD
BRANCH  11  18
ATOM      8  O   UNL     1      13.852   8.575  15.164  0.00  0.00    -0.274 OA
ATOM     12  N   UNL     1      14.694  10.688  14.952  0.00  0.00    -0.314 N 
ATOM     18  C   UNL     1      13.219  10.172  16.861  0.00  0.00    +0.159 C 
ATOM     19  C   UNL     1      13.837  11.375  17.560  0.00  0.00    +0.033 C 
ATOM     20  C   UNL     1      14.084  12.482  16.550  0.00  0.00    +0.021 C 
ATOM     23  C   UNL     1      13.970   9.717  15.614  0.00  0.00    +0.233 C 
ATOM     24  C   UNL     1      15.056  11.984  15.496  0.00  0.00    +0.104 C 
ATOM     37  H   UNL     1      15.151  10.411  14.088  0.00  0.00    +0.149 HD
ENDBRANCH  11  18
ENDBRANCH  13  17
BRANCH   9   1
ATOM      1  S   UNL     1      11.584   8.266  20.986  0.00  0.00    +0.062 S 
ATOM      5  O   UNL     1      11.141   7.383  22.045  0.00  0.00    -0.153 OA
ATOM      6  O   UNL     1      10.955   8.240  19.682  0.00  0.00    -0.153 OA
BRANCH   1  22
ATOM      2  F   UNL     1      11.318  13.791  23.022  0.00  0.00    -0.205 F 
ATOM     22  C   UNL     1      11.504   9.920  21.595  0.00  0.00    +0.106 A 
ATOM     26  C   UNL     1      12.009  10.971  20.830  0.00  0.00    +0.031 A 
ATOM     27  C   UNL     1      10.937  10.177  22.844  0.00  0.00    +0.031 A 
ATOM     30  C   UNL     1      11.946  12.279  21.311  0.00  0.00    +0.040 A 
ATOM     31  C   UNL     1      10.874  11.484  23.326  0.00  0.00    +0.040 A 
ATOM     32  C   UNL     1      11.379  12.535  22.560  0.00  0.00    +0.124 A 
ENDBRANCH   1  22
ENDBRANCH   9   1
TORSDOF 5
ENDMDL
MODEL 2
REMARK VINA RESULT:      -8.1      1.657      2.469
REMARK  Name = 7675081
REMARK  5 active torsions:
REMARK  status: ('A' for Active; 'I' for Inactive)
REMARK    1  A    between atoms: S_1  and  N_9
REMARK    2  A    between atoms: S_1  and  C_22
REMARK    3  A    between atoms: N_11  and  C_18
REMARK    4  A    between atoms: C_13  and  C_17
REMARK    5  A    between atoms: C_21  and  C_25
REMARK                            x       y       z     vdW  Elec       q    Type
REMARK                         _______ _______ _______ _____ _____    ______ ____
ROOT
ATOM      7  O   UNL     1      17.410   6.268  19.078  0.00  0.00    -0.270 OA
ATOM      9  N   UNL     1      12.997   8.163  20.691  0.00  0.00    -0.162 NA
ATOM     10  N   UNL     1      15.682   7.144  20.387  0.00  0.00    -0.294 N 
ATOM     13  C   UNL     1      13.448   7.624  19.379  0.00  0.00    +0.183 C 
ATOM     14  C   UNL     1      14.626   6.661  19.497  0.00  0.00    +0.138 C 
ATOM     15  C   UNL     1      13.761   7.674  21.868  0.00  0.00    +0.129 C 
ATOM     16  C   UNL     1      15.250   7.844  21.602  0.00  0.00    +0.125 C 
ATOM     21  C   UNL     1      17.017   6.852  20.086  0.00  0.00    +0.247 C 
ENDROOT
BRANCH  21  25
ATOM      3  F   UNL     1      19.441  10.328  22.446  0.00  0.00    -0.205 F 
ATOM     25  C   UNL     1      18.047   7.272  21.049  0.00  0.00    +0.040 A 
ATOM     28  C   UNL     1      18.259   8.628  21.296  0.00  0.00    +0.051 A 
ATOM     29  C   UNL     1      18.812   6.313  21.713  0.00  0.00    +0.013 A 
ATOM     33  C   UNL     1      19.237   9.026  22.209  0.00  0.00    +0.124 A 
ATOM     34  C   UNL     1      19.790   6.711  22.626  0.00  0.00    +0.004 A 
ATOM     35  C   UNL     1      20.002   8.067  22.873  0.00  0.00    +0.038 A 
ENDBRANCH  21  25
BRANCH  13  17
ATOM      4  O   UNL     1      13.756   8.849  17.357  0.00  0.00    -0.274 OA
ATOM     11  N   UNL     1      14.230   9.884  19.388  0.00  0.00    -0.303 N 
ATOM     17  C   UNL     1      13.813   8.837  18.584  0.00  0.00    +0.234 C 
ATOM     36  H   UNL     1      14.207   9.771  20.398  0.00  0.00    +0.149 HD
BRANCH  11  18
ATOM      8  O   UNL     1      16.058  11.319  20.826  0.00  0.00    -0.274 OA
ATOM     12  N   UNL     1      15.308  13.283  19.932  0.00  0.00    -0.314 N 
ATOM     18  C   UNL     1      14.658  11.156  18.866  0.00  0.00    +0.159 C 
ATOM     19  C   UNL     1      13.489  11.913  18.252  0.00  0.00    +0.033 C 
ATOM     20  C   UNL     1      13.932  13.315  17.871  0.00  0.00    +0.021 C 
ATOM     23  C   UNL     1      15.374  11.905  19.986  0.00  0.00    +0.233 C 
ATOM     24  C   UNL     1      14.382  14.050  19.120  0.00  0.00    +0.104 C 
ATOM     37  H   UNL     1      15.829  13.794  20.639  0.00  0.00    +0.149 HD
ENDBRANCH  11  18
ENDBRANCH  13  17
BRANCH   9   1
ATOM      1  S   UNL     1      11.311   8.347  20.910  0.00  0.00    +0.062 S 
ATOM      5  O   UNL     1      10.833   7.304  21.794  0.00  0.00    -0.153 OA
ATOM      6  O   UNL     1      10.690   8.574  19.622  0.00  0.00    -0.153 OA
BRANCH   1  22
ATOM      2  F   UNL     1      11.199  13.427  23.897  0.00  0.00    -0.205 F 
ATOM     22  C   UNL     1      11.278   9.868  21.804  0.00  0.00    +0.106 A 
ATOM     26  C   UNL     1      10.852   9.887  23.132  0.00  0.00    +0.031 A 
ATOM     27  C   UNL     1      11.676  11.052  21.183  0.00  0.00    +0.031 A 
ATOM     30  C   UNL     1      10.825  11.090  23.839  0.00  0.00    +0.040 A 
ATOM     31  C   UNL     1      11.649  12.254  21.889  0.00  0.00    +0.040 A 
ATOM     32  C   UNL     1      11.224  12.273  23.217  0.00  0.00    +0.124 A 
ENDBRANCH   1  22
ENDBRANCH   9   1
TORSDOF 5
ENDMDL
MODEL 3
REMARK VINA RESULT:      -7.6     28.020     29.863
REMARK  Name = 7675081
REMARK  5 active torsions:
REMARK  status: ('A' for Active; 'I' for Inactive)
REMARK    1  A    between atoms: S_1  and  N_9
REMARK    2  A    between atoms: S_1  and  C_22
REMARK    3  A    between atoms: N_11  and  C_18
REMARK    4  A    between atoms: C_13  and  C_17
REMARK    5  A    between atoms: C_21  and  C_25
REMARK                            x       y       z     vdW  Elec       q    Type
REMARK                         _______ _______ _______ _____ _____    ______ ____
ROOT
ATOM      7  O   UNL     1      -3.570 -13.517  12.561  0.00  0.00    -0.270 OA
ATOM      9  N   UNL     1      -5.683 -11.468  16.686  0.00  0.00    -0.162 NA
ATOM     10  N   UNL     1      -4.210 -12.057  14.273  0.00  0.00    -0.294 N 
ATOM     13  C   UNL     1      -5.683 -12.848  16.127  0.00  0.00    +0.183 C 
ATOM     14  C   UNL     1      -4.486 -13.133  15.225  0.00  0.00    +0.138 C 
ATOM     15  C   UNL     1      -4.531 -10.624  16.274  0.00  0.00    +0.129 C 
ATOM     16  C   UNL     1      -4.384 -10.685  14.761  0.00  0.00    +0.125 C 
ATOM     21  C   UNL     1      -3.727 -12.378  12.999  0.00  0.00    +0.247 C 
ENDROOT
BRANCH  21  25
ATOM      3  F   UNL     1      -0.523  -9.142  11.330  0.00  0.00    -0.205 F 
ATOM     25  C   UNL     1      -3.371 -11.271  12.098  0.00  0.00    +0.040 A 
ATOM     28  C   UNL     1      -2.090 -10.721  12.142  0.00  0.00    +0.051 A 
ATOM     29  C   UNL     1      -4.315 -10.771  11.201  0.00  0.00    +0.013 A 
ATOM     33  C   UNL     1      -1.753  -9.670  11.288  0.00  0.00    +0.124 A 
ATOM     34  C   UNL     1      -3.978  -9.721  10.347  0.00  0.00    +0.004 A 
ATOM     35  C   UNL     1      -2.697  -9.170  10.391  0.00  0.00    +0.038 A 
ENDBRANCH  21  25
BRANCH  13  17
ATOM      4  O   UNL     1      -7.474 -14.025  15.081  0.00  0.00    -0.274 OA
ATOM     11  N   UNL     1      -7.473 -11.697  15.036  0.00  0.00    -0.303 N 
ATOM     17  C   UNL     1      -6.970 -12.942  15.370  0.00  0.00    +0.234 C 
ATOM     36  H   UNL     1      -6.986 -10.864  15.356  0.00  0.00    +0.149 HD
BRANCH  11  18
ATOM      8  O   UNL     1      -7.598  -9.616  13.268  0.00  0.00    -0.274 OA
ATOM     12  N   UNL     1      -9.872  -9.516  13.455  0.00  0.00    -0.314 N 
ATOM     18  C   UNL     1      -8.689 -11.514  14.286  0.00  0.00    +0.159 C 
ATOM     19  C   UNL     1      -9.909 -11.776  15.157  0.00  0.00    +0.033 C 
ATOM     20  C   UNL     1     -11.170 -11.407  14.394  0.00  0.00    +0.021 C 
ATOM     23  C   UNL     1      -8.650 -10.123  13.661  0.00  0.00    +0.233 C 
ATOM     24  C   UNL     1     -11.128  -9.929  14.053  0.00  0.00    +0.104 C 
ATOM     37  H   UNL     1      -9.863  -8.615  12.986  0.00  0.00    +0.149 HD
ENDBRANCH  11  18
ENDBRANCH  13  17
BRANCH   9   1
ATOM      1  S   UNL     1      -6.207 -11.292  18.304  0.00  0.00    +0.062 S 
ATOM      5  O   UNL     1      -5.288 -10.420  19.006  0.00  0.00    -0.153 OA
ATOM      6  O   UNL     1      -6.549 -12.595  18.833  0.00  0.00    -0.153 OA
BRANCH   1  22
ATOM      2  F   UNL     1     -11.218  -8.307  17.453  0.00  0.00    -0.205 F 
ATOM     22  C   UNL     1      -7.708 -10.398  18.049  0.00  0.00    +0.106 A 
ATOM     26  C   UNL     1      -7.711  -9.253  17.253  0.00  0.00    +0.031 A 
ATOM     27  C   UNL     1      -8.891 -10.837  18.644  0.00  0.00    +0.031 A 
ATOM     30  C   UNL     1      -8.897  -8.546  17.052  0.00  0.00    +0.040 A 
ATOM     31  C   UNL     1     -10.076 -10.130  18.443  0.00  0.00    +0.040 A 
ATOM     32  C   UNL     1     -10.080  -8.985  17.647  0.00  0.00    +0.124 A 
ENDBRANCH   1  22
ENDBRANCH   9   1
TORSDOF 5
ENDMDL
MODEL 4
REMARK VINA RESULT:      -7.6      1.600      2.123
REMARK  Name = 7675081
REMARK  5 active torsions:
REMARK  status: ('A' for Active; 'I' for Inactive)
REMARK    1  A    between atoms: S_1  and  N_9
REMARK    2  A    between atoms: S_1  and  C_22
REMARK    3  A    between atoms: N_11  and  C_18
REMARK    4  A    between atoms: C_13  and  C_17
REMARK    5  A    between atoms: C_21  and  C_25
REMARK                            x       y       z     vdW  Elec       q    Type
REMARK                         _______ _______ _______ _____ _____    ______ ____
ROOT
ATOM      7  O   UNL     1      15.851   6.311  18.052  0.00  0.00    -0.270 OA
ATOM      9  N   UNL     1      12.652   8.614  21.236  0.00  0.00    -0.162 NA
ATOM     10  N   UNL     1      14.813   7.190  19.955  0.00  0.00    -0.294 N 
ATOM     13  C   UNL     1      12.585   8.303  19.782  0.00  0.00    +0.183 C 
ATOM     14  C   UNL     1      13.472   7.129  19.374  0.00  0.00    +0.138 C 
ATOM     15  C   UNL     1      13.556   7.737  22.025  0.00  0.00    +0.129 C 
ATOM     16  C   UNL     1      14.912   7.671  21.337  0.00  0.00    +0.125 C 
ATOM     21  C   UNL     1      15.902   6.721  19.211  0.00  0.00    +0.247 C 
ENDROOT
BRANCH  21  25
ATOM      3  F   UNL     1      19.236   8.781  22.068  0.00  0.00    -0.205 F 
ATOM     25  C   UNL     1      17.224   6.708  19.857  0.00  0.00    +0.040 A 
ATOM     28  C   UNL     1      17.610   7.772  20.673  0.00  0.00    +0.051 A 
ATOM     29  C   UNL     1      18.089   5.635  19.653  0.00  0.00    +0.013 A 
ATOM     33  C   UNL     1      18.864   7.761  21.285  0.00  0.00    +0.124 A 
ATOM     34  C   UNL     1      19.343   5.624  20.265  0.00  0.00    +0.004 A 
ATOM     35  C   UNL     1      19.730   6.687  21.081  0.00  0.00    +0.038 A 
ENDBRANCH  21  25
BRANCH  13  17
ATOM      4  O   UNL     1      12.968  10.654  19.685  0.00  0.00    -0.274 OA
ATOM     11  N   UNL     1      13.429   9.356  17.807  0.00  0.00    -0.303 N 
ATOM     17  C   UNL     1      13.015   9.569  19.111  0.00  0.00    +0.234 C 
ATOM     36  H   UNL     1      13.456   8.407  17.446  0.00  0.00    +0.149 HD
BRANCH  11  18
ATOM      8  O   UNL     1      13.398   8.912  15.111  0.00  0.00    -0.274 OA
ATOM     12  N   UNL     1      15.064  10.441  14.780  0.00  0.00    -0.314 N 
ATOM     18  C   UNL     1      13.871  10.417  16.939  0.00  0.00    +0.159 C 
ATOM     19  C   UNL     1      15.081  11.130  17.525  0.00  0.00    +0.033 C 
ATOM     20  C   UNL     1      15.629  12.121  16.512  0.00  0.00    +0.021 C 
ATOM     23  C   UNL     1      14.102   9.822  15.553  0.00  0.00    +0.233 C 
ATOM     24  C   UNL     1      16.066  11.369  15.269  0.00  0.00    +0.104 C 
ATOM     37  H   UNL     1      15.186  10.091  13.834  0.00  0.00    +0.149 HD
ENDBRANCH  11  18
ENDBRANCH  13  17
BRANCH   9   1
ATOM      1  S   UNL     1      11.188   9.066  21.996  0.00  0.00    +0.062 S 
ATOM      5  O   UNL     1      10.735   7.976  22.835  0.00  0.00    -0.153 OA
ATOM      6  O   UNL     1      10.310   9.662  21.011  0.00  0.00    -0.153 OA
BRANCH   1  22
ATOM      2  F   UNL     1      13.136  13.366  25.525  0.00  0.00    -0.205 F 
ATOM     22  C   UNL     1      11.771  10.353  23.053  0.00  0.00    +0.106 A 
ATOM     26  C   UNL     1      10.966  10.823  24.090  0.00  0.00    +0.031 A 
ATOM     27  C   UNL     1      13.038  10.902  22.850  0.00  0.00    +0.031 A 
ATOM     30  C   UNL     1      11.427  11.841  24.925  0.00  0.00    +0.040 A 
ATOM     31  C   UNL     1      13.499  11.920  23.685  0.00  0.00    +0.040 A 
ATOM     32  C   UNL     1      12.694  12.389  24.722  0.00  0.00    +0.124 A 
ENDBRANCH   1  22
ENDBRANCH   9   1
TORSDOF 5
ENDMDL
MODEL 5
REMARK VINA RESULT:      -7.4      2.765      5.455
REMARK  Name = 7675081
REMARK  5 active torsions:
REMARK  status: ('A' for Active; 'I' for Inactive)
REMARK    1  A    between atoms: S_1  and  N_9
REMARK    2  A    between atoms: S_1  and  C_22
REMARK    3  A    between atoms: N_11  and  C_18
REMARK    4  A    between atoms: C_13  and  C_17
REMARK    5  A    between atoms: C_21  and  C_25
REMARK                            x       y       z     vdW  Elec       q    Type
REMARK                         _______ _______ _______ _____ _____    ______ ____
ROOT
ATOM      7  O   UNL     1      18.819  10.288  21.827  0.00  0.00    -0.270 OA
ATOM      9  N   UNL     1      14.492   8.506  19.884  0.00  0.00    -0.162 NA
ATOM     10  N   UNL     1      17.192   8.954  20.806  0.00  0.00    -0.294 N 
ATOM     13  C   UNL     1      14.881   9.830  20.443  0.00  0.00    +0.183 C 
ATOM     14  C   UNL     1      16.383  10.095  20.374  0.00  0.00    +0.138 C 
ATOM     15  C   UNL     1      15.618   7.688  19.362  0.00  0.00    +0.129 C 
ATOM     16  C   UNL     1      16.716   7.623  20.414  0.00  0.00    +0.125 C 
ATOM     21  C   UNL     1      18.393   9.186  21.485  0.00  0.00    +0.247 C 
ENDROOT
BRANCH  21  25
ATOM      3  F   UNL     1      20.484   4.981  20.273  0.00  0.00    -0.205 F 
ATOM     25  C   UNL     1      19.229   8.023  21.823  0.00  0.00    +0.040 A 
ATOM     28  C   UNL     1      19.465   7.034  20.869  0.00  0.00    +0.051 A 
ATOM     29  C   UNL     1      19.782   7.910  23.098  0.00  0.00    +0.013 A 
ATOM     33  C   UNL     1      20.257   5.931  21.190  0.00  0.00    +0.124 A 
ATOM     34  C   UNL     1      20.574   6.806  23.419  0.00  0.00    +0.004 A 
ATOM     35  C   UNL     1      20.811   5.817  22.465  0.00  0.00    +0.038 A 
ENDBRANCH  21  25
BRANCH  13  17
ATOM      4  O   UNL     1      14.881   9.022  22.686  0.00  0.00    -0.274 OA
ATOM     11  N   UNL     1      13.366  10.684  22.084  0.00  0.00    -0.303 N 
ATOM     17  C   UNL     1      14.400   9.792  21.858  0.00  0.00    +0.234 C 
ATOM     36  H   UNL     1      13.068  11.297  21.330  0.00  0.00    +0.149 HD
BRANCH  11  18
ATOM      8  O   UNL     1      10.721  10.021  22.256  0.00  0.00    -0.274 OA
ATOM     12  N   UNL     1      10.417  11.445  24.017  0.00  0.00    -0.314 N 
ATOM     18  C   UNL     1      12.712  10.826  23.359  0.00  0.00    +0.159 C 
ATOM     19  C   UNL     1      13.172  12.091  24.069  0.00  0.00    +0.033 C 
ATOM     20  C   UNL     1      12.340  12.304  25.323  0.00  0.00    +0.021 C 
ATOM     23  C   UNL     1      11.207  10.748  23.125  0.00  0.00    +0.233 C 
ATOM     24  C   UNL     1      10.884  12.472  24.929  0.00  0.00    +0.104 C 
ATOM     37  H   UNL     1       9.411  11.354  23.907  0.00  0.00    +0.149 HD
ENDBRANCH  11  18
ENDBRANCH  13  17
BRANCH   9   1
ATOM      1  S   UNL     1      13.038   8.447  18.986  0.00  0.00    +0.062 S 
ATOM      5  O   UNL     1      12.040   9.262  19.647  0.00  0.00    -0.153 OA
ATOM      6  O   UNL     1      12.759   7.071  18.632  0.00  0.00    -0.153 OA
BRANCH   1  22
ATOM      2  F   UNL     1      14.724  11.273  14.096  0.00  0.00    -0.205 F 
ATOM     22  C   UNL     1      13.542   9.293  17.522  0.00  0.00    +0.106 A 
ATOM     26  C   UNL     1      13.927   8.568  16.395  0.00  0.00    +0.031 A 
ATOM     27  C   UNL     1      13.557  10.688  17.492  0.00  0.00    +0.031 A 
ATOM     30  C   UNL     1      14.326   9.237  15.237  0.00  0.00    +0.040 A 
ATOM     31  C   UNL     1      13.956  11.356  16.336  0.00  0.00    +0.040 A 
ATOM     32  C   UNL     1      14.341  10.632  15.208  0.00  0.00    +0.124 A 
ENDBRANCH   1  22
ENDBRANCH   9   1
TORSDOF 5
ENDMDL
MODEL 6
REMARK VINA RESULT:      -7.3     15.153     18.126
REMARK  Name = 7675081
REMARK  5 active torsions:
REMARK  status: ('A' for Active; 'I' for Inactive)
REMARK    1  A    between atoms: S_1  and  N_9
REMARK    2  A    between atoms: S_1  and  C_22
REMARK    3  A    between atoms: N_11  and  C_18
REMARK    4  A    between atoms: C_13  and  C_17
REMARK    5  A    between atoms: C_21  and  C_25
REMARK                            x       y       z     vdW  Elec       q    Type
REMARK                         _______ _______ _______ _____ _____    ______ ____
ROOT
ATOM      7  O   UNL     1      18.556  -5.902  23.270  0.00  0.00    -0.270 OA
ATOM      9  N   UNL     1      17.311  -6.248  28.169  0.00  0.00    -0.162 NA
ATOM     10  N   UNL     1      17.981  -5.420  25.485  0.00  0.00    -0.294 N 
ATOM     13  C   UNL     1      17.704  -7.260  27.151  0.00  0.00    +0.183 C 
ATOM     14  C   UNL     1      18.526  -6.674  26.005  0.00  0.00    +0.138 C 
ATOM     15  C   UNL     1      17.784  -4.865  27.897  0.00  0.00    +0.129 C 
ATOM     16  C   UNL     1      17.421  -4.487  26.468  0.00  0.00    +0.125 C 
ATOM     21  C   UNL     1      18.092  -5.142  24.118  0.00  0.00    +0.247 C 
ENDROOT
BRANCH  21  25
ATOM      3  F   UNL     1      14.609  -2.318  22.269  0.00  0.00    -0.205 F 
ATOM     25  C   UNL     1      17.618  -3.833  23.641  0.00  0.00    +0.040 A 
ATOM     28  C   UNL     1      16.312  -3.693  23.172  0.00  0.00    +0.051 A 
ATOM     29  C   UNL     1      18.476  -2.734  23.656  0.00  0.00    +0.013 A 
ATOM     33  C   UNL     1      15.863  -2.452  22.719  0.00  0.00    +0.124 A 
ATOM     34  C   UNL     1      18.027  -1.493  23.203  0.00  0.00    +0.004 A 
ATOM     35  C   UNL     1      16.721  -1.353  22.734  0.00  0.00    +0.038 A 
ENDBRANCH  21  25
BRANCH  13  17
ATOM      4  O   UNL     1      15.407  -7.113  26.532  0.00  0.00    -0.274 OA
ATOM     11  N   UNL     1      16.480  -9.175  26.407  0.00  0.00    -0.303 N 
ATOM     17  C   UNL     1      16.406  -7.816  26.660  0.00  0.00    +0.234 C 
ATOM     36  H   UNL     1      17.372  -9.651  26.518  0.00  0.00    +0.149 HD
BRANCH  11  18
ATOM      8  O   UNL     1      14.911 -10.406  28.276  0.00  0.00    -0.274 OA
ATOM     12  N   UNL     1      14.282 -12.011  26.777  0.00  0.00    -0.314 N 
ATOM     18  C   UNL     1      15.360  -9.953  25.947  0.00  0.00    +0.159 C 
ATOM     19  C   UNL     1      15.722 -10.743  24.697  0.00  0.00    +0.033 C 
ATOM     20  C   UNL     1      14.584 -11.683  24.339  0.00  0.00    +0.021 C 
ATOM     23  C   UNL     1      14.874 -10.810  27.112  0.00  0.00    +0.233 C 
ATOM     24  C   UNL     1      14.369 -12.659  25.481  0.00  0.00    +0.104 C 
ATOM     37  H   UNL     1      13.902 -12.564  27.540  0.00  0.00    +0.149 HD
ENDBRANCH  11  18
ENDBRANCH  13  17
BRANCH   9   1
ATOM      1  S   UNL     1      17.344  -6.747  29.805  0.00  0.00    +0.062 S 
ATOM      5  O   UNL     1      18.253  -5.894  30.541  0.00  0.00    -0.153 OA
ATOM      6  O   UNL     1      17.470  -8.188  29.855  0.00  0.00    -0.153 OA
BRANCH   1  22
ATOM      2  F   UNL     1      11.853  -5.349  31.429  0.00  0.00    -0.205 F 
ATOM     22  C   UNL     1      15.700  -6.328  30.290  0.00  0.00    +0.106 A 
ATOM     26  C   UNL     1      15.473  -5.210  31.092  0.00  0.00    +0.031 A 
ATOM     27  C   UNL     1      14.627  -7.116  29.874  0.00  0.00    +0.031 A 
ATOM     30  C   UNL     1      14.174  -4.879  31.477  0.00  0.00    +0.040 A 
ATOM     31  C   UNL     1      13.328  -6.786  30.259  0.00  0.00    +0.040 A 
ATOM     32  C   UNL     1      13.101  -5.668  31.060  0.00  0.00    +0.124 A 
ENDBRANCH   1  22
ENDBRANCH   9   1
TORSDOF 5
ENDMDL
MODEL 7
REMARK VINA RESULT:      -7.3     14.583     18.805
REMARK  Name = 7675081
REMARK  5 active torsions:
REMARK  status: ('A' for Active; 'I' for Inactive)
REMARK    1  A    between atoms: S_1  and  N_9
REMARK    2  A    between atoms: S_1  and  C_22
REMARK    3  A    between atoms: N_11  and  C_18
REMARK    4  A    between atoms: C_13  and  C_17
REMARK    5  A    between atoms: C_21  and  C_25
REMARK                            x       y       z     vdW  Elec       q    Type
REMARK                         _______ _______ _______ _____ _____    ______ ____
ROOT
ATOM      7  O   UNL     1      12.679   7.723   6.244  0.00  0.00    -0.270 OA
ATOM      9  N   UNL     1      11.058   5.749   1.868  0.00  0.00    -0.162 NA
ATOM     10  N   UNL     1      11.603   6.427   4.622  0.00  0.00    -0.294 N 
ATOM     13  C   UNL     1      12.074   6.787   2.196  0.00  0.00    +0.183 C 
ATOM     14  C   UNL     1      12.635   6.656   3.610  0.00  0.00    +0.138 C 
ATOM     15  C   UNL     1      10.775   4.780   2.959  0.00  0.00    +0.129 C 
ATOM     16  C   UNL     1      10.494   5.545   4.245  0.00  0.00    +0.125 C 
ATOM     21  C   UNL     1      11.762   6.981   5.897  0.00  0.00    +0.247 C 
ENDROOT
BRANCH  21  25
ATOM      3  F   UNL     1       9.891   3.938   9.178  0.00  0.00    -0.205 F 
ATOM     25  C   UNL     1      10.755   6.656   6.920  0.00  0.00    +0.040 A 
ATOM     28  C   UNL     1      10.802   5.427   7.577  0.00  0.00    +0.051 A 
ATOM     29  C   UNL     1       9.754   7.576   7.230  0.00  0.00    +0.013 A 
ATOM     33  C   UNL     1       9.846   5.118   8.546  0.00  0.00    +0.124 A 
ATOM     34  C   UNL     1       8.799   7.267   8.199  0.00  0.00    +0.004 A 
ATOM     35  C   UNL     1       8.846   6.038   8.857  0.00  0.00    +0.038 A 
ENDBRANCH  21  25
BRANCH  13  17
ATOM      4  O   UNL     1      11.925   9.165   2.119  0.00  0.00    -0.274 OA
ATOM     11  N   UNL     1      10.005   7.900   1.752  0.00  0.00    -0.303 N 
ATOM     17  C   UNL     1      11.351   8.083   2.015  0.00  0.00    +0.234 C 
ATOM     36  H   UNL     1       9.643   6.956   1.656  0.00  0.00    +0.149 HD
BRANCH  11  18
ATOM      8  O   UNL     1       8.340   8.562   3.816  0.00  0.00    -0.274 OA
ATOM     12  N   UNL     1       6.797   9.430   2.372  0.00  0.00    -0.314 N 
ATOM     18  C   UNL     1       9.084   8.991   1.560  0.00  0.00    +0.159 C 
ATOM     19  C   UNL     1       8.495   8.965   0.157  0.00  0.00    +0.033 C 
ATOM     20  C   UNL     1       7.403  10.015   0.041  0.00  0.00    +0.021 C 
ATOM     23  C   UNL     1       8.048   8.933   2.678  0.00  0.00    +0.233 C 
ATOM     24  C   UNL     1       6.301   9.696   1.035  0.00  0.00    +0.104 C 
ATOM     37  H   UNL     1       6.115   9.450   3.125  0.00  0.00    +0.149 HD
ENDBRANCH  11  18
ENDBRANCH  13  17
BRANCH   9   1
ATOM      1  S   UNL     1      11.094   5.109   0.283  0.00  0.00    +0.062 S 
ATOM      5  O   UNL     1      10.848   6.178  -0.663  0.00  0.00    -0.153 OA
ATOM      6  O   UNL     1      10.314   3.890   0.249  0.00  0.00    -0.153 OA
BRANCH   1  22
ATOM      2  F   UNL     1      16.786   3.630  -0.114  0.00  0.00    -0.205 F 
ATOM     22  C   UNL     1      12.798   4.667   0.164  0.00  0.00    +0.106 A 
ATOM     26  C   UNL     1      13.560   5.110  -0.917  0.00  0.00    +0.031 A 
ATOM     27  C   UNL     1      13.383   3.872   1.150  0.00  0.00    +0.031 A 
ATOM     30  C   UNL     1      14.908   4.760  -1.011  0.00  0.00    +0.040 A 
ATOM     31  C   UNL     1      14.729   3.522   1.056  0.00  0.00    +0.040 A 
ATOM     32  C   UNL     1      15.492   3.966  -0.024  0.00  0.00    +0.124 A 
ENDBRANCH   1  22
ENDBRANCH   9   1
TORSDOF 5
ENDMDL
MODEL 8
REMARK VINA RESULT:      -7.3      3.149      7.579
REMARK  Name = 7675081
REMARK  5 active torsions:
REMARK  status: ('A' for Active; 'I' for Inactive)
REMARK    1  A    between atoms: S_1  and  N_9
REMARK    2  A    between atoms: S_1  and  C_22
REMARK    3  A    between atoms: N_11  and  C_18
REMARK    4  A    between atoms: C_13  and  C_17
REMARK    5  A    between atoms: C_21  and  C_25
REMARK                            x       y       z     vdW  Elec       q    Type
REMARK                         _______ _______ _______ _____ _____    ______ ____
ROOT
ATOM      7  O   UNL     1      12.695  13.774  19.418  0.00  0.00    -0.270 OA
ATOM      9  N   UNL     1      14.018   8.913  19.962  0.00  0.00    -0.162 NA
ATOM     10  N   UNL     1      13.705  11.678  19.186  0.00  0.00    -0.294 N 
ATOM     13  C   UNL     1      12.956   9.749  20.585  0.00  0.00    +0.183 C 
ATOM     14  C   UNL     1      12.558  10.953  19.734  0.00  0.00    +0.138 C 
ATOM     15  C   UNL     1      14.495   9.389  18.637  0.00  0.00    +0.129 C 
ATOM     16  C   UNL     1      14.841  10.868  18.733  0.00  0.00    +0.125 C 
ATOM     21  C   UNL     1      13.632  13.069  19.049  0.00  0.00    +0.247 C 
ENDROOT
BRANCH  21  25
ATOM      3  F   UNL     1      17.937  15.287  19.319  0.00  0.00    -0.205 F 
ATOM     25  C   UNL     1      14.764  13.758  18.409  0.00  0.00    +0.040 A 
ATOM     28  C   UNL     1      15.835  14.204  19.183  0.00  0.00    +0.051 A 
ATOM     29  C   UNL     1      14.765  13.965  17.030  0.00  0.00    +0.013 A 
ATOM     33  C   UNL     1      16.908  14.858  18.576  0.00  0.00    +0.124 A 
ATOM     34  C   UNL     1      15.838  14.619  16.424  0.00  0.00    +0.004 A 
ATOM     35  C   UNL     1      16.909  15.065  17.197  0.00  0.00    +0.038 A 
ENDBRANCH  21  25
BRANCH  13  17
ATOM      4  O   UNL     1      14.641   9.782  22.272  0.00  0.00    -0.274 OA
ATOM     11  N   UNL     1      12.697  11.022  22.594  0.00  0.00    -0.303 N 
ATOM     17  C   UNL     1      13.541  10.178  21.893  0.00  0.00    +0.234 C 
ATOM     36  H   UNL     1      11.820  11.310  22.167  0.00  0.00    +0.149 HD
BRANCH  11  18
ATOM      8  O   UNL     1      10.917  10.621  24.629  0.00  0.00    -0.274 OA
ATOM     12  N   UNL     1      11.644  12.496  25.714  0.00  0.00    -0.314 N 
ATOM     18  C   UNL     1      13.017  11.557  23.892  0.00  0.00    +0.159 C 
ATOM     19  C   UNL     1      13.654  12.934  23.770  0.00  0.00    +0.033 C 
ATOM     20  C   UNL     1      13.819  13.544  25.151  0.00  0.00    +0.021 C 
ATOM     23  C   UNL     1      11.749  11.524  24.738  0.00  0.00    +0.233 C 
ATOM     24  C   UNL     1      12.451  13.699  25.791  0.00  0.00    +0.104 C 
ATOM     37  H   UNL     1      10.832  12.449  26.322  0.00  0.00    +0.149 HD
ENDBRANCH  11  18
ENDBRANCH  13  17
BRANCH   9   1
ATOM      1  S   UNL     1      13.873   7.219  20.147  0.00  0.00    +0.062 S 
ATOM      5  O   UNL     1      13.252   6.666  18.962  0.00  0.00    -0.153 OA
ATOM      6  O   UNL     1      13.350   6.933  21.466  0.00  0.00    -0.153 OA
BRANCH   1  22
ATOM      2  F   UNL     1      19.562   5.678  20.081  0.00  0.00    -0.205 F 
ATOM     22  C   UNL     1      15.577   6.759  20.127  0.00  0.00    +0.106 A 
ATOM     26  C   UNL     1      16.133   6.193  18.980  0.00  0.00    +0.031 A 
ATOM     27  C   UNL     1      16.367   6.958  21.259  0.00  0.00    +0.031 A 
ATOM     30  C   UNL     1      17.480   5.828  18.964  0.00  0.00    +0.040 A 
ATOM     31  C   UNL     1      17.713   6.593  21.244  0.00  0.00    +0.040 A 
ATOM     32  C   UNL     1      18.269   6.028  20.097  0.00  0.00    +0.124 A 
ENDBRANCH   1  22
ENDBRANCH   9   1
TORSDOF 5
ENDMDL
MODEL 9
REMARK VINA RESULT:      -7.2     14.537     17.897
REMARK  Name = 7675081
REMARK  5 active torsions:
REMARK  status: ('A' for Active; 'I' for Inactive)
REMARK    1  A    between atoms: S_1  and  N_9
REMARK    2  A    between atoms: S_1  and  C_22
REMARK    3  A    between atoms: N_11  and  C_18
REMARK    4  A    between atoms: C_13  and  C_17
REMARK    5  A    between atoms: C_21  and  C_25
REMARK                            x       y       z     vdW  Elec       q    Type
REMARK                         _______ _______ _______ _____ _____    ______ ____
ROOT
ATOM      7  O   UNL     1      17.277 -10.212  28.012  0.00  0.00    -0.270 OA
ATOM      9  N   UNL     1      18.550  -5.801  25.867  0.00  0.00    -0.162 NA
ATOM     10  N   UNL     1      17.743  -8.505  26.482  0.00  0.00    -0.294 N 
ATOM     13  C   UNL     1      18.570  -6.286  27.274  0.00  0.00    +0.183 C 
ATOM     14  C   UNL     1      18.656  -7.806  27.387  0.00  0.00    +0.138 C 
ATOM     15  C   UNL     1      18.619  -6.868  24.834  0.00  0.00    +0.129 C 
ATOM     16  C   UNL     1      17.573  -7.930  25.144  0.00  0.00    +0.125 C 
ATOM     21  C   UNL     1      17.154  -9.705  26.898  0.00  0.00    +0.247 C 
ENDROOT
BRANCH  21  25
ATOM      3  F   UNL     1      12.941 -10.327  24.577  0.00  0.00    -0.205 F 
ATOM     25  C   UNL     1      16.316 -10.431  25.932  0.00  0.00    +0.040 A 
ATOM     28  C   UNL     1      15.000 -10.026  25.708  0.00  0.00    +0.051 A 
ATOM     29  C   UNL     1      16.836 -11.525  25.241  0.00  0.00    +0.013 A 
ATOM     33  C   UNL     1      14.204 -10.716  24.792  0.00  0.00    +0.124 A 
ATOM     34  C   UNL     1      16.041 -12.215  24.325  0.00  0.00    +0.004 A 
ATOM     35  C   UNL     1      14.725 -11.810  24.102  0.00  0.00    +0.038 A 
ENDBRANCH  21  25
BRANCH  13  17
ATOM      4  O   UNL     1      16.199  -6.163  27.483  0.00  0.00    -0.274 OA
ATOM     11  N   UNL     1      17.523  -4.806  28.834  0.00  0.00    -0.303 N 
ATOM     17  C   UNL     1      17.298  -5.767  27.864  0.00  0.00    +0.234 C 
ATOM     36  H   UNL     1      18.479  -4.579  29.093  0.00  0.00    +0.149 HD
BRANCH  11  18
ATOM      8  O   UNL     1      17.663  -2.089  29.088  0.00  0.00    -0.274 OA
ATOM     12  N   UNL     1      16.401  -2.142  30.992  0.00  0.00    -0.314 N 
ATOM     18  C   UNL     1      16.462  -4.134  29.539  0.00  0.00    +0.159 C 
ATOM     19  C   UNL     1      16.024  -4.937  30.756  0.00  0.00    +0.033 C 
ATOM     20  C   UNL     1      15.033  -4.125  31.573  0.00  0.00    +0.021 C 
ATOM     23  C   UNL     1      16.933  -2.719  29.856  0.00  0.00    +0.233 C 
ATOM     24  C   UNL     1      15.708  -2.853  32.050  0.00  0.00    +0.104 C 
ATOM     37  H   UNL     1      16.662  -1.179  31.182  0.00  0.00    +0.149 HD
ENDBRANCH  11  18
ENDBRANCH  13  17
BRANCH   9   1
ATOM      1  S   UNL     1      19.424  -4.370  25.532  0.00  0.00    +0.062 S 
ATOM      5  O   UNL     1      20.546  -4.692  24.675  0.00  0.00    -0.153 OA
ATOM      6  O   UNL     1      19.614  -3.635  26.764  0.00  0.00    -0.153 OA
BRANCH   1  22
ATOM      2  F   UNL     1      15.454  -1.470  22.281  0.00  0.00    -0.205 F 
ATOM     22  C   UNL     1      18.236  -3.501  24.559  0.00  0.00    +0.106 A 
ATOM     26  C   UNL     1      16.890  -3.512  24.927  0.00  0.00    +0.031 A 
ATOM     27  C   UNL     1      18.641  -2.804  23.420  0.00  0.00    +0.031 A 
ATOM     30  C   UNL     1      15.950  -2.826  24.158  0.00  0.00    +0.040 A 
ATOM     31  C   UNL     1      17.702  -2.119  22.651  0.00  0.00    +0.040 A 
ATOM     32  C   UNL     1      16.357  -2.129  23.019  0.00  0.00    +0.124 A 
ENDBRANCH   1  22
ENDBRANCH   9   1
TORSDOF 5
ENDMDL
MODEL 10
REMARK VINA RESULT:      -7.2     14.774     19.284
REMARK  Name = 7675081
REMARK  5 active torsions:
REMARK  status: ('A' for Active; 'I' for Inactive)
REMARK    1  A    between atoms: S_1  and  N_9
REMARK    2  A    between atoms: S_1  and  C_22
REMARK    3  A    between atoms: N_11  and  C_18
REMARK    4  A    between atoms: C_13  and  C_17
REMARK    5  A    between atoms: C_21  and  C_25
REMARK                            x       y       z     vdW  Elec       q    Type
REMARK                         _______ _______ _______ _____ _____    ______ ____
ROOT
ATOM      7  O   UNL     1      13.175   3.236   1.714  0.00  0.00    -0.270 OA
ATOM      9  N   UNL     1      14.193   8.194   1.953  0.00  0.00    -0.162 NA
ATOM     10  N   UNL     1      13.577   5.479   1.186  0.00  0.00    -0.294 N 
ATOM     13  C   UNL     1      14.182   7.112   2.975  0.00  0.00    +0.183 C 
ATOM     14  C   UNL     1      14.384   5.720   2.382  0.00  0.00    +0.138 C 
ATOM     15  C   UNL     1      14.398   7.735   0.554  0.00  0.00    +0.129 C 
ATOM     16  C   UNL     1      13.428   6.601   0.254  0.00  0.00    +0.125 C 
ATOM     21  C   UNL     1      13.067   4.196   0.953  0.00  0.00    +0.247 C 
ENDROOT
BRANCH  21  25
ATOM      3  F   UNL     1      12.793   2.253  -3.482  0.00  0.00    -0.205 F 
ATOM     25  C   UNL     1      12.338   3.963  -0.303  0.00  0.00    +0.040 A 
ATOM     28  C   UNL     1      12.922   3.203  -1.317  0.00  0.00    +0.051 A 
ATOM     29  C   UNL     1      11.064   4.502  -0.481  0.00  0.00    +0.013 A 
ATOM     33  C   UNL     1      12.232   2.983  -2.509  0.00  0.00    +0.124 A 
ATOM     34  C   UNL     1      10.374   4.281  -1.674  0.00  0.00    +0.004 A 
ATOM     35  C   UNL     1      10.958   3.522  -2.687  0.00  0.00    +0.038 A 
ENDBRANCH  21  25
BRANCH  13  17
ATOM      4  O   UNL     1      11.928   7.874   3.121  0.00  0.00    -0.274 OA
ATOM     11  N   UNL     1      12.797   6.579   4.850  0.00  0.00    -0.303 N 
ATOM     17  C   UNL     1      12.844   7.235   3.632  0.00  0.00    +0.234 C 
ATOM     36  H   UNL     1      13.608   6.052   5.160  0.00  0.00    +0.149 HD
BRANCH  11  18
ATOM      8  O   UNL     1      13.158   6.595   7.559  0.00  0.00    -0.274 OA
ATOM     12  N   UNL     1      11.148   5.561   7.893  0.00  0.00    -0.314 N 
ATOM     18  C   UNL     1      11.628   6.564   5.692  0.00  0.00    +0.159 C 
ATOM     19  C   UNL     1      10.562   5.637   5.126  0.00  0.00    +0.033 C 
ATOM     20  C   UNL     1       9.419   5.507   6.118  0.00  0.00    +0.021 C 
ATOM     23  C   UNL     1      12.075   6.218   7.108  0.00  0.00    +0.233 C 
ATOM     24  C   UNL     1       9.948   4.906   7.407  0.00  0.00    +0.104 C 
ATOM     37  H   UNL     1      11.412   5.376   8.857  0.00  0.00    +0.149 HD
ENDBRANCH  11  18
ENDBRANCH  13  17
BRANCH   9   1
ATOM      1  S   UNL     1      14.964   9.657   2.387  0.00  0.00    +0.062 S 
ATOM      5  O   UNL     1      14.185  10.316   3.414  0.00  0.00    -0.153 OA
ATOM      6  O   UNL     1      15.354  10.359   1.182  0.00  0.00    -0.153 OA
BRANCH   1  22
ATOM      2  F   UNL     1      19.852   7.546   4.914  0.00  0.00    -0.205 F 
ATOM     22  C   UNL     1      16.428   9.024   3.143  0.00  0.00    +0.106 A 
ATOM     26  C   UNL     1      16.528   8.973   4.534  0.00  0.00    +0.031 A 
ATOM     27  C   UNL     1      17.485   8.577   2.351  0.00  0.00    +0.031 A 
ATOM     30  C   UNL     1      17.685   8.473   5.132  0.00  0.00    +0.040 A 
ATOM     31  C   UNL     1      18.642   8.078   2.949  0.00  0.00    +0.040 A 
ATOM     32  C   UNL     1      18.742   8.026   4.339  0.00  0.00    +0.124 A 
ENDBRANCH   1  22
ENDBRANCH   9   1
TORSDOF 5
ENDMDL
