MODEL 1
REMARK VINA RESULT:      -6.6      0.000      0.000
REMARK  Name = 7144110
REMARK  8 active torsions:
REMARK  status: ('A' for Active; 'I' for Inactive)
REMARK    1  A    between atoms: S_1  and  C_22
REMARK    2  A    between atoms: S_1  and  C_28
REMARK    3  A    between atoms: O_4  and  C_27
REMARK    4  A    between atoms: O_4  and  C_30
REMARK    5  A    between atoms: O_5  and  C_29
REMARK    6  A    between atoms: C_16  and  C_21
REMARK    7  A    between atoms: C_18  and  C_22
REMARK    8  A    between atoms: C_28  and  C_29
REMARK                            x       y       z     vdW  Elec       q    Type
REMARK                         _______ _______ _______ _____ _____    ______ ____
ROOT
ATOM      2  O   UNL     1       7.094   9.243   4.439  0.00  0.00    -0.268 OA
ATOM      3  O   UNL     1      11.418  10.157   7.305  0.00  0.00    -0.275 OA
ATOM      7  N   UNL     1      11.233   7.883   6.871  0.00  0.00    -0.300 N 
ATOM      8  N   UNL     1       8.678   7.608   4.993  0.00  0.00    -0.311 N 
ATOM      9  C   UNL     1       9.033   6.851   7.416  0.00  0.00    +0.027 C 
ATOM     10  C   UNL     1      10.409   5.895   5.618  0.00  0.00    +0.054 C 
ATOM     11  C   UNL     1       9.492   5.544   6.788  0.00  0.00    +0.018 C 
ATOM     12  C   UNL     1      10.235   7.668   7.918  0.00  0.00    +0.113 C 
ATOM     13  C   UNL     1       8.208   7.622   6.385  0.00  0.00    +0.130 C 
ATOM     14  C   UNL     1      11.635   6.673   6.141  0.00  0.00    +0.117 C 
ATOM     15  C   UNL     1       9.677   6.717   4.553  0.00  0.00    +0.034 A 
ATOM     16  C   UNL     1       9.973   6.632   3.230  0.00  0.00    +0.002 A 
ATOM     17  C   UNL     1       7.983   8.457   4.112  0.00  0.00    +0.252 A 
ATOM     18  C   UNL     1      11.773   9.154   6.680  0.00  0.00    +0.225 C 
ATOM     19  C   UNL     1       9.279   7.495   2.292  0.00  0.00    +0.015 A 
ATOM     20  C   UNL     1       8.352   8.369   2.681  0.00  0.00    +0.071 A 
ENDROOT
BRANCH  16  21
ATOM     21  C   UNL     1      11.000   5.698   2.719  0.00  0.00    -0.016 A 
ATOM     23  C   UNL     1      12.247   6.184   2.338  0.00  0.00    +0.012 A 
ATOM     24  C   UNL     1      10.712   4.341   2.623  0.00  0.00    +0.012 A 
ATOM     25  C   UNL     1      13.215   5.302   1.856  0.00  0.00    +0.046 A 
ATOM     26  C   UNL     1      11.680   3.459   2.141  0.00  0.00    +0.046 A 
ATOM     27  C   UNL     1      12.932   3.940   1.757  0.00  0.00    +0.120 A 
BRANCH  27   4
ATOM      4  O   UNL     1      13.876   3.081   1.287  0.00  0.00    -0.495 OA
ATOM     30  C   UNL     1      15.225   3.544   1.271  0.00  0.00    +0.277 C 
ENDBRANCH  27   4
ENDBRANCH  16  21
BRANCH  18  22
ATOM     22  C   UNL     1      12.848   9.282   5.631  0.00  0.00    +0.165 C 
BRANCH  22   1
ATOM      1  S   UNL     1      14.426   9.436   6.481  0.00  0.00    -0.140 S 
BRANCH   1  28
ATOM     28  C   UNL     1      15.077   7.778   6.163  0.00  0.00    +0.189 C 
BRANCH  28  29
ATOM      6  O   UNL     1      16.031   8.673   4.140  0.00  0.00    -0.250 OA
ATOM     29  C   UNL     1      15.600   7.708   4.759  0.00  0.00    +0.315 C 
BRANCH  29   5
ATOM      5  O   UNL     1      15.560   6.452   4.245  0.00  0.00    -0.480 OA
ATOM     31  H   UNL     1      15.945   6.412   3.344  0.00  0.00    +0.295 HD
ENDBRANCH  29   5
ENDBRANCH  28  29
ENDBRANCH   1  28
ENDBRANCH  22   1
ENDBRANCH  18  22
TORSDOF 7
ENDMDL
MODEL 2
REMARK VINA RESULT:      -6.1      1.554      2.022
REMARK  Name = 7144110
REMARK  8 active torsions:
REMARK  status: ('A' for Active; 'I' for Inactive)
REMARK    1  A    between atoms: S_1  and  C_22
REMARK    2  A    between atoms: S_1  and  C_28
REMARK    3  A    between atoms: O_4  and  C_27
REMARK    4  A    between atoms: O_4  and  C_30
REMARK    5  A    between atoms: O_5  and  C_29
REMARK    6  A    between atoms: C_16  and  C_21
REMARK    7  A    between atoms: C_18  and  C_22
REMARK    8  A    between atoms: C_28  and  C_29
REMARK                            x       y       z     vdW  Elec       q    Type
REMARK                         _______ _______ _______ _____ _____    ______ ____
ROOT
ATOM      2  O   UNL     1       7.129   9.076   4.291  0.00  0.00    -0.268 OA
ATOM      3  O   UNL     1      11.370  10.159   7.220  0.00  0.00    -0.275 OA
ATOM      7  N   UNL     1      11.262   7.874   6.814  0.00  0.00    -0.300 N 
ATOM      8  N   UNL     1       8.751   7.497   4.895  0.00  0.00    -0.311 N 
ATOM      9  C   UNL     1       9.084   6.783   7.335  0.00  0.00    +0.027 C 
ATOM     10  C   UNL     1      10.521   5.846   5.575  0.00  0.00    +0.054 C 
ATOM     11  C   UNL     1       9.593   5.483   6.733  0.00  0.00    +0.018 C 
ATOM     12  C   UNL     1      10.251   7.643   7.847  0.00  0.00    +0.113 C 
ATOM     13  C   UNL     1       8.255   7.515   6.279  0.00  0.00    +0.130 C 
ATOM     14  C   UNL     1      11.713   6.667   6.109  0.00  0.00    +0.117 C 
ATOM     15  C   UNL     1       9.783   6.630   4.486  0.00  0.00    +0.034 A 
ATOM     16  C   UNL     1      10.107   6.538   3.170  0.00  0.00    +0.002 A 
ATOM     17  C   UNL     1       8.046   8.312   3.991  0.00  0.00    +0.252 A 
ATOM     18  C   UNL     1      11.767   9.159   6.616  0.00  0.00    +0.225 C 
ATOM     19  C   UNL     1       9.404   7.366   2.208  0.00  0.00    +0.015 A 
ATOM     20  C   UNL     1       8.444   8.217   2.568  0.00  0.00    +0.071 A 
ENDROOT
BRANCH  16  21
ATOM     21  C   UNL     1      11.170   5.628   2.690  0.00  0.00    -0.016 A 
ATOM     23  C   UNL     1      12.437   6.133   2.410  0.00  0.00    +0.012 A 
ATOM     24  C   UNL     1      10.897   4.275   2.522  0.00  0.00    +0.012 A 
ATOM     25  C   UNL     1      13.439   5.275   1.958  0.00  0.00    +0.046 A 
ATOM     26  C   UNL     1      11.899   3.417   2.069  0.00  0.00    +0.046 A 
ATOM     27  C   UNL     1      13.171   3.917   1.787  0.00  0.00    +0.120 A 
BRANCH  27   4
ATOM      4  O   UNL     1      14.148   3.080   1.345  0.00  0.00    -0.495 OA
ATOM     30  C   UNL     1      15.359   3.681   0.888  0.00  0.00    +0.277 C 
ENDBRANCH  27   4
ENDBRANCH  16  21
BRANCH  18  22
ATOM     22  C   UNL     1      12.857   9.305   5.584  0.00  0.00    +0.165 C 
BRANCH  22   1
ATOM      1  S   UNL     1      14.393   9.640   6.457  0.00  0.00    -0.140 S 
BRANCH   1  28
ATOM     28  C   UNL     1      14.529  11.411   6.112  0.00  0.00    +0.189 C 
BRANCH  28  29
ATOM      6  O   UNL     1      15.051  13.246   7.584  0.00  0.00    -0.250 OA
ATOM     29  C   UNL     1      14.485  12.176   7.403  0.00  0.00    +0.315 C 
BRANCH  29   5
ATOM      5  O   UNL     1      13.734  11.561   8.351  0.00  0.00    -0.480 OA
ATOM     31  H   UNL     1      14.070  10.664   8.561  0.00  0.00    +0.295 HD
ENDBRANCH  29   5
ENDBRANCH  28  29
ENDBRANCH   1  28
ENDBRANCH  22   1
ENDBRANCH  18  22
TORSDOF 7
ENDMDL
MODEL 3
REMARK VINA RESULT:      -6.0     25.213     27.803
REMARK  Name = 7144110
REMARK  8 active torsions:
REMARK  status: ('A' for Active; 'I' for Inactive)
REMARK    1  A    between atoms: S_1  and  C_22
REMARK    2  A    between atoms: S_1  and  C_28
REMARK    3  A    between atoms: O_4  and  C_27
REMARK    4  A    between atoms: O_4  and  C_30
REMARK    5  A    between atoms: O_5  and  C_29
REMARK    6  A    between atoms: C_16  and  C_21
REMARK    7  A    between atoms: C_18  and  C_22
REMARK    8  A    between atoms: C_28  and  C_29
REMARK                            x       y       z     vdW  Elec       q    Type
REMARK                         _______ _______ _______ _____ _____    ______ ____
ROOT
ATOM      2  O   UNL     1      -6.792 -15.031  17.020  0.00  0.00    -0.268 OA
ATOM      3  O   UNL     1      -8.681 -10.457  18.823  0.00  0.00    -0.275 OA
ATOM      7  N   UNL     1      -6.671 -10.092  17.717  0.00  0.00    -0.300 N 
ATOM      8  N   UNL     1      -5.833 -12.941  16.572  0.00  0.00    -0.311 N 
ATOM      9  C   UNL     1      -4.767 -11.530  18.428  0.00  0.00    +0.027 C 
ATOM     10  C   UNL     1      -4.846 -10.672  16.126  0.00  0.00    +0.054 C 
ATOM     11  C   UNL     1      -3.917 -10.958  17.305  0.00  0.00    +0.018 C 
ATOM     12  C   UNL     1      -5.859 -10.534  18.850  0.00  0.00    +0.113 C 
ATOM     13  C   UNL     1      -5.356 -12.861  17.960  0.00  0.00    +0.130 C 
ATOM     14  C   UNL     1      -5.907  -9.635  16.548  0.00  0.00    +0.117 C 
ATOM     15  C   UNL     1      -5.525 -11.949  15.621  0.00  0.00    +0.034 A 
ATOM     16  C   UNL     1      -5.855 -12.136  14.317  0.00  0.00    +0.002 A 
ATOM     17  C   UNL     1      -6.511 -14.127  16.234  0.00  0.00    +0.252 A 
ATOM     18  C   UNL     1      -8.061 -10.066  17.830  0.00  0.00    +0.225 C 
ATOM     19  C   UNL     1      -6.558 -13.345  13.931  0.00  0.00    +0.015 A 
ATOM     20  C   UNL     1      -6.890 -14.289  14.812  0.00  0.00    +0.071 A 
ENDROOT
BRANCH  16  21
ATOM     21  C   UNL     1      -5.535 -11.132  13.279  0.00  0.00    -0.016 A 
ATOM     23  C   UNL     1      -6.475 -10.162  12.943  0.00  0.00    +0.012 A 
ATOM     24  C   UNL     1      -4.297 -11.163  12.646  0.00  0.00    +0.012 A 
ATOM     25  C   UNL     1      -6.173  -9.215  11.964  0.00  0.00    +0.046 A 
ATOM     26  C   UNL     1      -3.995 -10.216  11.668  0.00  0.00    +0.046 A 
ATOM     27  C   UNL     1      -4.933  -9.242  11.326  0.00  0.00    +0.120 A 
BRANCH  27   4
ATOM      4  O   UNL     1      -4.639  -8.318  10.372  0.00  0.00    -0.495 OA
ATOM     30  C   UNL     1      -4.200  -8.809   9.106  0.00  0.00    +0.277 C 
ENDBRANCH  27   4
ENDBRANCH  16  21
BRANCH  18  22
ATOM     22  C   UNL     1      -8.826  -9.531  16.647  0.00  0.00    +0.165 C 
BRANCH  22   1
ATOM      1  S   UNL     1      -9.765  -8.101  17.204  0.00  0.00    -0.140 S 
BRANCH   1  28
ATOM     28  C   UNL     1     -10.750  -7.815  15.713  0.00  0.00    +0.189 C 
BRANCH  28  29
ATOM      6  O   UNL     1     -11.966  -5.759  15.401  0.00  0.00    -0.250 OA
ATOM     29  C   UNL     1     -10.891  -6.339  15.484  0.00  0.00    +0.315 C 
BRANCH  29   5
ATOM      5  O   UNL     1      -9.694  -5.705  15.392  0.00  0.00    -0.480 OA
ATOM     31  H   UNL     1      -9.779  -4.739  15.535  0.00  0.00    +0.295 HD
ENDBRANCH  29   5
ENDBRANCH  28  29
ENDBRANCH   1  28
ENDBRANCH  22   1
ENDBRANCH  18  22
TORSDOF 7
ENDMDL
MODEL 4
REMARK VINA RESULT:      -6.0     25.905     28.889
REMARK  Name = 7144110
REMARK  8 active torsions:
REMARK  status: ('A' for Active; 'I' for Inactive)
REMARK    1  A    between atoms: S_1  and  C_22
REMARK    2  A    between atoms: S_1  and  C_28
REMARK    3  A    between atoms: O_4  and  C_27
REMARK    4  A    between atoms: O_4  and  C_30
REMARK    5  A    between atoms: O_5  and  C_29
REMARK    6  A    between atoms: C_16  and  C_21
REMARK    7  A    between atoms: C_18  and  C_22
REMARK    8  A    between atoms: C_28  and  C_29
REMARK                            x       y       z     vdW  Elec       q    Type
REMARK                         _______ _______ _______ _____ _____    ______ ____
ROOT
ATOM      2  O   UNL     1     -10.933  12.916  18.440  0.00  0.00    -0.268 OA
ATOM      3  O   UNL     1     -14.201  10.905  14.831  0.00  0.00    -0.275 OA
ATOM      7  N   UNL     1     -13.009   9.191  15.850  0.00  0.00    -0.300 N 
ATOM      8  N   UNL     1     -11.262  10.623  18.092  0.00  0.00    -0.311 N 
ATOM      9  C   UNL     1     -10.537   9.480  15.915  0.00  0.00    +0.027 C 
ATOM     10  C   UNL     1     -11.652   8.175  17.673  0.00  0.00    +0.054 C 
ATOM     11  C   UNL     1     -10.416   8.235  16.779  0.00  0.00    +0.018 C 
ATOM     12  C   UNL     1     -11.807   9.424  15.051  0.00  0.00    +0.113 C 
ATOM     13  C   UNL     1     -10.519  10.707  16.826  0.00  0.00    +0.130 C 
ATOM     14  C   UNL     1     -12.917   8.070  16.795  0.00  0.00    +0.117 C 
ATOM     15  C   UNL     1     -11.745   9.397  18.591  0.00  0.00    +0.034 A 
ATOM     16  C   UNL     1     -12.292   9.341  19.834  0.00  0.00    +0.002 A 
ATOM     17  C   UNL     1     -11.350  11.823  18.821  0.00  0.00    +0.252 A 
ATOM     18  C   UNL     1     -14.147   9.967  15.631  0.00  0.00    +0.225 C 
ATOM     19  C   UNL     1     -12.403  10.559  20.614  0.00  0.00    +0.015 A 
ATOM     20  C   UNL     1     -11.983  11.739  20.157  0.00  0.00    +0.071 A 
ENDROOT
BRANCH  16  21
ATOM     21  C   UNL     1     -12.795   8.075  20.408  0.00  0.00    -0.016 A 
ATOM     23  C   UNL     1     -11.899   7.151  20.936  0.00  0.00    +0.012 A 
ATOM     24  C   UNL     1     -14.162   7.816  20.416  0.00  0.00    +0.012 A 
ATOM     25  C   UNL     1     -12.374   5.956  21.477  0.00  0.00    +0.046 A 
ATOM     26  C   UNL     1     -14.638   6.622  20.958  0.00  0.00    +0.046 A 
ATOM     27  C   UNL     1     -13.744   5.691  21.488  0.00  0.00    +0.120 A 
BRANCH  27   4
ATOM      4  O   UNL     1     -14.208   4.526  22.016  0.00  0.00    -0.495 OA
ATOM     30  C   UNL     1     -15.169   4.626  23.064  0.00  0.00    +0.277 C 
ENDBRANCH  27   4
ENDBRANCH  16  21
BRANCH  18  22
ATOM     22  C   UNL     1     -15.369   9.620  16.442  0.00  0.00    +0.165 C 
BRANCH  22   1
ATOM      1  S   UNL     1     -16.602   8.950  15.316  0.00  0.00    -0.140 S 
BRANCH   1  28
ATOM     28  C   UNL     1     -16.411   7.193  15.707  0.00  0.00    +0.189 C 
BRANCH  28  29
ATOM      6  O   UNL     1     -14.981   7.023  13.775  0.00  0.00    -0.250 OA
ATOM     29  C   UNL     1     -15.770   6.491  14.546  0.00  0.00    +0.315 C 
BRANCH  29   5
ATOM      5  O   UNL     1     -16.145   5.190  14.447  0.00  0.00    -0.480 OA
ATOM     31  H   UNL     1     -15.452   4.640  14.024  0.00  0.00    +0.295 HD
ENDBRANCH  29   5
ENDBRANCH  28  29
ENDBRANCH   1  28
ENDBRANCH  22   1
ENDBRANCH  18  22
TORSDOF 7
ENDMDL
MODEL 5
REMARK VINA RESULT:      -5.8     23.968     26.218
REMARK  Name = 7144110
REMARK  8 active torsions:
REMARK  status: ('A' for Active; 'I' for Inactive)
REMARK    1  A    between atoms: S_1  and  C_22
REMARK    2  A    between atoms: S_1  and  C_28
REMARK    3  A    between atoms: O_4  and  C_27
REMARK    4  A    between atoms: O_4  and  C_30
REMARK    5  A    between atoms: O_5  and  C_29
REMARK    6  A    between atoms: C_16  and  C_21
REMARK    7  A    between atoms: C_18  and  C_22
REMARK    8  A    between atoms: C_28  and  C_29
REMARK                            x       y       z     vdW  Elec       q    Type
REMARK                         _______ _______ _______ _____ _____    ______ ____
ROOT
ATOM      2  O   UNL     1      -1.837 -10.692  16.616  0.00  0.00    -0.268 OA
ATOM      3  O   UNL     1      -4.856 -14.941  15.858  0.00  0.00    -0.275 OA
ATOM      7  N   UNL     1      -5.742 -13.134  14.697  0.00  0.00    -0.300 N 
ATOM      8  N   UNL     1      -3.667 -10.764  15.155  0.00  0.00    -0.311 N 
ATOM      9  C   UNL     1      -6.063 -11.048  16.021  0.00  0.00    +0.027 C 
ATOM     10  C   UNL     1      -5.641 -10.900  13.604  0.00  0.00    +0.054 C 
ATOM     11  C   UNL     1      -6.455 -10.306  14.753  0.00  0.00    +0.018 C 
ATOM     12  C   UNL     1      -6.360 -12.551  15.889  0.00  0.00    +0.113 C 
ATOM     13  C   UNL     1      -4.585 -10.781  16.303  0.00  0.00    +0.130 C 
ATOM     14  C   UNL     1      -5.984 -12.396  13.451  0.00  0.00    +0.117 C 
ATOM     15  C   UNL     1      -4.137 -10.721  13.827  0.00  0.00    +0.034 A 
ATOM     16  C   UNL     1      -3.259 -10.555  12.804  0.00  0.00    +0.002 A 
ATOM     17  C   UNL     1      -2.300 -10.674  15.476  0.00  0.00    +0.252 A 
ATOM     18  C   UNL     1      -5.048 -14.339  14.798  0.00  0.00    +0.225 C 
ATOM     19  C   UNL     1      -1.841 -10.461  13.096  0.00  0.00    +0.015 A 
ATOM     20  C   UNL     1      -1.363 -10.528  14.338  0.00  0.00    +0.071 A 
ENDROOT
BRANCH  16  21
ATOM     21  C   UNL     1      -3.706 -10.485  11.396  0.00  0.00    -0.016 A 
ATOM     23  C   UNL     1      -3.717 -11.637  10.616  0.00  0.00    +0.012 A 
ATOM     24  C   UNL     1      -4.114  -9.267  10.861  0.00  0.00    +0.012 A 
ATOM     25  C   UNL     1      -4.139 -11.571   9.288  0.00  0.00    +0.046 A 
ATOM     26  C   UNL     1      -4.536  -9.200   9.533  0.00  0.00    +0.046 A 
ATOM     27  C   UNL     1      -4.549 -10.352   8.746  0.00  0.00    +0.120 A 
BRANCH  27   4
ATOM      4  O   UNL     1      -4.960 -10.288   7.451  0.00  0.00    -0.495 OA
ATOM     30  C   UNL     1      -4.823 -11.471   6.667  0.00  0.00    +0.277 C 
ENDBRANCH  27   4
ENDBRANCH  16  21
BRANCH  18  22
ATOM     22  C   UNL     1      -4.502 -14.913  13.515  0.00  0.00    +0.165 C 
BRANCH  22   1
ATOM      1  S   UNL     1      -2.812 -14.324  13.328  0.00  0.00    -0.140 S 
BRANCH   1  28
ATOM     28  C   UNL     1      -2.202 -15.586  12.183  0.00  0.00    +0.189 C 
BRANCH  28  29
ATOM      6  O   UNL     1      -0.381 -16.023  13.700  0.00  0.00    -0.250 OA
ATOM     29  C   UNL     1      -0.793 -15.951  12.549  0.00  0.00    +0.315 C 
BRANCH  29   5
ATOM      5  O   UNL     1      -0.020 -16.210  11.464  0.00  0.00    -0.480 OA
ATOM     31  H   UNL     1       0.008 -17.168  11.254  0.00  0.00    +0.295 HD
ENDBRANCH  29   5
ENDBRANCH  28  29
ENDBRANCH   1  28
ENDBRANCH  22   1
ENDBRANCH  18  22
TORSDOF 7
ENDMDL
MODEL 6
REMARK VINA RESULT:      -5.8      3.467      8.067
REMARK  Name = 7144110
REMARK  8 active torsions:
REMARK  status: ('A' for Active; 'I' for Inactive)
REMARK    1  A    between atoms: S_1  and  C_22
REMARK    2  A    between atoms: S_1  and  C_28
REMARK    3  A    between atoms: O_4  and  C_27
REMARK    4  A    between atoms: O_4  and  C_30
REMARK    5  A    between atoms: O_5  and  C_29
REMARK    6  A    between atoms: C_16  and  C_21
REMARK    7  A    between atoms: C_18  and  C_22
REMARK    8  A    between atoms: C_28  and  C_29
REMARK                            x       y       z     vdW  Elec       q    Type
REMARK                         _______ _______ _______ _____ _____    ______ ____
ROOT
ATOM      2  O   UNL     1      13.608   7.005   6.436  0.00  0.00    -0.268 OA
ATOM      3  O   UNL     1       9.490   6.815   3.158  0.00  0.00    -0.275 OA
ATOM      7  N   UNL     1       8.759   7.317   5.305  0.00  0.00    -0.300 N 
ATOM      8  N   UNL     1      11.414   7.557   7.044  0.00  0.00    -0.311 N 
ATOM      9  C   UNL     1       9.556   5.792   7.105  0.00  0.00    +0.027 C 
ATOM     10  C   UNL     1       9.041   8.134   7.639  0.00  0.00    +0.054 C 
ATOM     11  C   UNL     1       8.928   6.699   8.150  0.00  0.00    +0.018 C 
ATOM     12  C   UNL     1       8.831   5.927   5.756  0.00  0.00    +0.113 C 
ATOM     13  C   UNL     1      11.041   6.136   6.993  0.00  0.00    +0.130 C 
ATOM     14  C   UNL     1       8.269   8.269   6.310  0.00  0.00    +0.117 C 
ATOM     15  C   UNL     1      10.502   8.552   7.448  0.00  0.00    +0.034 A 
ATOM     16  C   UNL     1      10.929   9.829   7.626  0.00  0.00    +0.002 A 
ATOM     17  C   UNL     1      12.767   7.836   6.778  0.00  0.00    +0.252 A 
ATOM     18  C   UNL     1       9.079   7.634   3.985  0.00  0.00    +0.225 C 
ATOM     19  C   UNL     1      12.317  10.155   7.358  0.00  0.00    +0.015 A 
ATOM     20  C   UNL     1      13.197   9.243   6.946  0.00  0.00    +0.071 A 
ENDROOT
BRANCH  16  21
ATOM     21  C   UNL     1      10.013  10.903   8.068  0.00  0.00    -0.016 A 
ATOM     23  C   UNL     1       9.483  11.787   7.133  0.00  0.00    +0.012 A 
ATOM     24  C   UNL     1       9.687  11.021   9.415  0.00  0.00    +0.012 A 
ATOM     25  C   UNL     1       8.620  12.800   7.550  0.00  0.00    +0.046 A 
ATOM     26  C   UNL     1       8.823  12.034   9.832  0.00  0.00    +0.046 A 
ATOM     27  C   UNL     1       8.290  12.924   8.900  0.00  0.00    +0.120 A 
BRANCH  27   4
ATOM      4  O   UNL     1       7.447  13.912   9.306  0.00  0.00    -0.495 OA
ATOM     30  C   UNL     1       6.452  13.563  10.266  0.00  0.00    +0.277 C 
ENDBRANCH  27   4
ENDBRANCH  16  21
BRANCH  18  22
ATOM     22  C   UNL     1       8.911   9.075   3.575  0.00  0.00    +0.165 C 
BRANCH  22   1
ATOM      1  S   UNL     1       7.779   9.118   2.178  0.00  0.00    -0.140 S 
BRANCH   1  28
ATOM     28  C   UNL     1       6.847  10.604   2.619  0.00  0.00    +0.189 C 
BRANCH  28  29
ATOM      6  O   UNL     1       4.554   9.866   2.694  0.00  0.00    -0.250 OA
ATOM     29  C   UNL     1       5.566  10.208   3.293  0.00  0.00    +0.315 C 
BRANCH  29   5
ATOM      5  O   UNL     1       5.650  10.253   4.648  0.00  0.00    -0.480 OA
ATOM     31  H   UNL     1       6.498  10.639   4.950  0.00  0.00    +0.295 HD
ENDBRANCH  29   5
ENDBRANCH  28  29
ENDBRANCH   1  28
ENDBRANCH  22   1
ENDBRANCH  18  22
TORSDOF 7
ENDMDL
MODEL 7
REMARK VINA RESULT:      -5.8     26.952     30.635
REMARK  Name = 7144110
REMARK  8 active torsions:
REMARK  status: ('A' for Active; 'I' for Inactive)
REMARK    1  A    between atoms: S_1  and  C_22
REMARK    2  A    between atoms: S_1  and  C_28
REMARK    3  A    between atoms: O_4  and  C_27
REMARK    4  A    between atoms: O_4  and  C_30
REMARK    5  A    between atoms: O_5  and  C_29
REMARK    6  A    between atoms: C_16  and  C_21
REMARK    7  A    between atoms: C_18  and  C_22
REMARK    8  A    between atoms: C_28  and  C_29
REMARK                            x       y       z     vdW  Elec       q    Type
REMARK                         _______ _______ _______ _____ _____    ______ ____
ROOT
ATOM      2  O   UNL     1     -15.127   5.149  23.837  0.00  0.00    -0.268 OA
ATOM      3  O   UNL     1     -18.401   6.770  20.043  0.00  0.00    -0.275 OA
ATOM      7  N   UNL     1     -16.744   8.363  20.380  0.00  0.00    -0.300 N 
ATOM      8  N   UNL     1     -14.807   7.087  22.560  0.00  0.00    -0.311 N 
ATOM      9  C   UNL     1     -16.400   9.087  22.738  0.00  0.00    +0.027 C 
ATOM     10  C   UNL     1     -14.517   9.155  21.162  0.00  0.00    +0.054 C 
ATOM     11  C   UNL     1     -15.191   9.903  22.310  0.00  0.00    +0.018 C 
ATOM     12  C   UNL     1     -17.387   8.917  21.572  0.00  0.00    +0.113 C 
ATOM     13  C   UNL     1     -15.912   7.741  23.275  0.00  0.00    +0.130 C 
ATOM     14  C   UNL     1     -15.501   9.034  19.979  0.00  0.00    +0.117 C 
ATOM     15  C   UNL     1     -14.038   7.767  21.596  0.00  0.00    +0.034 A 
ATOM     16  C   UNL     1     -12.933   7.175  21.071  0.00  0.00    +0.002 A 
ATOM     17  C   UNL     1     -14.499   5.783  22.990  0.00  0.00    +0.252 A 
ATOM     18  C   UNL     1     -17.356   7.320  19.686  0.00  0.00    +0.225 C 
ATOM     19  C   UNL     1     -12.586   5.830  21.487  0.00  0.00    +0.015 A 
ATOM     20  C   UNL     1     -13.310   5.149  22.375  0.00  0.00    +0.071 A 
ENDROOT
BRANCH  16  21
ATOM     21  C   UNL     1     -12.084   7.857  20.071  0.00  0.00    -0.016 A 
ATOM     23  C   UNL     1     -11.297   8.939  20.454  0.00  0.00    +0.012 A 
ATOM     24  C   UNL     1     -12.077   7.412  18.753  0.00  0.00    +0.012 A 
ATOM     25  C   UNL     1     -10.497   9.582  19.510  0.00  0.00    +0.046 A 
ATOM     26  C   UNL     1     -11.277   8.055  17.808  0.00  0.00    +0.046 A 
ATOM     27  C   UNL     1     -10.486   9.140  18.187  0.00  0.00    +0.120 A 
BRANCH  27   4
ATOM      4  O   UNL     1      -9.705   9.767  17.266  0.00  0.00    -0.495 OA
ATOM     30  C   UNL     1     -10.372  10.434  16.195  0.00  0.00    +0.277 C 
ENDBRANCH  27   4
ENDBRANCH  16  21
BRANCH  18  22
ATOM     22  C   UNL     1     -16.670   6.851  18.428  0.00  0.00    +0.165 C 
BRANCH  22   1
ATOM      1  S   UNL     1     -17.626   5.481  17.761  0.00  0.00    -0.140 S 
BRANCH   1  28
ATOM     28  C   UNL     1     -17.773   6.050  16.050  0.00  0.00    +0.189 C 
BRANCH  28  29
ATOM      6  O   UNL     1     -15.900   5.944  14.537  0.00  0.00    -0.250 OA
ATOM     29  C   UNL     1     -16.744   5.358  15.204  0.00  0.00    +0.315 C 
BRANCH  29   5
ATOM      5  O   UNL     1     -16.835   4.005  15.267  0.00  0.00    -0.480 OA
ATOM     31  H   UNL     1     -16.613   3.664  16.159  0.00  0.00    +0.295 HD
ENDBRANCH  29   5
ENDBRANCH  28  29
ENDBRANCH   1  28
ENDBRANCH  22   1
ENDBRANCH  18  22
TORSDOF 7
ENDMDL
MODEL 8
REMARK VINA RESULT:      -5.6      3.003      5.536
REMARK  Name = 7144110
REMARK  8 active torsions:
REMARK  status: ('A' for Active; 'I' for Inactive)
REMARK    1  A    between atoms: S_1  and  C_22
REMARK    2  A    between atoms: S_1  and  C_28
REMARK    3  A    between atoms: O_4  and  C_27
REMARK    4  A    between atoms: O_4  and  C_30
REMARK    5  A    between atoms: O_5  and  C_29
REMARK    6  A    between atoms: C_16  and  C_21
REMARK    7  A    between atoms: C_18  and  C_22
REMARK    8  A    between atoms: C_28  and  C_29
REMARK                            x       y       z     vdW  Elec       q    Type
REMARK                         _______ _______ _______ _____ _____    ______ ____
ROOT
ATOM      2  O   UNL     1      10.175   5.988   8.099  0.00  0.00    -0.268 OA
ATOM      3  O   UNL     1       8.417  10.148   5.388  0.00  0.00    -0.275 OA
ATOM      7  N   UNL     1      10.278   9.250   4.325  0.00  0.00    -0.300 N 
ATOM      8  N   UNL     1      11.034   6.671   6.029  0.00  0.00    -0.311 N 
ATOM      9  C   UNL     1      12.280   8.895   5.762  0.00  0.00    +0.027 C 
ATOM     10  C   UNL     1      11.917   7.450   3.808  0.00  0.00    +0.054 C 
ATOM     11  C   UNL     1      12.982   8.196   4.608  0.00  0.00    +0.018 C 
ATOM     12  C   UNL     1      11.225   9.884   5.241  0.00  0.00    +0.113 C 
ATOM     13  C   UNL     1      11.667   7.831   6.672  0.00  0.00    +0.130 C 
ATOM     14  C   UNL     1      10.892   8.459   3.251  0.00  0.00    +0.117 C 
ATOM     15  C   UNL     1      11.210   6.391   4.659  0.00  0.00    +0.034 A 
ATOM     16  C   UNL     1      10.734   5.230   4.139  0.00  0.00    +0.002 A 
ATOM     17  C   UNL     1      10.345   5.801   6.894  0.00  0.00    +0.252 A 
ATOM     18  C   UNL     1       8.910   9.480   4.475  0.00  0.00    +0.225 C 
ATOM     19  C   UNL     1      10.016   4.310   5.000  0.00  0.00    +0.015 A 
ATOM     20  C   UNL     1       9.807   4.560   6.293  0.00  0.00    +0.071 A 
ENDROOT
BRANCH  16  21
ATOM     21  C   UNL     1      10.911   4.884   2.712  0.00  0.00    -0.016 A 
ATOM     23  C   UNL     1       9.960   5.288   1.780  0.00  0.00    +0.012 A 
ATOM     24  C   UNL     1      12.029   4.159   2.311  0.00  0.00    +0.012 A 
ATOM     25  C   UNL     1      10.127   4.961   0.434  0.00  0.00    +0.046 A 
ATOM     26  C   UNL     1      12.196   3.833   0.965  0.00  0.00    +0.046 A 
ATOM     27  C   UNL     1      11.245   4.234   0.026  0.00  0.00    +0.120 A 
BRANCH  27   4
ATOM      4  O   UNL     1      11.408   3.915  -1.286  0.00  0.00    -0.495 OA
ATOM     30  C   UNL     1      12.389   2.928  -1.599  0.00  0.00    +0.277 C 
ENDBRANCH  27   4
ENDBRANCH  16  21
BRANCH  18  22
ATOM     22  C   UNL     1       8.002   8.851   3.449  0.00  0.00    +0.165 C 
BRANCH  22   1
ATOM      1  S   UNL     1       7.346  10.170   2.417  0.00  0.00    -0.140 S 
BRANCH   1  28
ATOM     28  C   UNL     1       5.616  10.103   2.945  0.00  0.00    +0.189 C 
BRANCH  28  29
ATOM      6  O   UNL     1       5.174   9.577   0.635  0.00  0.00    -0.250 OA
ATOM     29  C   UNL     1       4.749   9.758   1.770  0.00  0.00    +0.315 C 
BRANCH  29   5
ATOM      5  O   UNL     1       3.437   9.651   2.099  0.00  0.00    -0.480 OA
ATOM     31  H   UNL     1       2.981   8.962   1.570  0.00  0.00    +0.295 HD
ENDBRANCH  29   5
ENDBRANCH  28  29
ENDBRANCH   1  28
ENDBRANCH  22   1
ENDBRANCH  18  22
TORSDOF 7
ENDMDL
MODEL 9
REMARK VINA RESULT:      -5.4      2.432      5.678
REMARK  Name = 7144110
REMARK  8 active torsions:
REMARK  status: ('A' for Active; 'I' for Inactive)
REMARK    1  A    between atoms: S_1  and  C_22
REMARK    2  A    between atoms: S_1  and  C_28
REMARK    3  A    between atoms: O_4  and  C_27
REMARK    4  A    between atoms: O_4  and  C_30
REMARK    5  A    between atoms: O_5  and  C_29
REMARK    6  A    between atoms: C_16  and  C_21
REMARK    7  A    between atoms: C_18  and  C_22
REMARK    8  A    between atoms: C_28  and  C_29
REMARK                            x       y       z     vdW  Elec       q    Type
REMARK                         _______ _______ _______ _____ _____    ______ ____
ROOT
ATOM      2  O   UNL     1       7.946   5.964   5.656  0.00  0.00    -0.268 OA
ATOM      3  O   UNL     1      10.457   4.564   1.242  0.00  0.00    -0.275 OA
ATOM      7  N   UNL     1      11.082   6.717   1.849  0.00  0.00    -0.300 N 
ATOM      8  N   UNL     1       9.594   7.259   4.610  0.00  0.00    -0.311 N 
ATOM      9  C   UNL     1       9.214   8.302   2.299  0.00  0.00    +0.027 C 
ATOM     10  C   UNL     1      11.367   8.608   3.444  0.00  0.00    +0.054 C 
ATOM     11  C   UNL     1      10.215   9.347   2.766  0.00  0.00    +0.018 C 
ATOM     12  C   UNL     1       9.866   7.324   1.307  0.00  0.00    +0.113 C 
ATOM     13  C   UNL     1       8.655   7.583   3.527  0.00  0.00    +0.130 C 
ATOM     14  C   UNL     1      12.043   7.666   2.425  0.00  0.00    +0.117 C 
ATOM     15  C   UNL     1      10.889   7.813   4.663  0.00  0.00    +0.034 A 
ATOM     16  C   UNL     1      11.668   7.609   5.756  0.00  0.00    +0.002 A 
ATOM     17  C   UNL     1       9.072   6.460   5.643  0.00  0.00    +0.252 A 
ATOM     18  C   UNL     1      11.281   5.342   1.730  0.00  0.00    +0.225 C 
ATOM     19  C   UNL     1      11.165   6.787   6.841  0.00  0.00    +0.015 A 
ATOM     20  C   UNL     1       9.957   6.225   6.808  0.00  0.00    +0.071 A 
ENDROOT
BRANCH  16  21
ATOM     21  C   UNL     1      13.026   8.186   5.865  0.00  0.00    -0.016 A 
ATOM     23  C   UNL     1      14.122   7.464   5.402  0.00  0.00    +0.012 A 
ATOM     24  C   UNL     1      13.197   9.446   6.429  0.00  0.00    +0.012 A 
ATOM     25  C   UNL     1      15.402   8.009   5.505  0.00  0.00    +0.046 A 
ATOM     26  C   UNL     1      14.477   9.990   6.532  0.00  0.00    +0.046 A 
ATOM     27  C   UNL     1      15.580   9.272   6.071  0.00  0.00    +0.120 A 
BRANCH  27   4
ATOM      4  O   UNL     1      16.829   9.802   6.171  0.00  0.00    -0.495 OA
ATOM     30  C   UNL     1      17.928   8.898   6.075  0.00  0.00    +0.277 C 
ENDBRANCH  27   4
ENDBRANCH  16  21
BRANCH  18  22
ATOM     22  C   UNL     1      12.590   4.801   2.247  0.00  0.00    +0.165 C 
BRANCH  22   1
ATOM      1  S   UNL     1      12.956   3.293   1.337  0.00  0.00    -0.140 S 
BRANCH   1  28
ATOM     28  C   UNL     1      14.118   3.972   0.127  0.00  0.00    +0.189 C 
BRANCH  28  29
ATOM      6  O   UNL     1      16.517   3.946  -0.098  0.00  0.00    -0.250 OA
ATOM     29  C   UNL     1      15.522   3.676   0.564  0.00  0.00    +0.315 C 
BRANCH  29   5
ATOM      5  O   UNL     1      15.579   3.087   1.786  0.00  0.00    -0.480 OA
ATOM     31  H   UNL     1      15.247   3.679   2.494  0.00  0.00    +0.295 HD
ENDBRANCH  29   5
ENDBRANCH  28  29
ENDBRANCH   1  28
ENDBRANCH  22   1
ENDBRANCH  18  22
TORSDOF 7
ENDMDL
MODEL 10
REMARK VINA RESULT:      -5.4      3.672      6.241
REMARK  Name = 7144110
REMARK  8 active torsions:
REMARK  status: ('A' for Active; 'I' for Inactive)
REMARK    1  A    between atoms: S_1  and  C_22
REMARK    2  A    between atoms: S_1  and  C_28
REMARK    3  A    between atoms: O_4  and  C_27
REMARK    4  A    between atoms: O_4  and  C_30
REMARK    5  A    between atoms: O_5  and  C_29
REMARK    6  A    between atoms: C_16  and  C_21
REMARK    7  A    between atoms: C_18  and  C_22
REMARK    8  A    between atoms: C_28  and  C_29
REMARK                            x       y       z     vdW  Elec       q    Type
REMARK                         _______ _______ _______ _____ _____    ______ ____
ROOT
ATOM      2  O   UNL     1      11.241   5.612   8.391  0.00  0.00    -0.268 OA
ATOM      3  O   UNL     1      11.673  10.808   9.143  0.00  0.00    -0.275 OA
ATOM      7  N   UNL     1      11.803  10.332   6.872  0.00  0.00    -0.300 N 
ATOM      8  N   UNL     1      11.336   7.191   6.662  0.00  0.00    -0.311 N 
ATOM      9  C   UNL     1      13.447   8.577   6.226  0.00  0.00    +0.027 C 
ATOM     10  C   UNL     1      11.443   8.928   4.848  0.00  0.00    +0.054 C 
ATOM     11  C   UNL     1      12.941   8.632   4.794  0.00  0.00    +0.018 C 
ATOM     12  C   UNL     1      13.203   9.914   6.944  0.00  0.00    +0.113 C 
ATOM     13  C   UNL     1      12.762   7.411   6.939  0.00  0.00    +0.130 C 
ATOM     14  C   UNL     1      11.214  10.294   5.527  0.00  0.00    +0.117 C 
ATOM     15  C   UNL     1      10.677   7.831   5.594  0.00  0.00    +0.034 A 
ATOM     16  C   UNL     1       9.402   7.485   5.280  0.00  0.00    +0.002 A 
ATOM     17  C   UNL     1      10.710   6.212   7.456  0.00  0.00    +0.252 A 
ATOM     18  C   UNL     1      11.157  10.787   8.022  0.00  0.00    +0.225 C 
ATOM     19  C   UNL     1       8.723   6.483   6.079  0.00  0.00    +0.015 A 
ATOM     20  C   UNL     1       9.308   5.881   7.114  0.00  0.00    +0.071 A 
ENDROOT
BRANCH  16  21
ATOM     21  C   UNL     1       8.677   8.116   4.156  0.00  0.00    -0.016 A 
ATOM     23  C   UNL     1       7.645   9.014   4.415  0.00  0.00    +0.012 A 
ATOM     24  C   UNL     1       9.031   7.809   2.846  0.00  0.00    +0.012 A 
ATOM     25  C   UNL     1       6.962   9.609   3.355  0.00  0.00    +0.046 A 
ATOM     26  C   UNL     1       8.347   8.404   1.786  0.00  0.00    +0.046 A 
ATOM     27  C   UNL     1       7.312   9.304   2.040  0.00  0.00    +0.120 A 
BRANCH  27   4
ATOM      4  O   UNL     1       6.645   9.884   1.006  0.00  0.00    -0.495 OA
ATOM     30  C   UNL     1       7.288   9.876  -0.268  0.00  0.00    +0.277 C 
ENDBRANCH  27   4
ENDBRANCH  16  21
BRANCH  18  22
ATOM     22  C   UNL     1       9.738  11.268   7.854  0.00  0.00    +0.165 C 
BRANCH  22   1
ATOM      1  S   UNL     1       9.527  12.722   8.892  0.00  0.00    -0.140 S 
BRANCH   1  28
ATOM     28  C   UNL     1       8.445  12.009  10.155  0.00  0.00    +0.189 C 
BRANCH  28  29
ATOM      6  O   UNL     1       8.525  12.360  12.537  0.00  0.00    -0.250 OA
ATOM     29  C   UNL     1       9.113  12.102  11.495  0.00  0.00    +0.315 C 
BRANCH  29   5
ATOM      5  O   UNL     1      10.446  11.852  11.435  0.00  0.00    -0.480 OA
ATOM     31  H   UNL     1      10.964  12.665  11.253  0.00  0.00    +0.295 HD
ENDBRANCH  29   5
ENDBRANCH  28  29
ENDBRANCH   1  28
ENDBRANCH  22   1
ENDBRANCH  18  22
TORSDOF 7
ENDMDL
