MODEL 1
REMARK VINA RESULT:      -6.2      0.000      0.000
REMARK  Name = 11942229
REMARK  7 active torsions:
REMARK  status: ('A' for Active; 'I' for Inactive)
REMARK    1  A    between atoms: O_2  and  C_22
REMARK    2  A    between atoms: O_2  and  C_23
REMARK    3  A    between atoms: N_4  and  C_17
REMARK    4  A    between atoms: N_5  and  C_15
REMARK    5  A    between atoms: C_9  and  C_16
REMARK    6  A    between atoms: C_10  and  C_15
REMARK    7  A    between atoms: C_21  and  C_22
REMARK                            x       y       z     vdW  Elec       q    Type
REMARK                         _______ _______ _______ _____ _____    ______ ____
ROOT
ATOM      3  N   UNL     1      13.786   6.905  19.736  0.00  0.00    -0.297 NA
ATOM      8  C   UNL     1      14.087   8.613  21.675  0.00  0.00    +0.005 C 
ATOM      9  C   UNL     1      12.807   7.777  21.864  0.00  0.00    +0.092 C 
ATOM     10  C   UNL     1      13.998   8.269  19.182  0.00  0.00    +0.078 C 
ATOM     11  C   UNL     1      14.027   9.325  20.308  0.00  0.00    +0.025 C 
ATOM     12  C   UNL     1      15.263   7.622  21.623  0.00  0.00    +0.020 C 
ATOM     13  C   UNL     1      12.598   6.889  20.624  0.00  0.00    +0.097 C 
ATOM     14  C   UNL     1      14.977   6.555  20.551  0.00  0.00    +0.085 C 
ENDROOT
BRANCH   9  16
ATOM      1  O   UNL     1      10.577   8.543  21.490  0.00  0.00    -0.275 OA
ATOM      4  N   UNL     1      11.861   9.586  23.124  0.00  0.00    -0.312 N 
ATOM     16  C   UNL     1      11.621   8.654  22.127  0.00  0.00    +0.218 C 
ATOM     24  H   UNL     1      12.769   9.617  23.579  0.00  0.00    +0.149 HD
BRANCH   4  17
ATOM     17  C   UNL     1      10.880  10.552  23.527  0.00  0.00    +0.073 C 
ATOM     18  C   UNL     1      11.123  12.013  23.339  0.00  0.00    +0.024 C 
ATOM     19  C   UNL     1      11.112  11.424  24.718  0.00  0.00    +0.024 C 
ENDBRANCH   4  17
ENDBRANCH   9  16
BRANCH  10  15
ATOM     15  C   UNL     1      12.978   8.621  18.098  0.00  0.00    +0.164 C 
BRANCH  15   5
ATOM      5  N   UNL     1      13.620   9.117  16.891  0.00  0.00    -0.250 N 
ATOM      6  N   UNL     1      13.933   8.275  15.901  0.00  0.00    -0.065 NA
ATOM      7  N   UNL     1      14.502   9.000  14.946  0.00  0.00    -0.132 NA
ATOM     20  C   UNL     1      13.969  10.395  16.614  0.00  0.00    +0.136 A 
ATOM     21  C   UNL     1      14.533  10.300  15.367  0.00  0.00    +0.108 A 
BRANCH  21  22
ATOM     22  C   UNL     1      15.106  11.361  14.528  0.00  0.00    +0.218 C 
BRANCH  22   2
ATOM      2  O   UNL     1      15.358  10.929  13.185  0.00  0.00    -0.377 OA
ATOM     23  C   UNL     1      15.740  12.019  12.363  0.00  0.00    +0.194 C 
ENDBRANCH  22   2
ENDBRANCH  21  22
ENDBRANCH  15   5
ENDBRANCH  10  15
TORSDOF 6
ENDMDL
MODEL 2
REMARK VINA RESULT:      -6.1      3.242      6.264
REMARK  Name = 11942229
REMARK  7 active torsions:
REMARK  status: ('A' for Active; 'I' for Inactive)
REMARK    1  A    between atoms: O_2  and  C_22
REMARK    2  A    between atoms: O_2  and  C_23
REMARK    3  A    between atoms: N_4  and  C_17
REMARK    4  A    between atoms: N_5  and  C_15
REMARK    5  A    between atoms: C_9  and  C_16
REMARK    6  A    between atoms: C_10  and  C_15
REMARK    7  A    between atoms: C_21  and  C_22
REMARK                            x       y       z     vdW  Elec       q    Type
REMARK                         _______ _______ _______ _____ _____    ______ ____
ROOT
ATOM      3  N   UNL     1      12.459   7.777  21.441  0.00  0.00    -0.297 NA
ATOM      8  C   UNL     1      12.986   9.852  19.962  0.00  0.00    +0.005 C 
ATOM      9  C   UNL     1      11.802   9.047  19.391  0.00  0.00    +0.092 C 
ATOM     10  C   UNL     1      13.903   7.793  21.084  0.00  0.00    +0.078 C 
ATOM     11  C   UNL     1      14.213   8.927  20.082  0.00  0.00    +0.025 C 
ATOM     12  C   UNL     1      12.589  10.275  21.388  0.00  0.00    +0.020 C 
ATOM     13  C   UNL     1      11.625   7.758  20.213  0.00  0.00    +0.097 C 
ATOM     14  C   UNL     1      12.160   9.028  22.183  0.00  0.00    +0.085 C 
ENDROOT
BRANCH   9  16
ATOM      1  O   UNL     1      11.674   7.680  17.437  0.00  0.00    -0.275 OA
ATOM      4  N   UNL     1      12.597   9.807  17.259  0.00  0.00    -0.312 N 
ATOM     16  C   UNL     1      11.999   8.755  17.934  0.00  0.00    +0.218 C 
ATOM     24  H   UNL     1      12.854  10.652  17.762  0.00  0.00    +0.149 HD
BRANCH   4  17
ATOM     17  C   UNL     1      12.911   9.744  15.860  0.00  0.00    +0.073 C 
ATOM     18  C   UNL     1      14.210   9.174  15.392  0.00  0.00    +0.024 C 
ATOM     19  C   UNL     1      13.946  10.645  15.269  0.00  0.00    +0.024 C 
ENDBRANCH   4  17
ENDBRANCH   9  16
BRANCH  10  15
ATOM     15  C   UNL     1      14.391   6.435  20.574  0.00  0.00    +0.164 C 
BRANCH  15   5
ATOM      5  N   UNL     1      15.828   6.424  20.355  0.00  0.00    -0.250 N 
ATOM      6  N   UNL     1      16.326   6.016  19.183  0.00  0.00    -0.065 NA
ATOM      7  N   UNL     1      17.647   6.110  19.275  0.00  0.00    -0.132 NA
ATOM     20  C   UNL     1      16.794   6.791  21.229  0.00  0.00    +0.136 A 
ATOM     21  C   UNL     1      17.950   6.582  20.521  0.00  0.00    +0.108 A 
BRANCH  21  22
ATOM     22  C   UNL     1      19.341   6.799  20.938  0.00  0.00    +0.218 C 
BRANCH  22   2
ATOM      2  O   UNL     1      20.213   5.736  20.534  0.00  0.00    -0.377 OA
ATOM     23  C   UNL     1      21.083   5.361  21.588  0.00  0.00    +0.194 C 
ENDBRANCH  22   2
ENDBRANCH  21  22
ENDBRANCH  15   5
ENDBRANCH  10  15
TORSDOF 6
ENDMDL
MODEL 3
REMARK VINA RESULT:      -6.0      3.302      5.143
REMARK  Name = 11942229
REMARK  7 active torsions:
REMARK  status: ('A' for Active; 'I' for Inactive)
REMARK    1  A    between atoms: O_2  and  C_22
REMARK    2  A    between atoms: O_2  and  C_23
REMARK    3  A    between atoms: N_4  and  C_17
REMARK    4  A    between atoms: N_5  and  C_15
REMARK    5  A    between atoms: C_9  and  C_16
REMARK    6  A    between atoms: C_10  and  C_15
REMARK    7  A    between atoms: C_21  and  C_22
REMARK                            x       y       z     vdW  Elec       q    Type
REMARK                         _______ _______ _______ _____ _____    ______ ____
ROOT
ATOM      3  N   UNL     1      13.771   8.756  19.402  0.00  0.00    -0.297 NA
ATOM      8  C   UNL     1      11.218   8.373  19.725  0.00  0.00    +0.005 C 
ATOM      9  C   UNL     1      11.701   9.603  20.517  0.00  0.00    +0.092 C 
ATOM     10  C   UNL     1      13.518   7.351  19.821  0.00  0.00    +0.078 C 
ATOM     11  C   UNL     1      12.027   7.138  20.168  0.00  0.00    +0.025 C 
ATOM     12  C   UNL     1      11.555   8.636  18.247  0.00  0.00    +0.020 C 
ATOM     13  C   UNL     1      13.234   9.700  20.412  0.00  0.00    +0.097 C 
ATOM     14  C   UNL     1      13.049   8.986  18.125  0.00  0.00    +0.085 C 
ENDROOT
BRANCH   9  16
ATOM      1  O   UNL     1      10.736   8.532  22.421  0.00  0.00    -0.275 OA
ATOM      4  N   UNL     1      11.437  10.741  22.613  0.00  0.00    -0.312 N 
ATOM     16  C   UNL     1      11.244   9.543  21.943  0.00  0.00    +0.218 C 
ATOM     24  H   UNL     1      11.845  11.534  22.125  0.00  0.00    +0.149 HD
BRANCH   4  17
ATOM     17  C   UNL     1      11.049  10.929  23.981  0.00  0.00    +0.073 C 
ATOM     18  C   UNL     1      10.602  12.268  24.471  0.00  0.00    +0.024 C 
ATOM     19  C   UNL     1      11.916  11.702  24.921  0.00  0.00    +0.024 C 
ENDBRANCH   4  17
ENDBRANCH   9  16
BRANCH  10  15
ATOM     15  C   UNL     1      14.436   6.910  20.963  0.00  0.00    +0.164 C 
BRANCH  15   5
ATOM      5  N   UNL     1      15.769   6.579  20.488  0.00  0.00    -0.250 N 
ATOM      6  N   UNL     1      15.948   6.148  19.235  0.00  0.00    -0.065 NA
ATOM      7  N   UNL     1      17.248   5.923  19.089  0.00  0.00    -0.132 NA
ATOM     20  C   UNL     1      16.927   6.647  21.183  0.00  0.00    +0.136 A 
ATOM     21  C   UNL     1      17.863   6.223  20.273  0.00  0.00    +0.108 A 
BRANCH  21  22
ATOM     22  C   UNL     1      19.315   6.079  20.438  0.00  0.00    +0.218 C 
BRANCH  22   2
ATOM      2  O   UNL     1      19.888   7.123  21.235  0.00  0.00    -0.377 OA
ATOM     23  C   UNL     1      20.333   6.626  22.485  0.00  0.00    +0.194 C 
ENDBRANCH  22   2
ENDBRANCH  21  22
ENDBRANCH  15   5
ENDBRANCH  10  15
TORSDOF 6
ENDMDL
MODEL 4
REMARK VINA RESULT:      -5.5     15.696     18.416
REMARK  Name = 11942229
REMARK  7 active torsions:
REMARK  status: ('A' for Active; 'I' for Inactive)
REMARK    1  A    between atoms: O_2  and  C_22
REMARK    2  A    between atoms: O_2  and  C_23
REMARK    3  A    between atoms: N_4  and  C_17
REMARK    4  A    between atoms: N_5  and  C_15
REMARK    5  A    between atoms: C_9  and  C_16
REMARK    6  A    between atoms: C_10  and  C_15
REMARK    7  A    between atoms: C_21  and  C_22
REMARK                            x       y       z     vdW  Elec       q    Type
REMARK                         _______ _______ _______ _____ _____    ______ ____
ROOT
ATOM      3  N   UNL     1      -2.217   3.825  25.870  0.00  0.00    -0.297 NA
ATOM      8  C   UNL     1      -3.695   3.446  23.762  0.00  0.00    +0.005 C 
ATOM      9  C   UNL     1      -4.467   3.108  25.052  0.00  0.00    +0.092 C 
ATOM     10  C   UNL     1      -1.499   2.959  24.896  0.00  0.00    +0.078 C 
ATOM     11  C   UNL     1      -2.412   2.592  23.705  0.00  0.00    +0.025 C 
ATOM     12  C   UNL     1      -3.261   4.918  23.877  0.00  0.00    +0.020 C 
ATOM     13  C   UNL     1      -3.510   3.207  26.254  0.00  0.00    +0.097 C 
ATOM     14  C   UNL     1      -2.504   5.119  25.202  0.00  0.00    +0.085 C 
ENDROOT
BRANCH   9  16
ATOM      1  O   UNL     1      -6.329   1.616  24.953  0.00  0.00    -0.275 OA
ATOM      4  N   UNL     1      -4.179   0.730  24.921  0.00  0.00    -0.312 N 
ATOM     16  C   UNL     1      -5.109   1.757  24.962  0.00  0.00    +0.218 C 
ATOM     24  H   UNL     1      -3.186   0.944  24.958  0.00  0.00    +0.149 HD
BRANCH   4  17
ATOM     17  C   UNL     1      -4.560  -0.652  24.862  0.00  0.00    +0.073 C 
ATOM     18  C   UNL     1      -3.592  -1.728  25.232  0.00  0.00    +0.024 C 
ATOM     19  C   UNL     1      -4.011  -1.551  23.803  0.00  0.00    +0.024 C 
ENDBRANCH   4  17
ENDBRANCH   9  16
BRANCH  10  15
ATOM     15  C   UNL     1      -0.898   1.716  25.555  0.00  0.00    +0.164 C 
BRANCH  15   5
ATOM      5  N   UNL     1      -0.082   0.952  24.626  0.00  0.00    -0.250 N 
ATOM      6  N   UNL     1      -0.394  -0.317  24.343  0.00  0.00    -0.065 NA
ATOM      7  N   UNL     1       0.517  -0.753  23.482  0.00  0.00    -0.132 NA
ATOM     20  C   UNL     1       1.023   1.373  23.968  0.00  0.00    +0.136 A 
ATOM     21  C   UNL     1       1.393   0.269  23.242  0.00  0.00    +0.108 A 
BRANCH  21  22
ATOM     22  C   UNL     1       2.527   0.104  22.324  0.00  0.00    +0.218 C 
BRANCH  22   2
ATOM      2  O   UNL     1       3.616   0.986  22.624  0.00  0.00    -0.377 OA
ATOM     23  C   UNL     1       4.722   0.272  23.147  0.00  0.00    +0.194 C 
ENDBRANCH  22   2
ENDBRANCH  21  22
ENDBRANCH  15   5
ENDBRANCH  10  15
TORSDOF 6
ENDMDL
MODEL 5
REMARK VINA RESULT:      -5.5     13.959     19.322
REMARK  Name = 11942229
REMARK  7 active torsions:
REMARK  status: ('A' for Active; 'I' for Inactive)
REMARK    1  A    between atoms: O_2  and  C_22
REMARK    2  A    between atoms: O_2  and  C_23
REMARK    3  A    between atoms: N_4  and  C_17
REMARK    4  A    between atoms: N_5  and  C_15
REMARK    5  A    between atoms: C_9  and  C_16
REMARK    6  A    between atoms: C_10  and  C_15
REMARK    7  A    between atoms: C_21  and  C_22
REMARK                            x       y       z     vdW  Elec       q    Type
REMARK                         _______ _______ _______ _____ _____    ______ ____
ROOT
ATOM      3  N   UNL     1      13.258   5.777   1.738  0.00  0.00    -0.297 NA
ATOM      8  C   UNL     1      12.861   3.378   0.811  0.00  0.00    +0.005 C 
ATOM      9  C   UNL     1      12.577   4.445  -0.264  0.00  0.00    +0.092 C 
ATOM     10  C   UNL     1      12.348   5.027   2.645  0.00  0.00    +0.078 C 
ATOM     11  C   UNL     1      11.973   3.655   2.041  0.00  0.00    +0.025 C 
ATOM     12  C   UNL     1      14.323   3.567   1.249  0.00  0.00    +0.020 C 
ATOM     13  C   UNL     1      12.683   5.843   0.371  0.00  0.00    +0.097 C 
ATOM     14  C   UNL     1      14.541   5.034   1.664  0.00  0.00    +0.085 C 
ENDROOT
BRANCH   9  16
ATOM      1  O   UNL     1      10.192   4.316  -0.272  0.00  0.00    -0.275 OA
ATOM      4  N   UNL     1      11.344   3.892  -2.247  0.00  0.00    -0.312 N 
ATOM     16  C   UNL     1      11.240   4.226  -0.906  0.00  0.00    +0.218 C 
ATOM     24  H   UNL     1      12.260   3.817  -2.681  0.00  0.00    +0.149 HD
BRANCH   4  17
ATOM     17  C   UNL     1      10.197   3.608  -3.061  0.00  0.00    +0.073 C 
ATOM     18  C   UNL     1       9.879   2.207  -3.470  0.00  0.00    +0.024 C 
ATOM     19  C   UNL     1      10.357   3.198  -4.489  0.00  0.00    +0.024 C 
ENDBRANCH   4  17
ENDBRANCH   9  16
BRANCH  10  15
ATOM     15  C   UNL     1      11.108   5.837   3.027  0.00  0.00    +0.164 C 
BRANCH  15   5
ATOM      5  N   UNL     1      10.727   5.624   4.413  0.00  0.00    -0.250 N 
ATOM      6  N   UNL     1       9.873   4.647   4.733  0.00  0.00    -0.065 NA
ATOM      7  N   UNL     1       9.712   4.693   6.050  0.00  0.00    -0.132 NA
ATOM     20  C   UNL     1      11.143   6.323   5.494  0.00  0.00    +0.136 A 
ATOM     21  C   UNL     1      10.482   5.714   6.532  0.00  0.00    +0.108 A 
BRANCH  21  22
ATOM     22  C   UNL     1      10.525   6.028   7.966  0.00  0.00    +0.218 C 
BRANCH  22   2
ATOM      2  O   UNL     1      10.517   4.855   8.789  0.00  0.00    -0.377 OA
ATOM     23  C   UNL     1       9.382   4.836   9.638  0.00  0.00    +0.194 C 
ENDBRANCH  22   2
ENDBRANCH  21  22
ENDBRANCH  15   5
ENDBRANCH  10  15
TORSDOF 6
ENDMDL
MODEL 6
REMARK VINA RESULT:      -5.4     26.452     28.365
REMARK  Name = 11942229
REMARK  7 active torsions:
REMARK  status: ('A' for Active; 'I' for Inactive)
REMARK    1  A    between atoms: O_2  and  C_22
REMARK    2  A    between atoms: O_2  and  C_23
REMARK    3  A    between atoms: N_4  and  C_17
REMARK    4  A    between atoms: N_5  and  C_15
REMARK    5  A    between atoms: C_9  and  C_16
REMARK    6  A    between atoms: C_10  and  C_15
REMARK    7  A    between atoms: C_21  and  C_22
REMARK                            x       y       z     vdW  Elec       q    Type
REMARK                         _______ _______ _______ _____ _____    ______ ____
ROOT
ATOM      3  N   UNL     1      -2.594 -10.771  14.512  0.00  0.00    -0.297 NA
ATOM      8  C   UNL     1      -2.785 -12.767  12.853  0.00  0.00    +0.005 C 
ATOM      9  C   UNL     1      -2.344 -11.480  12.128  0.00  0.00    +0.092 C 
ATOM     10  C   UNL     1      -3.926 -11.418  14.647  0.00  0.00    +0.078 C 
ATOM     11  C   UNL     1      -4.125 -12.507  13.570  0.00  0.00    +0.025 C 
ATOM     12  C   UNL     1      -1.732 -13.049  13.939  0.00  0.00    +0.020 C 
ATOM     13  C   UNL     1      -2.388 -10.303  13.119  0.00  0.00    +0.097 C 
ATOM     14  C   UNL     1      -1.560 -11.793  14.813  0.00  0.00    +0.085 C 
ENDROOT
BRANCH   9  16
ATOM      1  O   UNL     1      -3.491 -12.115  10.133  0.00  0.00    -0.275 OA
ATOM      4  N   UNL     1      -3.551  -9.889  10.800  0.00  0.00    -0.312 N 
ATOM     16  C   UNL     1      -3.192 -11.221  10.920  0.00  0.00    +0.218 C 
ATOM     24  H   UNL     1      -3.234  -9.214  11.490  0.00  0.00    +0.149 HD
BRANCH   4  17
ATOM     17  C   UNL     1      -4.338  -9.399   9.704  0.00  0.00    +0.073 C 
ATOM     18  C   UNL     1      -5.210  -8.197   9.866  0.00  0.00    +0.024 C 
ATOM     19  C   UNL     1      -5.824  -9.556   9.701  0.00  0.00    +0.024 C 
ENDBRANCH   4  17
ENDBRANCH   9  16
BRANCH  10  15
ATOM     15  C   UNL     1      -5.070 -10.401  14.645  0.00  0.00    +0.164 C 
BRANCH  15   5
ATOM      5  N   UNL     1      -5.682 -10.272  15.957  0.00  0.00    -0.250 N 
ATOM      6  N   UNL     1      -6.818  -9.582  16.104  0.00  0.00    -0.065 NA
ATOM      7  N   UNL     1      -7.133  -9.632  17.392  0.00  0.00    -0.132 NA
ATOM     20  C   UNL     1      -5.232 -10.783  17.126  0.00  0.00    +0.136 A 
ATOM     21  C   UNL     1      -6.172 -10.363  18.032  0.00  0.00    +0.108 A 
BRANCH  21  22
ATOM     22  C   UNL     1      -6.233 -10.604  19.480  0.00  0.00    +0.218 C 
BRANCH  22   2
ATOM      2  O   UNL     1      -7.528 -11.036  19.915  0.00  0.00    -0.377 OA
ATOM     23  C   UNL     1      -7.674 -12.439  19.772  0.00  0.00    +0.194 C 
ENDBRANCH  22   2
ENDBRANCH  21  22
ENDBRANCH  15   5
ENDBRANCH  10  15
TORSDOF 6
ENDMDL
MODEL 7
REMARK VINA RESULT:      -5.4     13.452     16.114
REMARK  Name = 11942229
REMARK  7 active torsions:
REMARK  status: ('A' for Active; 'I' for Inactive)
REMARK    1  A    between atoms: O_2  and  C_22
REMARK    2  A    between atoms: O_2  and  C_23
REMARK    3  A    between atoms: N_4  and  C_17
REMARK    4  A    between atoms: N_5  and  C_15
REMARK    5  A    between atoms: C_9  and  C_16
REMARK    6  A    between atoms: C_10  and  C_15
REMARK    7  A    between atoms: C_21  and  C_22
REMARK                            x       y       z     vdW  Elec       q    Type
REMARK                         _______ _______ _______ _____ _____    ______ ____
ROOT
ATOM      3  N   UNL     1       9.441   5.343   5.615  0.00  0.00    -0.297 NA
ATOM      8  C   UNL     1      10.103   7.366   7.112  0.00  0.00    +0.005 C 
ATOM      9  C   UNL     1       8.648   7.490   6.619  0.00  0.00    +0.092 C 
ATOM     10  C   UNL     1      10.705   5.950   5.118  0.00  0.00    +0.078 C 
ATOM     11  C   UNL     1      11.039   7.244   5.893  0.00  0.00    +0.025 C 
ATOM     12  C   UNL     1      10.196   6.044   7.894  0.00  0.00    +0.020 C 
ATOM     13  C   UNL     1       8.353   6.352   5.625  0.00  0.00    +0.097 C 
ATOM     14  C   UNL     1       9.670   4.897   7.012  0.00  0.00    +0.085 C 
ENDROOT
BRANCH   9  16
ATOM      1  O   UNL     1       8.897   9.860   6.471  0.00  0.00    -0.275 OA
ATOM      4  N   UNL     1       7.529   8.778   4.933  0.00  0.00    -0.312 N 
ATOM     16  C   UNL     1       8.394   8.837   6.014  0.00  0.00    +0.218 C 
ATOM     24  H   UNL     1       7.142   7.885   4.642  0.00  0.00    +0.149 HD
BRANCH   4  17
ATOM     17  C   UNL     1       7.117   9.948   4.212  0.00  0.00    +0.073 C 
ATOM     18  C   UNL     1       5.752  10.524   4.406  0.00  0.00    +0.024 C 
ATOM     19  C   UNL     1       6.109   9.852   3.113  0.00  0.00    +0.024 C 
ENDBRANCH   4  17
ENDBRANCH   9  16
BRANCH  10  15
ATOM     15  C   UNL     1      10.683   6.184   3.606  0.00  0.00    +0.164 C 
BRANCH  15   5
ATOM      5  N   UNL     1      11.467   5.189   2.893  0.00  0.00    -0.250 N 
ATOM      6  N   UNL     1      11.095   3.905   2.904  0.00  0.00    -0.065 NA
ATOM      7  N   UNL     1      11.989   3.240   2.184  0.00  0.00    -0.132 NA
ATOM     20  C   UNL     1      12.596   5.394   2.176  0.00  0.00    +0.136 A 
ATOM     21  C   UNL     1      12.916   4.137   1.731  0.00  0.00    +0.108 A 
BRANCH  21  22
ATOM     22  C   UNL     1      14.047   3.711   0.897  0.00  0.00    +0.218 C 
BRANCH  22   2
ATOM      2  O   UNL     1      13.644   3.298  -0.415  0.00  0.00    -0.377 OA
ATOM     23  C   UNL     1      13.978   4.277  -1.384  0.00  0.00    +0.194 C 
ENDBRANCH  22   2
ENDBRANCH  21  22
ENDBRANCH  15   5
ENDBRANCH  10  15
TORSDOF 6
ENDMDL
MODEL 8
REMARK VINA RESULT:      -5.3     26.810     29.009
REMARK  Name = 11942229
REMARK  7 active torsions:
REMARK  status: ('A' for Active; 'I' for Inactive)
REMARK    1  A    between atoms: O_2  and  C_22
REMARK    2  A    between atoms: O_2  and  C_23
REMARK    3  A    between atoms: N_4  and  C_17
REMARK    4  A    between atoms: N_5  and  C_15
REMARK    5  A    between atoms: C_9  and  C_16
REMARK    6  A    between atoms: C_10  and  C_15
REMARK    7  A    between atoms: C_21  and  C_22
REMARK                            x       y       z     vdW  Elec       q    Type
REMARK                         _______ _______ _______ _____ _____    ______ ____
ROOT
ATOM      3  N   UNL     1      -7.204 -10.982  18.854  0.00  0.00    -0.297 NA
ATOM      8  C   UNL     1      -6.138 -12.395  16.946  0.00  0.00    +0.005 C 
ATOM      9  C   UNL     1      -5.057 -11.687  17.785  0.00  0.00    +0.092 C 
ATOM     10  C   UNL     1      -7.828 -10.628  17.551  0.00  0.00    +0.078 C 
ATOM     11  C   UNL     1      -7.110 -11.338  16.382  0.00  0.00    +0.025 C 
ATOM     12  C   UNL     1      -6.939 -13.285  17.912  0.00  0.00    +0.020 C 
ATOM     13  C   UNL     1      -5.739 -10.754  18.802  0.00  0.00    +0.097 C 
ATOM     14  C   UNL     1      -7.437 -12.429  19.091  0.00  0.00    +0.085 C 
ENDROOT
BRANCH   9  16
ATOM      1  O   UNL     1      -4.124  -9.724  16.796  0.00  0.00    -0.275 OA
ATOM      4  N   UNL     1      -3.211 -11.794  16.257  0.00  0.00    -0.312 N 
ATOM     16  C   UNL     1      -4.091 -10.946  16.912  0.00  0.00    +0.218 C 
ATOM     24  H   UNL     1      -3.276 -12.798  16.397  0.00  0.00    +0.149 HD
BRANCH   4  17
ATOM     17  C   UNL     1      -2.214 -11.313  15.344  0.00  0.00    +0.073 C 
ATOM     18  C   UNL     1      -2.572 -10.962  13.937  0.00  0.00    +0.024 C 
ATOM     19  C   UNL     1      -1.730 -12.171  14.221  0.00  0.00    +0.024 C 
ENDBRANCH   4  17
ENDBRANCH   9  16
BRANCH  10  15
ATOM     15  C   UNL     1      -7.905  -9.115  17.335  0.00  0.00    +0.164 C 
BRANCH  15   5
ATOM      5  N   UNL     1      -9.277  -8.656  17.205  0.00  0.00    -0.250 N 
ATOM      6  N   UNL     1     -10.248  -9.224  17.928  0.00  0.00    -0.065 NA
ATOM      7  N   UNL     1     -11.379  -8.611  17.601  0.00  0.00    -0.132 NA
ATOM     20  C   UNL     1      -9.740  -7.672  16.399  0.00  0.00    +0.136 A 
ATOM     21  C   UNL     1     -11.086  -7.658  16.666  0.00  0.00    +0.108 A 
BRANCH  21  22
ATOM     22  C   UNL     1     -12.132  -6.800  16.096  0.00  0.00    +0.218 C 
BRANCH  22   2
ATOM      2  O   UNL     1     -11.603  -5.637  15.448  0.00  0.00    -0.377 OA
ATOM     23  C   UNL     1     -12.090  -5.525  14.122  0.00  0.00    +0.194 C 
ENDBRANCH  22   2
ENDBRANCH  21  22
ENDBRANCH  15   5
ENDBRANCH  10  15
TORSDOF 6
ENDMDL
MODEL 9
REMARK VINA RESULT:      -5.2     26.744     27.972
REMARK  Name = 11942229
REMARK  7 active torsions:
REMARK  status: ('A' for Active; 'I' for Inactive)
REMARK    1  A    between atoms: O_2  and  C_22
REMARK    2  A    between atoms: O_2  and  C_23
REMARK    3  A    between atoms: N_4  and  C_17
REMARK    4  A    between atoms: N_5  and  C_15
REMARK    5  A    between atoms: C_9  and  C_16
REMARK    6  A    between atoms: C_10  and  C_15
REMARK    7  A    between atoms: C_21  and  C_22
REMARK                            x       y       z     vdW  Elec       q    Type
REMARK                         _______ _______ _______ _____ _____    ______ ____
ROOT
ATOM      3  N   UNL     1      -5.329 -12.518  16.744  0.00  0.00    -0.297 NA
ATOM      8  C   UNL     1      -5.624 -11.243  18.993  0.00  0.00    +0.005 C 
ATOM      9  C   UNL     1      -6.923 -11.967  18.589  0.00  0.00    +0.092 C 
ATOM     10  C   UNL     1      -4.901 -11.102  16.585  0.00  0.00    +0.078 C 
ATOM     11  C   UNL     1      -5.208 -10.284  17.859  0.00  0.00    +0.025 C 
ATOM     12  C   UNL     1      -4.531 -12.320  19.106  0.00  0.00    +0.020 C 
ATOM     13  C   UNL     1      -6.744 -12.581  17.189  0.00  0.00    +0.097 C 
ATOM     14  C   UNL     1      -4.485 -13.132  17.799  0.00  0.00    +0.085 C 
ENDROOT
BRANCH   9  16
ATOM      1  O   UNL     1      -8.610 -10.701  19.708  0.00  0.00    -0.275 OA
ATOM      4  N   UNL     1      -8.532 -10.658  17.384  0.00  0.00    -0.312 N 
ATOM     16  C   UNL     1      -8.099 -11.040  18.644  0.00  0.00    +0.218 C 
ATOM     24  H   UNL     1      -8.059 -11.011  16.557  0.00  0.00    +0.149 HD
BRANCH   4  17
ATOM     17  C   UNL     1      -9.663  -9.796  17.188  0.00  0.00    +0.073 C 
ATOM     18  C   UNL     1      -9.743  -8.901  15.995  0.00  0.00    +0.024 C 
ATOM     19  C   UNL     1      -9.535  -8.318  17.361  0.00  0.00    +0.024 C 
ENDBRANCH   4  17
ENDBRANCH   9  16
BRANCH  10  15
ATOM     15  C   UNL     1      -5.496 -10.451  15.334  0.00  0.00    +0.164 C 
BRANCH  15   5
ATOM      5  N   UNL     1      -4.571 -10.486  14.214  0.00  0.00    -0.250 N 
ATOM      6  N   UNL     1      -3.259 -10.627  14.429  0.00  0.00    -0.065 NA
ATOM      7  N   UNL     1      -2.672 -10.621  13.238  0.00  0.00    -0.132 NA
ATOM     20  C   UNL     1      -4.873 -10.387  12.898  0.00  0.00    +0.136 A 
ATOM     21  C   UNL     1      -3.646 -10.474  12.290  0.00  0.00    +0.108 A 
BRANCH  21  22
ATOM     22  C   UNL     1      -3.319 -10.430  10.859  0.00  0.00    +0.218 C 
BRANCH  22   2
ATOM      2  O   UNL     1      -3.230  -9.093  10.352  0.00  0.00    -0.377 OA
ATOM     23  C   UNL     1      -4.096  -8.908   9.245  0.00  0.00    +0.194 C 
ENDBRANCH  22   2
ENDBRANCH  21  22
ENDBRANCH  15   5
ENDBRANCH  10  15
TORSDOF 6
ENDMDL
MODEL 10
REMARK VINA RESULT:      -5.1     11.912     15.779
REMARK  Name = 11942229
REMARK  7 active torsions:
REMARK  status: ('A' for Active; 'I' for Inactive)
REMARK    1  A    between atoms: O_2  and  C_22
REMARK    2  A    between atoms: O_2  and  C_23
REMARK    3  A    between atoms: N_4  and  C_17
REMARK    4  A    between atoms: N_5  and  C_15
REMARK    5  A    between atoms: C_9  and  C_16
REMARK    6  A    between atoms: C_10  and  C_15
REMARK    7  A    between atoms: C_21  and  C_22
REMARK                            x       y       z     vdW  Elec       q    Type
REMARK                         _______ _______ _______ _____ _____    ______ ____
ROOT
ATOM      3  N   UNL     1      12.560   7.058   4.872  0.00  0.00    -0.297 NA
ATOM      8  C   UNL     1      10.705   8.770   5.505  0.00  0.00    +0.005 C 
ATOM      9  C   UNL     1      11.189   7.990   6.743  0.00  0.00    +0.092 C 
ATOM     10  C   UNL     1      11.376   6.871   3.992  0.00  0.00    +0.078 C 
ATOM     11  C   UNL     1      10.203   7.769   4.444  0.00  0.00    +0.025 C 
ATOM     12  C   UNL     1      11.936   9.480   4.917  0.00  0.00    +0.020 C 
ATOM     13  C   UNL     1      12.174   6.896   6.296  0.00  0.00    +0.097 C 
ATOM     14  C   UNL     1      13.052   8.446   4.683  0.00  0.00    +0.085 C 
ENDROOT
BRANCH   9  16
ATOM      1  O   UNL     1       9.050   8.095   7.799  0.00  0.00    -0.275 OA
ATOM      4  N   UNL     1      10.234   6.095   7.860  0.00  0.00    -0.312 N 
ATOM     16  C   UNL     1      10.035   7.420   7.510  0.00  0.00    +0.218 C 
ATOM     24  H   UNL     1      11.095   5.625   7.596  0.00  0.00    +0.149 HD
BRANCH   4  17
ATOM     17  C   UNL     1       9.275   5.348   8.623  0.00  0.00    +0.073 C 
ATOM     18  C   UNL     1       9.601   4.870  10.001  0.00  0.00    +0.024 C 
ATOM     19  C   UNL     1       9.471   3.888   8.874  0.00  0.00    +0.024 C 
ENDBRANCH   4  17
ENDBRANCH   9  16
BRANCH  10  15
ATOM     15  C   UNL     1      10.958   5.403   3.883  0.00  0.00    +0.164 C 
BRANCH  15   5
ATOM      5  N   UNL     1      11.281   4.844   2.581  0.00  0.00    -0.250 N 
ATOM      6  N   UNL     1      10.304   4.475   1.746  0.00  0.00    -0.065 NA
ATOM      7  N   UNL     1      10.892   4.004   0.653  0.00  0.00    -0.132 NA
ATOM     20  C   UNL     1      12.513   4.628   2.064  0.00  0.00    +0.136 A 
ATOM     21  C   UNL     1      12.244   4.089   0.831  0.00  0.00    +0.108 A 
BRANCH  21  22
ATOM     22  C   UNL     1      13.182   3.644  -0.207  0.00  0.00    +0.218 C 
BRANCH  22   2
ATOM      2  O   UNL     1      12.584   2.736  -1.140  0.00  0.00    -0.377 OA
ATOM     23  C   UNL     1      12.688   3.224  -2.467  0.00  0.00    +0.194 C 
ENDBRANCH  22   2
ENDBRANCH  21  22
ENDBRANCH  15   5
ENDBRANCH  10  15
TORSDOF 6
ENDMDL
