MODEL 1
REMARK VINA RESULT:      -6.3      0.000      0.000
REMARK  Name = 25390318
REMARK  9 active torsions:
REMARK  status: ('A' for Active; 'I' for Inactive)
REMARK    1  A    between atoms: O_3  and  C_9
REMARK    2  A    between atoms: O_4  and  C_10
REMARK    3  A    between atoms: N_7  and  C_13
REMARK    4  A    between atoms: N_8  and  C_18
REMARK    5  A    between atoms: C_11  and  C_13
REMARK    6  A    between atoms: C_12  and  C_14
REMARK    7  A    between atoms: C_14  and  C_15
REMARK    8  A    between atoms: C_16  and  C_17
REMARK    9  A    between atoms: C_18  and  C_23
REMARK                            x       y       z     vdW  Elec       q    Type
REMARK                         _______ _______ _______ _____ _____    ______ ____
ROOT
ATOM      2  O   UNL     1       9.746   5.947   5.832  0.00  0.00    -0.366 OA
ATOM      9  C   UNL     1      10.392   5.762   8.114  0.00  0.00    +0.176 C 
ATOM     10  C   UNL     1      11.531   6.362   7.315  0.00  0.00    +0.175 C 
ATOM     11  C   UNL     1       9.207   5.958   7.174  0.00  0.00    +0.167 C 
ATOM     12  C   UNL     1      11.182   5.916   5.906  0.00  0.00    +0.158 C 
ENDROOT
BRANCH   9   3
ATOM      3  O   UNL     1      10.593   4.359   8.286  0.00  0.00    -0.387 OA
ATOM     26  H   UNL     1      11.472   4.145   7.929  0.00  0.00    +0.210 HD
ENDBRANCH   9   3
BRANCH  10   4
ATOM      4  O   UNL     1      12.802   5.899   7.718  0.00  0.00    -0.387 OA
ATOM     27  H   UNL     1      12.662   5.211   8.392  0.00  0.00    +0.210 HD
ENDBRANCH  10   4
BRANCH  11  13
ATOM     13  C   UNL     1       8.498   7.289   7.380  0.00  0.00    +0.138 C 
BRANCH  13   7
ATOM      6  O   UNL     1       9.103   9.738   6.010  0.00  0.00    -0.270 OA
ATOM      7  N   UNL     1       7.908   7.755   6.160  0.00  0.00    -0.309 N 
ATOM     16  C   UNL     1       8.263   8.962   5.562  0.00  0.00    +0.244 C 
ATOM     28  H   UNL     1       7.166   7.186   5.768  0.00  0.00    +0.149 HD
BRANCH  16  17
ATOM      1  F   UNL     1       4.530  11.071   3.267  0.00  0.00    -0.205 F 
ATOM     17  C   UNL     1       7.540   9.315   4.314  0.00  0.00    +0.039 A 
ATOM     19  C   UNL     1       6.351  10.042   4.378  0.00  0.00    +0.051 A 
ATOM     20  C   UNL     1       8.050   8.919   3.077  0.00  0.00    +0.013 A 
ATOM     21  C   UNL     1       5.672  10.372   3.206  0.00  0.00    +0.124 A 
ATOM     22  C   UNL     1       7.370   9.250   1.905  0.00  0.00    +0.004 A 
ATOM     24  C   UNL     1       6.181   9.977   1.969  0.00  0.00    +0.038 A 
ENDBRANCH  16  17
ENDBRANCH  13   7
ENDBRANCH  11  13
BRANCH  12  14
ATOM     14  C   UNL     1      11.768   6.812   4.828  0.00  0.00    +0.130 C 
BRANCH  14  15
ATOM      5  O   UNL     1      11.768   6.859   2.409  0.00  0.00    -0.276 OA
ATOM      8  N   UNL     1      11.428   4.837   3.504  0.00  0.00    -0.304 N 
ATOM     15  C   UNL     1      11.660   6.203   3.442  0.00  0.00    +0.216 C 
ATOM     29  H   UNL     1      11.370   4.384   4.412  0.00  0.00    +0.150 HD
BRANCH   8  18
ATOM     18  C   UNL     1      11.281   4.007   2.330  0.00  0.00    +0.193 C 
BRANCH  18  23
ATOM     23  C   UNL     1      12.585   3.618   1.793  0.00  0.00    -0.087 C 
ATOM     25  C   UNL     1      13.657   3.303   1.354  0.00  0.00    +0.005 C 
ENDBRANCH  18  23
ENDBRANCH   8  18
ENDBRANCH  14  15
ENDBRANCH  12  14
TORSDOF 9
ENDMDL
MODEL 2
REMARK VINA RESULT:      -6.0      4.383      6.828
REMARK  Name = 25390318
REMARK  9 active torsions:
REMARK  status: ('A' for Active; 'I' for Inactive)
REMARK    1  A    between atoms: O_3  and  C_9
REMARK    2  A    between atoms: O_4  and  C_10
REMARK    3  A    between atoms: N_7  and  C_13
REMARK    4  A    between atoms: N_8  and  C_18
REMARK    5  A    between atoms: C_11  and  C_13
REMARK    6  A    between atoms: C_12  and  C_14
REMARK    7  A    between atoms: C_14  and  C_15
REMARK    8  A    between atoms: C_16  and  C_17
REMARK    9  A    between atoms: C_18  and  C_23
REMARK                            x       y       z     vdW  Elec       q    Type
REMARK                         _______ _______ _______ _____ _____    ______ ____
ROOT
ATOM      2  O   UNL     1      13.354   3.147  -0.099  0.00  0.00    -0.366 OA
ATOM      9  C   UNL     1      14.387   4.070   1.835  0.00  0.00    +0.176 C 
ATOM     10  C   UNL     1      14.752   4.902   0.623  0.00  0.00    +0.175 C 
ATOM     11  C   UNL     1      13.180   3.286   1.330  0.00  0.00    +0.167 C 
ATOM     12  C   UNL     1      14.494   3.922  -0.508  0.00  0.00    +0.158 C 
ENDROOT
BRANCH   9   3
ATOM      3  O   UNL     1      15.429   3.138   2.128  0.00  0.00    -0.387 OA
ATOM     26  H   UNL     1      15.023   2.386   2.592  0.00  0.00    +0.210 HD
ENDBRANCH   9   3
BRANCH  10   4
ATOM      4  O   UNL     1      16.089   5.355   0.638  0.00  0.00    -0.387 OA
ATOM     27  H   UNL     1      16.663   4.570   0.665  0.00  0.00    +0.210 HD
ENDBRANCH  10   4
BRANCH  11  13
ATOM     13  C   UNL     1      11.860   4.006   1.570  0.00  0.00    +0.138 C 
BRANCH  13   7
ATOM      6  O   UNL     1       9.992   5.887   2.672  0.00  0.00    -0.270 OA
ATOM      7  N   UNL     1      11.698   4.340   2.954  0.00  0.00    -0.309 N 
ATOM     16  C   UNL     1      10.762   5.268   3.403  0.00  0.00    +0.244 C 
ATOM     28  H   UNL     1      12.342   3.904   3.605  0.00  0.00    +0.149 HD
BRANCH  16  17
ATOM      1  F   UNL     1      12.450   7.558   7.347  0.00  0.00    -0.205 F 
ATOM     17  C   UNL     1      10.736   5.521   4.866  0.00  0.00    +0.039 A 
ATOM     19  C   UNL     1      11.623   6.439   5.431  0.00  0.00    +0.051 A 
ATOM     20  C   UNL     1       9.825   4.843   5.675  0.00  0.00    +0.013 A 
ATOM     21  C   UNL     1      11.599   6.676   6.805  0.00  0.00    +0.124 A 
ATOM     22  C   UNL     1       9.802   5.080   7.050  0.00  0.00    +0.004 A 
ATOM     24  C   UNL     1      10.689   5.997   7.614  0.00  0.00    +0.038 A 
ENDBRANCH  16  17
ENDBRANCH  13   7
ENDBRANCH  11  13
BRANCH  12  14
ATOM     14  C   UNL     1      14.202   4.600  -1.836  0.00  0.00    +0.130 C 
BRANCH  14  15
ATOM      5  O   UNL     1      12.382   6.158  -1.498  0.00  0.00    -0.276 OA
ATOM      8  N   UNL     1      11.966   4.149  -2.591  0.00  0.00    -0.304 N 
ATOM     15  C   UNL     1      12.765   5.078  -1.941  0.00  0.00    +0.216 C 
ATOM     29  H   UNL     1      12.385   3.289  -2.935  0.00  0.00    +0.150 HD
BRANCH   8  18
ATOM     18  C   UNL     1      10.555   4.349  -2.826  0.00  0.00    +0.193 C 
BRANCH  18  23
ATOM     23  C   UNL     1       9.943   3.154  -3.407  0.00  0.00    -0.087 C 
ATOM     25  C   UNL     1       9.441   2.171  -3.881  0.00  0.00    +0.005 C 
ENDBRANCH  18  23
ENDBRANCH   8  18
ENDBRANCH  14  15
ENDBRANCH  12  14
TORSDOF 9
ENDMDL
MODEL 3
REMARK VINA RESULT:      -6.0     24.179     26.423
REMARK  Name = 25390318
REMARK  9 active torsions:
REMARK  status: ('A' for Active; 'I' for Inactive)
REMARK    1  A    between atoms: O_3  and  C_9
REMARK    2  A    between atoms: O_4  and  C_10
REMARK    3  A    between atoms: N_7  and  C_13
REMARK    4  A    between atoms: N_8  and  C_18
REMARK    5  A    between atoms: C_11  and  C_13
REMARK    6  A    between atoms: C_12  and  C_14
REMARK    7  A    between atoms: C_14  and  C_15
REMARK    8  A    between atoms: C_16  and  C_17
REMARK    9  A    between atoms: C_18  and  C_23
REMARK                            x       y       z     vdW  Elec       q    Type
REMARK                         _______ _______ _______ _____ _____    ______ ____
ROOT
ATOM      2  O   UNL     1      -5.723 -10.263  18.285  0.00  0.00    -0.366 OA
ATOM      9  C   UNL     1      -4.323 -11.606  16.906  0.00  0.00    +0.176 C 
ATOM     10  C   UNL     1      -5.179 -12.501  17.778  0.00  0.00    +0.175 C 
ATOM     11  C   UNL     1      -5.061 -10.274  17.000  0.00  0.00    +0.167 C 
ATOM     12  C   UNL     1      -5.565 -11.554  18.901  0.00  0.00    +0.158 C 
ENDROOT
BRANCH   9   3
ATOM      3  O   UNL     1      -3.030 -11.438  17.487  0.00  0.00    -0.387 OA
ATOM     26  H   UNL     1      -2.618 -10.668  17.061  0.00  0.00    +0.210 HD
ENDBRANCH   9   3
BRANCH  10   4
ATOM      4  O   UNL     1      -4.493 -13.638  18.256  0.00  0.00    -0.387 OA
ATOM     27  H   UNL     1      -4.100 -14.086  17.487  0.00  0.00    +0.210 HD
ENDBRANCH  10   4
BRANCH  11  13
ATOM     13  C   UNL     1      -6.126 -10.107  15.925  0.00  0.00    +0.138 C 
BRANCH  13   7
ATOM      6  O   UNL     1      -5.766 -11.774  13.616  0.00  0.00    -0.270 OA
ATOM      7  N   UNL     1      -5.544  -9.721  14.674  0.00  0.00    -0.309 N 
ATOM     16  C   UNL     1      -5.408 -10.599  13.601  0.00  0.00    +0.244 C 
ATOM     28  H   UNL     1      -5.176  -8.778  14.616  0.00  0.00    +0.149 HD
BRANCH  16  17
ATOM      1  F   UNL     1      -5.460  -7.690   9.705  0.00  0.00    -0.205 F 
ATOM     17  C   UNL     1      -4.759 -10.052  12.383  0.00  0.00    +0.039 A 
ATOM     19  C   UNL     1      -5.428  -9.109  11.600  0.00  0.00    +0.051 A 
ATOM     20  C   UNL     1      -3.482 -10.480  12.020  0.00  0.00    +0.013 A 
ATOM     21  C   UNL     1      -4.819  -8.596  10.456  0.00  0.00    +0.124 A 
ATOM     22  C   UNL     1      -2.874  -9.967  10.874  0.00  0.00    +0.004 A 
ATOM     24  C   UNL     1      -3.543  -9.024  10.093  0.00  0.00    +0.038 A 
ENDBRANCH  16  17
ENDBRANCH  13   7
ENDBRANCH  11  13
BRANCH  12  14
ATOM     14  C   UNL     1      -6.854 -11.945  19.603  0.00  0.00    +0.130 C 
BRANCH  14  15
ATOM      5  O   UNL     1      -8.433 -12.442  17.839  0.00  0.00    -0.276 OA
ATOM      8  N   UNL     1      -8.736 -10.531  19.126  0.00  0.00    -0.304 N 
ATOM     15  C   UNL     1      -8.083 -11.694  18.747  0.00  0.00    +0.216 C 
ATOM     29  H   UNL     1      -8.372  -9.988  19.905  0.00  0.00    +0.150 HD
BRANCH   8  18
ATOM     18  C   UNL     1      -9.935 -10.052  18.477  0.00  0.00    +0.193 C 
BRANCH  18  23
ATOM     23  C   UNL     1      -9.630  -8.979  17.532  0.00  0.00    -0.087 C 
ATOM     25  C   UNL     1      -9.380  -8.096  16.758  0.00  0.00    +0.005 C 
ENDBRANCH  18  23
ENDBRANCH   8  18
ENDBRANCH  14  15
ENDBRANCH  12  14
TORSDOF 9
ENDMDL
MODEL 4
REMARK VINA RESULT:      -6.0      3.815      6.532
REMARK  Name = 25390318
REMARK  9 active torsions:
REMARK  status: ('A' for Active; 'I' for Inactive)
REMARK    1  A    between atoms: O_3  and  C_9
REMARK    2  A    between atoms: O_4  and  C_10
REMARK    3  A    between atoms: N_7  and  C_13
REMARK    4  A    between atoms: N_8  and  C_18
REMARK    5  A    between atoms: C_11  and  C_13
REMARK    6  A    between atoms: C_12  and  C_14
REMARK    7  A    between atoms: C_14  and  C_15
REMARK    8  A    between atoms: C_16  and  C_17
REMARK    9  A    between atoms: C_18  and  C_23
REMARK                            x       y       z     vdW  Elec       q    Type
REMARK                         _______ _______ _______ _____ _____    ______ ____
ROOT
ATOM      2  O   UNL     1      10.620   8.594   5.600  0.00  0.00    -0.366 OA
ATOM      9  C   UNL     1      12.979   8.906   5.555  0.00  0.00    +0.176 C 
ATOM     10  C   UNL     1      12.469   9.125   6.965  0.00  0.00    +0.175 C 
ATOM     11  C   UNL     1      11.814   8.162   4.909  0.00  0.00    +0.167 C 
ATOM     12  C   UNL     1      11.000   9.421   6.715  0.00  0.00    +0.158 C 
ENDROOT
BRANCH   9   3
ATOM      3  O   UNL     1      13.132  10.156   4.884  0.00  0.00    -0.387 OA
ATOM     26  H   UNL     1      12.243  10.531   4.761  0.00  0.00    +0.210 HD
ENDBRANCH   9   3
BRANCH  10   4
ATOM      4  O   UNL     1      13.116  10.184   7.636  0.00  0.00    -0.387 OA
ATOM     27  H   UNL     1      12.468  10.902   7.743  0.00  0.00    +0.210 HD
ENDBRANCH  10   4
BRANCH  11  13
ATOM     13  C   UNL     1      11.918   6.650   5.057  0.00  0.00    +0.138 C 
BRANCH  13   7
ATOM      6  O   UNL     1      10.215   4.736   3.762  0.00  0.00    -0.270 OA
ATOM      7  N   UNL     1      12.146   6.020   3.791  0.00  0.00    -0.309 N 
ATOM     16  C   UNL     1      11.263   5.099   3.234  0.00  0.00    +0.244 C 
ATOM     28  H   UNL     1      13.023   6.235   3.328  0.00  0.00    +0.149 HD
BRANCH  16  17
ATOM      1  F   UNL     1      10.392   4.258  -1.475  0.00  0.00    -0.205 F 
ATOM     17  C   UNL     1      11.657   4.516   1.927  0.00  0.00    +0.039 A 
ATOM     19  C   UNL     1      10.823   4.663   0.818  0.00  0.00    +0.051 A 
ATOM     20  C   UNL     1      12.861   3.823   1.806  0.00  0.00    +0.013 A 
ATOM     21  C   UNL     1      11.193   4.116  -0.410  0.00  0.00    +0.124 A 
ATOM     22  C   UNL     1      13.231   3.275   0.577  0.00  0.00    +0.004 A 
ATOM     24  C   UNL     1      12.396   3.423  -0.531  0.00  0.00    +0.038 A 
ENDBRANCH  16  17
ENDBRANCH  13   7
ENDBRANCH  11  13
BRANCH  12  14
ATOM     14  C   UNL     1      10.112   9.110   7.907  0.00  0.00    +0.130 C 
BRANCH  14  15
ATOM      5  O   UNL     1       8.196   7.720   7.407  0.00  0.00    -0.276 OA
ATOM      8  N   UNL     1      10.187   6.714   8.056  0.00  0.00    -0.304 N 
ATOM     15  C   UNL     1       9.371   7.794   7.755  0.00  0.00    +0.216 C 
ATOM     29  H   UNL     1      11.155   6.882   8.320  0.00  0.00    +0.150 HD
BRANCH   8  18
ATOM     18  C   UNL     1       9.737   5.343   7.995  0.00  0.00    +0.193 C 
BRANCH  18  23
ATOM     23  C   UNL     1       9.278   4.880   9.304  0.00  0.00    -0.087 C 
ATOM     25  C   UNL     1       8.898   4.500  10.378  0.00  0.00    +0.005 C 
ENDBRANCH  18  23
ENDBRANCH   8  18
ENDBRANCH  14  15
ENDBRANCH  12  14
TORSDOF 9
ENDMDL
MODEL 5
REMARK VINA RESULT:      -5.9     24.344     26.533
REMARK  Name = 25390318
REMARK  9 active torsions:
REMARK  status: ('A' for Active; 'I' for Inactive)
REMARK    1  A    between atoms: O_3  and  C_9
REMARK    2  A    between atoms: O_4  and  C_10
REMARK    3  A    between atoms: N_7  and  C_13
REMARK    4  A    between atoms: N_8  and  C_18
REMARK    5  A    between atoms: C_11  and  C_13
REMARK    6  A    between atoms: C_12  and  C_14
REMARK    7  A    between atoms: C_14  and  C_15
REMARK    8  A    between atoms: C_16  and  C_17
REMARK    9  A    between atoms: C_18  and  C_23
REMARK                            x       y       z     vdW  Elec       q    Type
REMARK                         _______ _______ _______ _____ _____    ______ ____
ROOT
ATOM      2  O   UNL     1      -6.217 -11.053  17.291  0.00  0.00    -0.366 OA
ATOM      9  C   UNL     1      -5.825 -11.099  19.637  0.00  0.00    +0.176 C 
ATOM     10  C   UNL     1      -6.745 -12.242  19.258  0.00  0.00    +0.175 C 
ATOM     11  C   UNL     1      -5.227 -10.712  18.288  0.00  0.00    +0.167 C 
ATOM     12  C   UNL     1      -7.297 -11.759  17.927  0.00  0.00    +0.158 C 
ENDROOT
BRANCH   9   3
ATOM      3  O   UNL     1      -6.585  -9.991  20.119  0.00  0.00    -0.387 OA
ATOM     26  H   UNL     1      -6.563 -10.024  21.091  0.00  0.00    +0.210 HD
ENDBRANCH   9   3
BRANCH  10   4
ATOM      4  O   UNL     1      -7.767 -12.475  20.202  0.00  0.00    -0.387 OA
ATOM     27  H   UNL     1      -8.518 -11.902  19.967  0.00  0.00    +0.210 HD
ENDBRANCH  10   4
BRANCH  11  13
ATOM     13  C   UNL     1      -3.952 -11.477  17.961  0.00  0.00    +0.138 C 
BRANCH  13   7
ATOM      6  O   UNL     1      -1.652 -10.717  16.421  0.00  0.00    -0.270 OA
ATOM      7  N   UNL     1      -3.785 -11.621  16.545  0.00  0.00    -0.309 N 
ATOM     16  C   UNL     1      -2.629 -11.223  15.876  0.00  0.00    +0.244 C 
ATOM     28  H   UNL     1      -4.579 -11.982  16.028  0.00  0.00    +0.149 HD
BRANCH  16  17
ATOM      1  F   UNL     1      -1.740  -9.590  11.383  0.00  0.00    -0.205 F 
ATOM     17  C   UNL     1      -2.623 -11.417  14.404  0.00  0.00    +0.039 A 
ATOM     19  C   UNL     1      -2.176 -10.392  13.568  0.00  0.00    +0.051 A 
ATOM     20  C   UNL     1      -3.062 -12.622  13.856  0.00  0.00    +0.013 A 
ATOM     21  C   UNL     1      -2.170 -10.574  12.186  0.00  0.00    +0.124 A 
ATOM     22  C   UNL     1      -3.057 -12.802  12.473  0.00  0.00    +0.004 A 
ATOM     24  C   UNL     1      -2.610 -11.778  11.638  0.00  0.00    +0.038 A 
ENDBRANCH  16  17
ENDBRANCH  13   7
ENDBRANCH  11  13
BRANCH  12  14
ATOM     14  C   UNL     1      -7.770 -12.888  17.027  0.00  0.00    +0.130 C 
BRANCH  14  15
ATOM      5  O   UNL     1      -5.918 -13.753  15.733  0.00  0.00    -0.276 OA
ATOM      8  N   UNL     1      -7.403 -12.272  14.734  0.00  0.00    -0.304 N 
ATOM     15  C   UNL     1      -6.914 -13.037  15.782  0.00  0.00    +0.216 C 
ATOM     29  H   UNL     1      -8.248 -11.723  14.873  0.00  0.00    +0.150 HD
BRANCH   8  18
ATOM     18  C   UNL     1      -6.780 -12.226  13.432  0.00  0.00    +0.193 C 
BRANCH  18  23
ATOM     23  C   UNL     1      -6.241 -10.896  13.152  0.00  0.00    -0.087 C 
ATOM     25  C   UNL     1      -5.797  -9.805  12.919  0.00  0.00    +0.005 C 
ENDBRANCH  18  23
ENDBRANCH   8  18
ENDBRANCH  14  15
ENDBRANCH  12  14
TORSDOF 9
ENDMDL
MODEL 6
REMARK VINA RESULT:      -5.9     24.248     26.604
REMARK  Name = 25390318
REMARK  9 active torsions:
REMARK  status: ('A' for Active; 'I' for Inactive)
REMARK    1  A    between atoms: O_3  and  C_9
REMARK    2  A    between atoms: O_4  and  C_10
REMARK    3  A    between atoms: N_7  and  C_13
REMARK    4  A    between atoms: N_8  and  C_18
REMARK    5  A    between atoms: C_11  and  C_13
REMARK    6  A    between atoms: C_12  and  C_14
REMARK    7  A    between atoms: C_14  and  C_15
REMARK    8  A    between atoms: C_16  and  C_17
REMARK    9  A    between atoms: C_18  and  C_23
REMARK                            x       y       z     vdW  Elec       q    Type
REMARK                         _______ _______ _______ _____ _____    ______ ____
ROOT
ATOM      2  O   UNL     1      -6.367  -9.649  17.048  0.00  0.00    -0.366 OA
ATOM      9  C   UNL     1      -6.690 -10.915  19.037  0.00  0.00    +0.176 C 
ATOM     10  C   UNL     1      -8.035 -10.608  18.411  0.00  0.00    +0.175 C 
ATOM     11  C   UNL     1      -5.734 -10.649  17.879  0.00  0.00    +0.167 C 
ATOM     12  C   UNL     1      -7.699  -9.412  17.538  0.00  0.00    +0.158 C 
ENDROOT
BRANCH   9   3
ATOM      3  O   UNL     1      -6.401  -9.977  20.074  0.00  0.00    -0.387 OA
ATOM     26  H   UNL     1      -5.436  -9.960  20.189  0.00  0.00    +0.210 HD
ENDBRANCH   9   3
BRANCH  10   4
ATOM      4  O   UNL     1      -9.038 -10.308  19.358  0.00  0.00    -0.387 OA
ATOM     27  H   UNL     1      -9.827 -10.020  18.867  0.00  0.00    +0.210 HD
ENDBRANCH  10   4
BRANCH  11  13
ATOM     13  C   UNL     1      -5.484 -11.879  17.018  0.00  0.00    +0.138 C 
BRANCH  13   7
ATOM      6  O   UNL     1      -2.851 -11.053  16.228  0.00  0.00    -0.270 OA
ATOM      7  N   UNL     1      -5.063 -11.512  15.699  0.00  0.00    -0.309 N 
ATOM     16  C   UNL     1      -3.759 -11.121  15.403  0.00  0.00    +0.244 C 
ATOM     28  H   UNL     1      -5.779 -11.494  14.982  0.00  0.00    +0.149 HD
BRANCH  16  17
ATOM      1  F   UNL     1      -5.297  -9.647  11.032  0.00  0.00    -0.205 F 
ATOM     17  C   UNL     1      -3.489 -10.746  13.992  0.00  0.00    +0.039 A 
ATOM     19  C   UNL     1      -4.541 -10.365  13.158  0.00  0.00    +0.051 A 
ATOM     20  C   UNL     1      -2.184 -10.774  13.500  0.00  0.00    +0.013 A 
ATOM     21  C   UNL     1      -4.287 -10.013  11.833  0.00  0.00    +0.124 A 
ATOM     22  C   UNL     1      -1.931 -10.422  12.174  0.00  0.00    +0.004 A 
ATOM     24  C   UNL     1      -2.983 -10.042  11.341  0.00  0.00    +0.038 A 
ENDBRANCH  16  17
ENDBRANCH  13   7
ENDBRANCH  11  13
BRANCH  12  14
ATOM     14  C   UNL     1      -8.650  -9.236  16.366  0.00  0.00    +0.130 C 
BRANCH  14  15
ATOM      5  O   UNL     1     -10.437  -8.185  17.613  0.00  0.00    -0.276 OA
ATOM      8  N   UNL     1      -9.727  -7.222  15.621  0.00  0.00    -0.304 N 
ATOM     15  C   UNL     1      -9.705  -8.177  16.627  0.00  0.00    +0.216 C 
ATOM     29  H   UNL     1      -9.066  -7.297  14.852  0.00  0.00    +0.150 HD
BRANCH   8  18
ATOM     18  C   UNL     1     -10.638  -6.100  15.617  0.00  0.00    +0.193 C 
BRANCH  18  23
ATOM     23  C   UNL     1     -11.945  -6.485  15.086  0.00  0.00    -0.087 C 
ATOM     25  C   UNL     1     -13.018  -6.797  14.647  0.00  0.00    +0.005 C 
ENDBRANCH  18  23
ENDBRANCH   8  18
ENDBRANCH  14  15
ENDBRANCH  12  14
TORSDOF 9
ENDMDL
MODEL 7
REMARK VINA RESULT:      -5.9     22.862     24.628
REMARK  Name = 25390318
REMARK  9 active torsions:
REMARK  status: ('A' for Active; 'I' for Inactive)
REMARK    1  A    between atoms: O_3  and  C_9
REMARK    2  A    between atoms: O_4  and  C_10
REMARK    3  A    between atoms: N_7  and  C_13
REMARK    4  A    between atoms: N_8  and  C_18
REMARK    5  A    between atoms: C_11  and  C_13
REMARK    6  A    between atoms: C_12  and  C_14
REMARK    7  A    between atoms: C_14  and  C_15
REMARK    8  A    between atoms: C_16  and  C_17
REMARK    9  A    between atoms: C_18  and  C_23
REMARK                            x       y       z     vdW  Elec       q    Type
REMARK                         _______ _______ _______ _____ _____    ______ ____
ROOT
ATOM      2  O   UNL     1      -4.767 -11.447  15.386  0.00  0.00    -0.366 OA
ATOM      9  C   UNL     1      -6.295 -11.316  17.205  0.00  0.00    +0.176 C 
ATOM     10  C   UNL     1      -4.941 -10.797  17.646  0.00  0.00    +0.175 C 
ATOM     11  C   UNL     1      -6.170 -11.274  15.685  0.00  0.00    +0.167 C 
ATOM     12  C   UNL     1      -4.022 -11.433  16.617  0.00  0.00    +0.158 C 
ENDROOT
BRANCH   9   3
ATOM      3  O   UNL     1      -6.456 -12.678  17.598  0.00  0.00    -0.387 OA
ATOM     26  H   UNL     1      -5.841 -12.843  18.333  0.00  0.00    +0.210 HD
ENDBRANCH   9   3
BRANCH  10   4
ATOM      4  O   UNL     1      -4.601 -11.171  18.963  0.00  0.00    -0.387 OA
ATOM     27  H   UNL     1      -4.363 -10.360  19.444  0.00  0.00    +0.210 HD
ENDBRANCH  10   4
BRANCH  11  13
ATOM     13  C   UNL     1      -6.613  -9.945  15.088  0.00  0.00    +0.138 C 
BRANCH  13   7
ATOM      6  O   UNL     1      -7.820  -9.654  12.499  0.00  0.00    -0.270 OA
ATOM      7  N   UNL     1      -5.936  -9.682  13.853  0.00  0.00    -0.309 N 
ATOM     16  C   UNL     1      -6.604  -9.555  12.637  0.00  0.00    +0.244 C 
ATOM     28  H   UNL     1      -4.924  -9.644  13.889  0.00  0.00    +0.149 HD
BRANCH  16  17
ATOM      1  F   UNL     1      -2.269  -9.565  10.433  0.00  0.00    -0.205 F 
ATOM     17  C   UNL     1      -5.755  -9.308  11.444  0.00  0.00    +0.039 A 
ATOM     19  C   UNL     1      -4.383  -9.557  11.500  0.00  0.00    +0.051 A 
ATOM     20  C   UNL     1      -6.329  -8.826  10.267  0.00  0.00    +0.013 A 
ATOM     21  C   UNL     1      -3.586  -9.325  10.379  0.00  0.00    +0.124 A 
ATOM     22  C   UNL     1      -5.530  -8.594   9.147  0.00  0.00    +0.004 A 
ATOM     24  C   UNL     1      -4.159  -8.843   9.203  0.00  0.00    +0.038 A 
ENDBRANCH  16  17
ENDBRANCH  13   7
ENDBRANCH  11  13
BRANCH  12  14
ATOM     14  C   UNL     1      -2.723 -10.671  16.419  0.00  0.00    +0.130 C 
BRANCH  14  15
ATOM      5  O   UNL     1      -1.612 -10.113  14.343  0.00  0.00    -0.276 OA
ATOM      8  N   UNL     1      -2.045 -12.343  14.832  0.00  0.00    -0.304 N 
ATOM     15  C   UNL     1      -2.064 -10.979  15.086  0.00  0.00    +0.216 C 
ATOM     29  H   UNL     1      -2.433 -12.981  15.522  0.00  0.00    +0.150 HD
BRANCH   8  18
ATOM     18  C   UNL     1      -1.478 -12.915  13.633  0.00  0.00    +0.193 C 
BRANCH  18  23
ATOM     23  C   UNL     1      -2.468 -12.972  12.557  0.00  0.00    -0.087 C 
ATOM     25  C   UNL     1      -3.279 -13.022  11.673  0.00  0.00    +0.005 C 
ENDBRANCH  18  23
ENDBRANCH   8  18
ENDBRANCH  14  15
ENDBRANCH  12  14
TORSDOF 9
ENDMDL
MODEL 8
REMARK VINA RESULT:      -5.8     25.870     27.839
REMARK  Name = 25390318
REMARK  9 active torsions:
REMARK  status: ('A' for Active; 'I' for Inactive)
REMARK    1  A    between atoms: O_3  and  C_9
REMARK    2  A    between atoms: O_4  and  C_10
REMARK    3  A    between atoms: N_7  and  C_13
REMARK    4  A    between atoms: N_8  and  C_18
REMARK    5  A    between atoms: C_11  and  C_13
REMARK    6  A    between atoms: C_12  and  C_14
REMARK    7  A    between atoms: C_14  and  C_15
REMARK    8  A    between atoms: C_16  and  C_17
REMARK    9  A    between atoms: C_18  and  C_23
REMARK                            x       y       z     vdW  Elec       q    Type
REMARK                         _______ _______ _______ _____ _____    ______ ____
ROOT
ATOM      2  O   UNL     1      -6.434 -11.704  17.183  0.00  0.00    -0.366 OA
ATOM      9  C   UNL     1      -4.741 -12.271  18.755  0.00  0.00    +0.176 C 
ATOM     10  C   UNL     1      -4.192 -11.266  17.764  0.00  0.00    +0.175 C 
ATOM     11  C   UNL     1      -6.246 -12.126  18.553  0.00  0.00    +0.167 C 
ATOM     12  C   UNL     1      -5.148 -11.434  16.597  0.00  0.00    +0.158 C 
ENDROOT
BRANCH   9   3
ATOM      3  O   UNL     1      -4.369 -13.596  18.374  0.00  0.00    -0.387 OA
ATOM     26  H   UNL     1      -5.160 -14.025  18.006  0.00  0.00    +0.210 HD
ENDBRANCH   9   3
BRANCH  10   4
ATOM      4  O   UNL     1      -2.854 -11.519  17.394  0.00  0.00    -0.387 OA
ATOM     27  H   UNL     1      -2.723 -12.483  17.411  0.00  0.00    +0.210 HD
ENDBRANCH  10   4
BRANCH  11  13
ATOM     13  C   UNL     1      -6.868 -11.070  19.456  0.00  0.00    +0.138 C 
BRANCH  13   7
ATOM      6  O   UNL     1      -9.658 -10.972  20.126  0.00  0.00    -0.270 OA
ATOM      7  N   UNL     1      -7.889 -10.337  18.767  0.00  0.00    -0.309 N 
ATOM     16  C   UNL     1      -9.224 -10.346  19.163  0.00  0.00    +0.244 C 
ATOM     28  H   UNL     1      -7.605  -9.842  17.928  0.00  0.00    +0.149 HD
BRANCH  16  17
ATOM      1  F   UNL     1     -10.131  -6.655  16.130  0.00  0.00    -0.205 F 
ATOM     17  C   UNL     1     -10.163  -9.554  18.328  0.00  0.00    +0.039 A 
ATOM     19  C   UNL     1      -9.697  -8.454  17.607  0.00  0.00    +0.051 A 
ATOM     20  C   UNL     1     -11.510  -9.911  18.264  0.00  0.00    +0.013 A 
ATOM     21  C   UNL     1     -10.579  -7.711  16.823  0.00  0.00    +0.124 A 
ATOM     22  C   UNL     1     -12.392  -9.166  17.480  0.00  0.00    +0.004 A 
ATOM     24  C   UNL     1     -11.925  -8.066  16.759  0.00  0.00    +0.038 A 
ENDBRANCH  16  17
ENDBRANCH  13   7
ENDBRANCH  11  13
BRANCH  12  14
ATOM     14  C   UNL     1      -5.239 -10.204  15.710  0.00  0.00    +0.130 C 
BRANCH  14  15
ATOM      5  O   UNL     1      -6.170 -10.967  13.611  0.00  0.00    -0.276 OA
ATOM      8  N   UNL     1      -7.466  -9.639  15.011  0.00  0.00    -0.304 N 
ATOM     15  C   UNL     1      -6.318 -10.329  14.650  0.00  0.00    +0.216 C 
ATOM     29  H   UNL     1      -7.493  -9.153  15.903  0.00  0.00    +0.150 HD
BRANCH   8  18
ATOM     18  C   UNL     1      -8.650  -9.588  14.183  0.00  0.00    +0.193 C 
BRANCH  18  23
ATOM     23  C   UNL     1      -9.640 -10.571  14.620  0.00  0.00    -0.087 C 
ATOM     25  C   UNL     1     -10.451 -11.380  14.981  0.00  0.00    +0.005 C 
ENDBRANCH  18  23
ENDBRANCH   8  18
ENDBRANCH  14  15
ENDBRANCH  12  14
TORSDOF 9
ENDMDL
MODEL 9
REMARK VINA RESULT:      -5.8     30.533     33.019
REMARK  Name = 25390318
REMARK  9 active torsions:
REMARK  status: ('A' for Active; 'I' for Inactive)
REMARK    1  A    between atoms: O_3  and  C_9
REMARK    2  A    between atoms: O_4  and  C_10
REMARK    3  A    between atoms: N_7  and  C_13
REMARK    4  A    between atoms: N_8  and  C_18
REMARK    5  A    between atoms: C_11  and  C_13
REMARK    6  A    between atoms: C_12  and  C_14
REMARK    7  A    between atoms: C_14  and  C_15
REMARK    8  A    between atoms: C_16  and  C_17
REMARK    9  A    between atoms: C_18  and  C_23
REMARK                            x       y       z     vdW  Elec       q    Type
REMARK                         _______ _______ _______ _____ _____    ______ ____
ROOT
ATOM      2  O   UNL     1     -17.505   5.088  23.896  0.00  0.00    -0.366 OA
ATOM      9  C   UNL     1     -15.803   3.443  24.140  0.00  0.00    +0.176 C 
ATOM     10  C   UNL     1     -15.246   4.638  23.393  0.00  0.00    +0.175 C 
ATOM     11  C   UNL     1     -17.064   4.025  24.771  0.00  0.00    +0.167 C 
ATOM     12  C   UNL     1     -16.514   5.290  22.872  0.00  0.00    +0.158 C 
ENDROOT
BRANCH   9   3
ATOM      3  O   UNL     1     -16.197   2.424  23.221  0.00  0.00    -0.387 OA
ATOM     26  H   UNL     1     -16.200   2.819  22.333  0.00  0.00    +0.210 HD
ENDBRANCH   9   3
BRANCH  10   4
ATOM      4  O   UNL     1     -14.365   4.283  22.349  0.00  0.00    -0.387 OA
ATOM     27  H   UNL     1     -14.539   4.883  21.603  0.00  0.00    +0.210 HD
ENDBRANCH  10   4
BRANCH  11  13
ATOM     13  C   UNL     1     -16.819   4.626  26.148  0.00  0.00    +0.138 C 
BRANCH  13   7
ATOM      6  O   UNL     1     -16.535   4.845  28.996  0.00  0.00    -0.270 OA
ATOM      7  N   UNL     1     -16.189   3.679  27.020  0.00  0.00    -0.309 N 
ATOM     16  C   UNL     1     -16.095   3.867  28.397  0.00  0.00    +0.244 C 
ATOM     28  H   UNL     1     -15.756   2.875  26.581  0.00  0.00    +0.149 HD
BRANCH  16  17
ATOM      1  F   UNL     1     -12.909   2.488  31.802  0.00  0.00    -0.205 F 
ATOM     17  C   UNL     1     -15.389   2.805  29.159  0.00  0.00    +0.039 A 
ATOM     19  C   UNL     1     -14.462   3.152  30.143  0.00  0.00    +0.051 A 
ATOM     20  C   UNL     1     -15.652   1.462  28.891  0.00  0.00    +0.013 A 
ATOM     21  C   UNL     1     -13.799   2.155  30.857  0.00  0.00    +0.124 A 
ATOM     22  C   UNL     1     -14.987   0.465  29.606  0.00  0.00    +0.004 A 
ATOM     24  C   UNL     1     -14.061   0.813  30.589  0.00  0.00    +0.038 A 
ENDBRANCH  16  17
ENDBRANCH  13   7
ENDBRANCH  11  13
BRANCH  12  14
ATOM     14  C   UNL     1     -16.358   6.776  22.598  0.00  0.00    +0.130 C 
BRANCH  14  15
ATOM      5  O   UNL     1     -15.443   6.430  20.386  0.00  0.00    -0.276 OA
ATOM      8  N   UNL     1     -14.552   8.102  21.732  0.00  0.00    -0.304 N 
ATOM     15  C   UNL     1     -15.419   7.059  21.440  0.00  0.00    +0.216 C 
ATOM     29  H   UNL     1     -14.625   8.570  22.631  0.00  0.00    +0.150 HD
BRANCH   8  18
ATOM     18  C   UNL     1     -13.551   8.579  20.806  0.00  0.00    +0.193 C 
BRANCH  18  23
ATOM     23  C   UNL     1     -12.402   7.675  20.760  0.00  0.00    -0.087 C 
ATOM     25  C   UNL     1     -11.458   6.933  20.726  0.00  0.00    +0.005 C 
ENDBRANCH  18  23
ENDBRANCH   8  18
ENDBRANCH  14  15
ENDBRANCH  12  14
TORSDOF 9
ENDMDL
MODEL 10
REMARK VINA RESULT:      -5.7     16.845     18.578
REMARK  Name = 25390318
REMARK  9 active torsions:
REMARK  status: ('A' for Active; 'I' for Inactive)
REMARK    1  A    between atoms: O_3  and  C_9
REMARK    2  A    between atoms: O_4  and  C_10
REMARK    3  A    between atoms: N_7  and  C_13
REMARK    4  A    between atoms: N_8  and  C_18
REMARK    5  A    between atoms: C_11  and  C_13
REMARK    6  A    between atoms: C_12  and  C_14
REMARK    7  A    between atoms: C_14  and  C_15
REMARK    8  A    between atoms: C_16  and  C_17
REMARK    9  A    between atoms: C_18  and  C_23
REMARK                            x       y       z     vdW  Elec       q    Type
REMARK                         _______ _______ _______ _____ _____    ______ ____
ROOT
ATOM      2  O   UNL     1      15.245   8.721  20.587  0.00  0.00    -0.366 OA
ATOM      9  C   UNL     1      15.475   6.362  20.374  0.00  0.00    +0.176 C 
ATOM     10  C   UNL     1      16.686   6.924  21.090  0.00  0.00    +0.175 C 
ATOM     11  C   UNL     1      14.471   7.502  20.508  0.00  0.00    +0.167 C 
ATOM     12  C   UNL     1      16.641   8.382  20.668  0.00  0.00    +0.158 C 
ENDROOT
BRANCH   9   3
ATOM      3  O   UNL     1      15.759   6.184  18.986  0.00  0.00    -0.387 OA
ATOM     26  H   UNL     1      16.714   6.015  18.904  0.00  0.00    +0.210 HD
ENDBRANCH   9   3
BRANCH  10   4
ATOM      4  O   UNL     1      17.896   6.301  20.716  0.00  0.00    -0.387 OA
ATOM     27  H   UNL     1      18.563   6.534  21.385  0.00  0.00    +0.210 HD
ENDBRANCH  10   4
BRANCH  11  13
ATOM     13  C   UNL     1      13.625   7.405  21.770  0.00  0.00    +0.138 C 
BRANCH  13   7
ATOM      6  O   UNL     1      10.940   8.376  21.468  0.00  0.00    -0.270 OA
ATOM      7  N   UNL     1      13.131   8.692  22.162  0.00  0.00    -0.309 N 
ATOM     16  C   UNL     1      11.807   9.081  21.978  0.00  0.00    +0.244 C 
ATOM     28  H   UNL     1      13.811   9.344  22.539  0.00  0.00    +0.149 HD
BRANCH  16  17
ATOM      1  F   UNL     1      11.274  13.825  21.048  0.00  0.00    -0.205 F 
ATOM     17  C   UNL     1      11.459  10.457  22.415  0.00  0.00    +0.039 A 
ATOM     19  C   UNL     1      11.532  11.516  21.508  0.00  0.00    +0.051 A 
ATOM     20  C   UNL     1      11.061  10.692  23.731  0.00  0.00    +0.013 A 
ATOM     21  C   UNL     1      11.205  12.808  21.919  0.00  0.00    +0.124 A 
ATOM     22  C   UNL     1      10.735  11.985  24.141  0.00  0.00    +0.004 A 
ATOM     24  C   UNL     1      10.807  13.043  23.234  0.00  0.00    +0.038 A 
ENDBRANCH  16  17
ENDBRANCH  13   7
ENDBRANCH  11  13
BRANCH  12  14
ATOM     14  C   UNL     1      17.337   9.314  21.645  0.00  0.00    +0.130 C 
BRANCH  14  15
ATOM      5  O   UNL     1      16.897  11.610  21.024  0.00  0.00    -0.276 OA
ATOM      8  N   UNL     1      15.712  10.665  22.786  0.00  0.00    -0.304 N 
ATOM     15  C   UNL     1      16.645  10.660  21.760  0.00  0.00    +0.216 C 
ATOM     29  H   UNL     1      15.567   9.818  23.329  0.00  0.00    +0.150 HD
BRANCH   8  18
ATOM     18  C   UNL     1      14.910  11.820  23.117  0.00  0.00    +0.193 C 
BRANCH  18  23
ATOM     23  C   UNL     1      14.508  11.797  24.523  0.00  0.00    -0.087 C 
ATOM     25  C   UNL     1      14.178  11.774  25.678  0.00  0.00    +0.005 C 
ENDBRANCH  18  23
ENDBRANCH   8  18
ENDBRANCH  14  15
ENDBRANCH  12  14
TORSDOF 9
ENDMDL
