MODEL 1
REMARK VINA RESULT:      -7.3      0.000      0.000
REMARK  Name = 44716366
REMARK  13 active torsions:
REMARK  status: ('A' for Active; 'I' for Inactive)
REMARK    1  A    between atoms: O_1  and  C_18
REMARK    2  A    between atoms: O_1  and  C_23
REMARK    3  A    between atoms: O_3  and  C_26
REMARK    4  A    between atoms: O_3  and  C_34
REMARK    5  A    between atoms: O_4  and  C_29
REMARK    6  A    between atoms: O_4  and  C_36
REMARK    7  A    between atoms: N_7  and  C_21
REMARK    8  A    between atoms: N_9  and  C_28
REMARK    9  A    between atoms: C_11  and  C_17
REMARK   10  A    between atoms: C_12  and  C_18
REMARK   11  A    between atoms: C_20  and  C_22
REMARK   12  A    between atoms: C_35  and  C_37
REMARK   13  A    between atoms: C_37  and  C_38
REMARK                            x       y       z     vdW  Elec       q    Type
REMARK                         _______ _______ _______ _____ _____    ______ ____
ROOT
ATOM      6  N   UNL     1      12.974   7.450  21.516  0.00  0.00    -0.296 NA
ATOM     10  C   UNL     1      11.281   8.917  20.187  0.00  0.00    +0.002 C 
ATOM     11  C   UNL     1      12.253   8.193  19.215  0.00  0.00    +0.055 C 
ATOM     12  C   UNL     1      12.933   8.822  22.087  0.00  0.00    +0.095 C 
ATOM     13  C   UNL     1      12.096   9.759  21.191  0.00  0.00    +0.026 C 
ATOM     14  C   UNL     1      10.561   7.817  20.999  0.00  0.00    +0.019 C 
ATOM     15  C   UNL     1      13.348   7.507  20.081  0.00  0.00    +0.094 C 
ATOM     16  C   UNL     1      11.610   6.875  21.616  0.00  0.00    +0.085 C 
ENDROOT
BRANCH  11  17
ATOM      7  N   UNL     1      12.187   9.199  16.887  0.00  0.00    -0.270 N 
ATOM      8  N   UNL     1      12.882   9.930  15.998  0.00  0.00    -0.171 NA
ATOM     17  C   UNL     1      12.845   8.993  18.063  0.00  0.00    +0.044 A 
ATOM     19  C   UNL     1      14.053   9.634  17.936  0.00  0.00    +0.053 A 
ATOM     20  C   UNL     1      14.021  10.193  16.644  0.00  0.00    +0.093 A 
ATOM     21  C   UNL     1      10.873   8.719  16.531  0.00  0.00    +0.172 C 
BRANCH  20  22
ATOM     22  C   UNL     1      15.056  10.972  16.016  0.00  0.00    +0.006 A 
ATOM     24  C   UNL     1      15.773  11.907  16.761  0.00  0.00    +0.059 A 
ATOM     25  C   UNL     1      15.341  10.791  14.663  0.00  0.00    +0.014 A 
ATOM     26  C   UNL     1      16.777  12.662  16.152  0.00  0.00    +0.162 A 
ATOM     27  C   UNL     1      16.344  11.546  14.055  0.00  0.00    +0.050 A 
ATOM     29  C   UNL     1      17.061  12.481  14.800  0.00  0.00    +0.162 A 
BRANCH  26   3
ATOM      3  O   UNL     1      17.471  13.573  16.891  0.00  0.00    -0.491 OA
ATOM     34  C   UNL     1      18.519  13.073  17.719  0.00  0.00    +0.277 C 
ENDBRANCH  26   3
BRANCH  29   4
ATOM      4  O   UNL     1      18.039  13.213  14.194  0.00  0.00    -0.491 OA
ATOM     36  C   UNL     1      19.175  12.499  13.711  0.00  0.00    +0.277 C 
ENDBRANCH  29   4
ENDBRANCH  20  22
ENDBRANCH  11  17
BRANCH  12  18
ATOM     18  C   UNL     1      14.331   9.384  22.353  0.00  0.00    +0.252 C 
BRANCH  18   1
ATOM      1  O   UNL     1      14.808   9.978  21.161  0.00  0.00    -0.449 OA
BRANCH   1  23
ATOM      2  O   UNL     1      16.804  10.440  20.146  0.00  0.00    -0.226 OA
ATOM      9  N   UNL     1      16.427   8.417  21.260  0.00  0.00    -0.251 N 
ATOM     23  C   UNL     1      16.099   9.674  20.792  0.00  0.00    +0.405 C 
ATOM     39  H   UNL     1      15.703   7.928  21.781  0.00  0.00    +0.158 HD
BRANCH   9  28
ATOM     28  C   UNL     1      17.648   7.721  21.105  0.00  0.00    +0.036 A 
ATOM     30  C   UNL     1      17.695   6.560  20.334  0.00  0.00    +0.024 A 
ATOM     31  C   UNL     1      18.804   8.196  21.725  0.00  0.00    +0.024 A 
ATOM     32  C   UNL     1      18.900   5.873  20.183  0.00  0.00    +0.013 A 
ATOM     33  C   UNL     1      20.008   7.508  21.573  0.00  0.00    +0.013 A 
ATOM     35  C   UNL     1      20.056   6.347  20.802  0.00  0.00    +0.017 A 
BRANCH  35  37
ATOM      5  O   UNL     1      21.347   4.385  20.580  0.00  0.00    -0.292 OA
ATOM     37  C   UNL     1      21.312   5.629  20.646  0.00  0.00    +0.160 C 
ATOM     38  C   UNL     1      22.628   6.395  20.558  0.00  0.00    +0.091 C 
ENDBRANCH  35  37
ENDBRANCH   9  28
ENDBRANCH   1  23
ENDBRANCH  18   1
ENDBRANCH  12  18
TORSDOF 9
ENDMDL
MODEL 2
REMARK VINA RESULT:      -7.3      2.004      7.550
REMARK  Name = 44716366
REMARK  13 active torsions:
REMARK  status: ('A' for Active; 'I' for Inactive)
REMARK    1  A    between atoms: O_1  and  C_18
REMARK    2  A    between atoms: O_1  and  C_23
REMARK    3  A    between atoms: O_3  and  C_26
REMARK    4  A    between atoms: O_3  and  C_34
REMARK    5  A    between atoms: O_4  and  C_29
REMARK    6  A    between atoms: O_4  and  C_36
REMARK    7  A    between atoms: N_7  and  C_21
REMARK    8  A    between atoms: N_9  and  C_28
REMARK    9  A    between atoms: C_11  and  C_17
REMARK   10  A    between atoms: C_12  and  C_18
REMARK   11  A    between atoms: C_20  and  C_22
REMARK   12  A    between atoms: C_35  and  C_37
REMARK   13  A    between atoms: C_37  and  C_38
REMARK                            x       y       z     vdW  Elec       q    Type
REMARK                         _______ _______ _______ _____ _____    ______ ____
ROOT
ATOM      6  N   UNL     1      11.927   9.139  19.917  0.00  0.00    -0.296 NA
ATOM     10  C   UNL     1      12.862   7.810  21.953  0.00  0.00    +0.002 C 
ATOM     11  C   UNL     1      13.809   8.987  21.591  0.00  0.00    +0.055 C 
ATOM     12  C   UNL     1      11.941   7.685  19.611  0.00  0.00    +0.095 C 
ATOM     13  C   UNL     1      12.680   6.903  20.718  0.00  0.00    +0.026 C 
ATOM     14  C   UNL     1      11.482   8.430  22.267  0.00  0.00    +0.019 C 
ATOM     15  C   UNL     1      13.297   9.601  20.257  0.00  0.00    +0.094 C 
ATOM     16  C   UNL     1      11.062   9.346  21.103  0.00  0.00    +0.085 C 
ENDROOT
BRANCH  11  17
ATOM      7  N   UNL     1      16.238   9.684  21.825  0.00  0.00    -0.270 N 
ATOM      8  N   UNL     1      17.506   9.248  21.751  0.00  0.00    -0.171 NA
ATOM     17  C   UNL     1      15.308   8.721  21.565  0.00  0.00    +0.044 A 
ATOM     19  C   UNL     1      16.017   7.575  21.302  0.00  0.00    +0.053 A 
ATOM     20  C   UNL     1      17.366   7.959  21.431  0.00  0.00    +0.093 A 
ATOM     21  C   UNL     1      15.986  11.067  22.155  0.00  0.00    +0.172 C 
BRANCH  20  22
ATOM     22  C   UNL     1      18.521   7.118  21.253  0.00  0.00    +0.006 A 
ATOM     24  C   UNL     1      19.670   7.342  22.010  0.00  0.00    +0.059 A 
ATOM     25  C   UNL     1      18.491   6.080  20.320  0.00  0.00    +0.014 A 
ATOM     26  C   UNL     1      20.789   6.527  21.837  0.00  0.00    +0.162 A 
ATOM     27  C   UNL     1      19.611   5.266  20.148  0.00  0.00    +0.050 A 
ATOM     29  C   UNL     1      20.760   5.490  20.906  0.00  0.00    +0.162 A 
BRANCH  26   3
ATOM      3  O   UNL     1      21.906   6.756  22.584  0.00  0.00    -0.491 OA
ATOM     34  C   UNL     1      21.927   6.213  23.902  0.00  0.00    +0.277 C 
ENDBRANCH  26   3
BRANCH  29   4
ATOM      4  O   UNL     1      21.847   4.688  20.728  0.00  0.00    -0.491 OA
ATOM     36  C   UNL     1      21.741   3.343  21.191  0.00  0.00    +0.277 C 
ENDBRANCH  29   4
ENDBRANCH  20  22
ENDBRANCH  11  17
BRANCH  12  18
ATOM     18  C   UNL     1      12.513   7.387  18.223  0.00  0.00    +0.252 C 
BRANCH  18   1
ATOM      1  O   UNL     1      11.614   7.889  17.253  0.00  0.00    -0.449 OA
BRANCH   1  23
ATOM      2  O   UNL     1      11.488   9.246  15.417  0.00  0.00    -0.226 OA
ATOM      9  N   UNL     1      13.316   9.314  16.877  0.00  0.00    -0.251 N 
ATOM     23  C   UNL     1      12.094   8.868  16.412  0.00  0.00    +0.405 C 
ATOM     39  H   UNL     1      13.661   8.875  17.728  0.00  0.00    +0.158 HD
BRANCH   9  28
ATOM     28  C   UNL     1      14.151  10.308  16.317  0.00  0.00    +0.036 A 
ATOM     30  C   UNL     1      14.241  11.563  16.917  0.00  0.00    +0.024 A 
ATOM     31  C   UNL     1      14.884  10.031  15.163  0.00  0.00    +0.024 A 
ATOM     32  C   UNL     1      15.065  12.543  16.363  0.00  0.00    +0.013 A 
ATOM     33  C   UNL     1      15.708  11.012  14.609  0.00  0.00    +0.013 A 
ATOM     35  C   UNL     1      15.797  12.268  15.209  0.00  0.00    +0.017 A 
BRANCH  35  37
ATOM      5  O   UNL     1      16.545  14.491  14.951  0.00  0.00    -0.292 OA
ATOM     37  C   UNL     1      16.655  13.291  14.629  0.00  0.00    +0.160 C 
ATOM     38  C   UNL     1      17.717  12.912  13.604  0.00  0.00    +0.091 C 
ENDBRANCH  35  37
ENDBRANCH   9  28
ENDBRANCH   1  23
ENDBRANCH  18   1
ENDBRANCH  12  18
TORSDOF 9
ENDMDL
MODEL 3
REMARK VINA RESULT:      -7.1     28.205     30.697
REMARK  Name = 44716366
REMARK  13 active torsions:
REMARK  status: ('A' for Active; 'I' for Inactive)
REMARK    1  A    between atoms: O_1  and  C_18
REMARK    2  A    between atoms: O_1  and  C_23
REMARK    3  A    between atoms: O_3  and  C_26
REMARK    4  A    between atoms: O_3  and  C_34
REMARK    5  A    between atoms: O_4  and  C_29
REMARK    6  A    between atoms: O_4  and  C_36
REMARK    7  A    between atoms: N_7  and  C_21
REMARK    8  A    between atoms: N_9  and  C_28
REMARK    9  A    between atoms: C_11  and  C_17
REMARK   10  A    between atoms: C_12  and  C_18
REMARK   11  A    between atoms: C_20  and  C_22
REMARK   12  A    between atoms: C_35  and  C_37
REMARK   13  A    between atoms: C_37  and  C_38
REMARK                            x       y       z     vdW  Elec       q    Type
REMARK                         _______ _______ _______ _____ _____    ______ ____
ROOT
ATOM      6  N   UNL     1      -4.460 -12.376  17.100  0.00  0.00    -0.296 NA
ATOM     10  C   UNL     1      -5.742 -10.115  17.270  0.00  0.00    +0.002 C 
ATOM     11  C   UNL     1      -6.595 -11.167  16.509  0.00  0.00    +0.055 C 
ATOM     12  C   UNL     1      -3.583 -11.260  16.660  0.00  0.00    +0.095 C 
ATOM     13  C   UNL     1      -4.385  -9.945  16.556  0.00  0.00    +0.026 C 
ATOM     14  C   UNL     1      -5.449 -10.705  18.667  0.00  0.00    +0.019 C 
ATOM     15  C   UNL     1      -5.692 -12.411  16.272  0.00  0.00    +0.094 C 
ATOM     16  C   UNL     1      -4.855 -12.116  18.506  0.00  0.00    +0.085 C 
ENDROOT
BRANCH  11  17
ATOM      7  N   UNL     1      -8.437  -9.952  15.256  0.00  0.00    -0.270 N 
ATOM      8  N   UNL     1      -8.920  -9.676  14.033  0.00  0.00    -0.171 NA
ATOM     17  C   UNL     1      -7.315 -10.728  15.241  0.00  0.00    +0.044 A 
ATOM     19  C   UNL     1      -7.046 -10.977  13.918  0.00  0.00    +0.053 A 
ATOM     20  C   UNL     1      -8.067 -10.304  13.219  0.00  0.00    +0.093 A 
ATOM     21  C   UNL     1      -9.117  -9.432  16.418  0.00  0.00    +0.172 C 
BRANCH  20  22
ATOM     22  C   UNL     1      -8.243 -10.251  11.791  0.00  0.00    +0.006 A 
ATOM     24  C   UNL     1      -7.820  -9.131  11.078  0.00  0.00    +0.059 A 
ATOM     25  C   UNL     1      -8.839 -11.320  11.123  0.00  0.00    +0.014 A 
ATOM     26  C   UNL     1      -7.990  -9.080   9.694  0.00  0.00    +0.162 A 
ATOM     27  C   UNL     1      -9.010 -11.268   9.739  0.00  0.00    +0.050 A 
ATOM     29  C   UNL     1      -8.586 -10.148   9.025  0.00  0.00    +0.162 A 
BRANCH  26   3
ATOM      3  O   UNL     1      -7.572  -7.980   9.008  0.00  0.00    -0.491 OA
ATOM     34  C   UNL     1      -8.576  -7.062   8.578  0.00  0.00    +0.277 C 
ENDBRANCH  26   3
BRANCH  29   4
ATOM      4  O   UNL     1      -8.758 -10.109   7.674  0.00  0.00    -0.491 OA
ATOM     36  C   UNL     1      -8.973 -11.355   7.013  0.00  0.00    +0.277 C 
ENDBRANCH  29   4
ENDBRANCH  20  22
ENDBRANCH  11  17
BRANCH  12  18
ATOM     18  C   UNL     1      -2.841 -11.580  15.360  0.00  0.00    +0.252 C 
BRANCH  18   1
ATOM      1  O   UNL     1      -2.945 -10.463  14.500  0.00  0.00    -0.449 OA
BRANCH   1  23
ATOM      2  O   UNL     1      -1.864 -11.247  12.643  0.00  0.00    -0.226 OA
ATOM      9  N   UNL     1      -3.984 -10.264  12.513  0.00  0.00    -0.251 N 
ATOM     23  C   UNL     1      -2.842 -10.710  13.149  0.00  0.00    +0.405 C 
ATOM     39  H   UNL     1      -4.693  -9.841  13.107  0.00  0.00    +0.158 HD
BRANCH   9  28
ATOM     28  C   UNL     1      -4.292 -10.321  11.134  0.00  0.00    +0.036 A 
ATOM     30  C   UNL     1      -4.884 -11.465  10.599  0.00  0.00    +0.024 A 
ATOM     31  C   UNL     1      -4.002  -9.233  10.310  0.00  0.00    +0.024 A 
ATOM     32  C   UNL     1      -5.186 -11.520   9.237  0.00  0.00    +0.013 A 
ATOM     33  C   UNL     1      -4.304  -9.290   8.949  0.00  0.00    +0.013 A 
ATOM     35  C   UNL     1      -4.896 -10.434   8.413  0.00  0.00    +0.017 A 
BRANCH  35  37
ATOM      5  O   UNL     1      -5.911  -9.620   6.445  0.00  0.00    -0.292 OA
ATOM     37  C   UNL     1      -5.209 -10.493   6.994  0.00  0.00    +0.160 C 
ATOM     38  C   UNL     1      -4.679 -11.638   6.138  0.00  0.00    +0.091 C 
ENDBRANCH  35  37
ENDBRANCH   9  28
ENDBRANCH   1  23
ENDBRANCH  18   1
ENDBRANCH  12  18
TORSDOF 9
ENDMDL
MODEL 4
REMARK VINA RESULT:      -7.1     27.471     30.648
REMARK  Name = 44716366
REMARK  13 active torsions:
REMARK  status: ('A' for Active; 'I' for Inactive)
REMARK    1  A    between atoms: O_1  and  C_18
REMARK    2  A    between atoms: O_1  and  C_23
REMARK    3  A    between atoms: O_3  and  C_26
REMARK    4  A    between atoms: O_3  and  C_34
REMARK    5  A    between atoms: O_4  and  C_29
REMARK    6  A    between atoms: O_4  and  C_36
REMARK    7  A    between atoms: N_7  and  C_21
REMARK    8  A    between atoms: N_9  and  C_28
REMARK    9  A    between atoms: C_11  and  C_17
REMARK   10  A    between atoms: C_12  and  C_18
REMARK   11  A    between atoms: C_20  and  C_22
REMARK   12  A    between atoms: C_35  and  C_37
REMARK   13  A    between atoms: C_37  and  C_38
REMARK                            x       y       z     vdW  Elec       q    Type
REMARK                         _______ _______ _______ _____ _____    ______ ____
ROOT
ATOM      6  N   UNL     1      -6.392 -10.461  17.911  0.00  0.00    -0.296 NA
ATOM     10  C   UNL     1      -4.395 -12.033  17.341  0.00  0.00    +0.002 C 
ATOM     11  C   UNL     1      -4.227 -10.662  16.630  0.00  0.00    +0.055 C 
ATOM     12  C   UNL     1      -6.899 -11.787  17.468  0.00  0.00    +0.095 C 
ATOM     13  C   UNL     1      -5.744 -12.659  16.931  0.00  0.00    +0.026 C 
ATOM     14  C   UNL     1      -4.472 -11.743  18.856  0.00  0.00    +0.019 C 
ATOM     15  C   UNL     1      -5.543  -9.862  16.851  0.00  0.00    +0.094 C 
ATOM     16  C   UNL     1      -5.550 -10.675  19.113  0.00  0.00    +0.085 C 
ENDROOT
BRANCH  11  17
ATOM      7  N   UNL     1      -2.479 -10.607  14.792  0.00  0.00    -0.270 N 
ATOM      8  N   UNL     1      -2.301 -10.611  13.460  0.00  0.00    -0.171 NA
ATOM     17  C   UNL     1      -3.788 -10.657  15.172  0.00  0.00    +0.044 A 
ATOM     19  C   UNL     1      -4.517 -10.696  14.010  0.00  0.00    +0.053 A 
ATOM     20  C   UNL     1      -3.549 -10.666  12.986  0.00  0.00    +0.093 A 
ATOM     21  C   UNL     1      -1.325 -10.550  15.657  0.00  0.00    +0.172 C 
BRANCH  20  22
ATOM     22  C   UNL     1      -3.794 -10.686  11.568  0.00  0.00    +0.006 A 
ATOM     24  C   UNL     1      -4.128 -11.883  10.936  0.00  0.00    +0.059 A 
ATOM     25  C   UNL     1      -3.695  -9.508  10.827  0.00  0.00    +0.014 A 
ATOM     26  C   UNL     1      -4.366 -11.903   9.561  0.00  0.00    +0.162 A 
ATOM     27  C   UNL     1      -3.932  -9.529   9.451  0.00  0.00    +0.050 A 
ATOM     29  C   UNL     1      -4.267 -10.726   8.820  0.00  0.00    +0.162 A 
BRANCH  26   3
ATOM      3  O   UNL     1      -4.692 -13.078   8.954  0.00  0.00    -0.491 OA
ATOM     34  C   UNL     1      -4.289 -14.279   9.609  0.00  0.00    +0.277 C 
ENDBRANCH  26   3
BRANCH  29   4
ATOM      4  O   UNL     1      -4.497 -10.733   7.476  0.00  0.00    -0.491 OA
ATOM     36  C   UNL     1      -5.752 -10.222   7.032  0.00  0.00    +0.277 C 
ENDBRANCH  29   4
ENDBRANCH  20  22
ENDBRANCH  11  17
BRANCH  12  18
ATOM     18  C   UNL     1      -8.041 -11.665  16.457  0.00  0.00    +0.252 C 
BRANCH  18   1
ATOM      1  O   UNL     1      -8.667 -10.411  16.639  0.00  0.00    -0.449 OA
BRANCH   1  23
ATOM      2  O   UNL     1      -9.460  -8.575  15.529  0.00  0.00    -0.226 OA
ATOM      9  N   UNL     1      -8.442 -10.355  14.400  0.00  0.00    -0.251 N 
ATOM     23  C   UNL     1      -8.910  -9.669  15.504  0.00  0.00    +0.405 C 
ATOM     39  H   UNL     1      -8.011 -11.258  14.581  0.00  0.00    +0.158 HD
BRANCH   9  28
ATOM     28  C   UNL     1      -8.489  -9.956  13.044  0.00  0.00    +0.036 A 
ATOM     30  C   UNL     1      -9.689 -10.026  12.338  0.00  0.00    +0.024 A 
ATOM     31  C   UNL     1      -7.333  -9.495  12.414  0.00  0.00    +0.024 A 
ATOM     32  C   UNL     1      -9.734  -9.633  10.999  0.00  0.00    +0.013 A 
ATOM     33  C   UNL     1      -7.378  -9.103  11.075  0.00  0.00    +0.013 A 
ATOM     35  C   UNL     1      -8.579  -9.173  10.368  0.00  0.00    +0.017 A 
BRANCH  35  37
ATOM      5  O   UNL     1      -9.285  -9.405   8.129  0.00  0.00    -0.292 OA
ATOM     37  C   UNL     1      -8.625  -8.766   8.973  0.00  0.00    +0.160 C 
ATOM     38  C   UNL     1      -7.857  -7.533   8.506  0.00  0.00    +0.091 C 
ENDBRANCH  35  37
ENDBRANCH   9  28
ENDBRANCH   1  23
ENDBRANCH  18   1
ENDBRANCH  12  18
TORSDOF 9
ENDMDL
MODEL 5
REMARK VINA RESULT:      -7.1     27.382     31.422
REMARK  Name = 44716366
REMARK  13 active torsions:
REMARK  status: ('A' for Active; 'I' for Inactive)
REMARK    1  A    between atoms: O_1  and  C_18
REMARK    2  A    between atoms: O_1  and  C_23
REMARK    3  A    between atoms: O_3  and  C_26
REMARK    4  A    between atoms: O_3  and  C_34
REMARK    5  A    between atoms: O_4  and  C_29
REMARK    6  A    between atoms: O_4  and  C_36
REMARK    7  A    between atoms: N_7  and  C_21
REMARK    8  A    between atoms: N_9  and  C_28
REMARK    9  A    between atoms: C_11  and  C_17
REMARK   10  A    between atoms: C_12  and  C_18
REMARK   11  A    between atoms: C_20  and  C_22
REMARK   12  A    between atoms: C_35  and  C_37
REMARK   13  A    between atoms: C_37  and  C_38
REMARK                            x       y       z     vdW  Elec       q    Type
REMARK                         _______ _______ _______ _____ _____    ______ ____
ROOT
ATOM      6  N   UNL     1      -5.900 -10.356  17.981  0.00  0.00    -0.296 NA
ATOM     10  C   UNL     1      -4.749 -12.372  16.800  0.00  0.00    +0.002 C 
ATOM     11  C   UNL     1      -4.055 -11.041  16.401  0.00  0.00    +0.055 C 
ATOM     12  C   UNL     1      -6.922 -11.212  17.325  0.00  0.00    +0.095 C 
ATOM     13  C   UNL     1      -6.249 -12.291  16.450  0.00  0.00    +0.026 C 
ATOM     14  C   UNL     1      -4.648 -12.484  18.337  0.00  0.00    +0.019 C 
ATOM     15  C   UNL     1      -4.915  -9.880  16.977  0.00  0.00    +0.094 C 
ATOM     16  C   UNL     1      -5.181 -11.188  18.975  0.00  0.00    +0.085 C 
ENDROOT
BRANCH  11  17
ATOM      7  N   UNL     1      -2.431 -10.583  14.506  0.00  0.00    -0.270 N 
ATOM      8  N   UNL     1      -2.330 -10.421  13.176  0.00  0.00    -0.171 NA
ATOM     17  C   UNL     1      -3.702 -10.825  14.936  0.00  0.00    +0.044 A 
ATOM     19  C   UNL     1      -4.487 -10.821  13.810  0.00  0.00    +0.053 A 
ATOM     20  C   UNL     1      -3.589 -10.567  12.755  0.00  0.00    +0.093 A 
ATOM     21  C   UNL     1      -1.242 -10.488  15.321  0.00  0.00    +0.172 C 
BRANCH  20  22
ATOM     22  C   UNL     1      -3.911 -10.460  11.356  0.00  0.00    +0.006 A 
ATOM     24  C   UNL     1      -4.065 -11.612  10.587  0.00  0.00    +0.059 A 
ATOM     25  C   UNL     1      -4.066  -9.203  10.770  0.00  0.00    +0.014 A 
ATOM     26  C   UNL     1      -4.377 -11.509   9.230  0.00  0.00    +0.162 A 
ATOM     27  C   UNL     1      -4.377  -9.101   9.414  0.00  0.00    +0.050 A 
ATOM     29  C   UNL     1      -4.532 -10.253   8.645  0.00  0.00    +0.162 A 
BRANCH  26   3
ATOM      3  O   UNL     1      -4.526 -12.642   8.489  0.00  0.00    -0.491 OA
ATOM     34  C   UNL     1      -5.693 -13.426   8.731  0.00  0.00    +0.277 C 
ENDBRANCH  26   3
BRANCH  29   4
ATOM      4  O   UNL     1      -4.836 -10.140   7.321  0.00  0.00    -0.491 OA
ATOM     36  C   UNL     1      -6.207  -9.929   6.988  0.00  0.00    +0.277 C 
ENDBRANCH  29   4
ENDBRANCH  20  22
ENDBRANCH  11  17
BRANCH  12  18
ATOM     18  C   UNL     1      -7.947 -10.394  16.535  0.00  0.00    +0.252 C 
BRANCH  18   1
ATOM      1  O   UNL     1      -8.074  -9.126  17.148  0.00  0.00    -0.449 OA
BRANCH   1  23
ATOM      2  O   UNL     1      -9.832  -7.663  17.146  0.00  0.00    -0.226 OA
ATOM      9  N   UNL     1      -9.935  -9.713  18.271  0.00  0.00    -0.251 N 
ATOM     23  C   UNL     1      -9.346  -8.732  17.497  0.00  0.00    +0.405 C 
ATOM     39  H   UNL     1      -9.369 -10.537  18.458  0.00  0.00    +0.158 HD
BRANCH   9  28
ATOM     28  C   UNL     1     -11.230  -9.714  18.838  0.00  0.00    +0.036 A 
ATOM     30  C   UNL     1     -12.351  -9.590  18.018  0.00  0.00    +0.024 A 
ATOM     31  C   UNL     1     -11.385  -9.840  20.219  0.00  0.00    +0.024 A 
ATOM     32  C   UNL     1     -13.628  -9.591  18.579  0.00  0.00    +0.013 A 
ATOM     33  C   UNL     1     -12.663  -9.840  20.779  0.00  0.00    +0.013 A 
ATOM     35  C   UNL     1     -13.784  -9.715  19.959  0.00  0.00    +0.017 A 
BRANCH  35  37
ATOM      5  O   UNL     1     -15.802 -10.754  20.605  0.00  0.00    -0.292 OA
ATOM     37  C   UNL     1     -15.116  -9.714  20.544  0.00  0.00    +0.160 C 
ATOM     38  C   UNL     1     -15.709  -8.424  21.101  0.00  0.00    +0.091 C 
ENDBRANCH  35  37
ENDBRANCH   9  28
ENDBRANCH   1  23
ENDBRANCH  18   1
ENDBRANCH  12  18
TORSDOF 9
ENDMDL
MODEL 6
REMARK VINA RESULT:      -7.0     28.619     31.303
REMARK  Name = 44716366
REMARK  13 active torsions:
REMARK  status: ('A' for Active; 'I' for Inactive)
REMARK    1  A    between atoms: O_1  and  C_18
REMARK    2  A    between atoms: O_1  and  C_23
REMARK    3  A    between atoms: O_3  and  C_26
REMARK    4  A    between atoms: O_3  and  C_34
REMARK    5  A    between atoms: O_4  and  C_29
REMARK    6  A    between atoms: O_4  and  C_36
REMARK    7  A    between atoms: N_7  and  C_21
REMARK    8  A    between atoms: N_9  and  C_28
REMARK    9  A    between atoms: C_11  and  C_17
REMARK   10  A    between atoms: C_12  and  C_18
REMARK   11  A    between atoms: C_20  and  C_22
REMARK   12  A    between atoms: C_35  and  C_37
REMARK   13  A    between atoms: C_37  and  C_38
REMARK                            x       y       z     vdW  Elec       q    Type
REMARK                         _______ _______ _______ _____ _____    ______ ____
ROOT
ATOM      6  N   UNL     1      -5.313 -12.519  16.950  0.00  0.00    -0.296 NA
ATOM     10  C   UNL     1      -5.838 -10.750  18.787  0.00  0.00    +0.002 C 
ATOM     11  C   UNL     1      -7.141 -11.461  18.330  0.00  0.00    +0.055 C 
ATOM     12  C   UNL     1      -4.681 -11.220  16.599  0.00  0.00    +0.095 C 
ATOM     13  C   UNL     1      -5.150 -10.110  17.563  0.00  0.00    +0.026 C 
ATOM     14  C   UNL     1      -4.891 -11.850  19.315  0.00  0.00    +0.019 C 
ATOM     15  C   UNL     1      -6.780 -12.347  17.103  0.00  0.00    +0.094 C 
ATOM     16  C   UNL     1      -4.759 -12.957  18.254  0.00  0.00    +0.085 C 
ENDROOT
BRANCH  11  17
ATOM      7  N   UNL     1      -9.505 -10.694  18.842  0.00  0.00    -0.270 N 
ATOM      8  N   UNL     1     -10.483  -9.856  18.458  0.00  0.00    -0.171 NA
ATOM     17  C   UNL     1      -8.377 -10.607  18.081  0.00  0.00    +0.044 A 
ATOM     19  C   UNL     1      -8.634  -9.647  17.134  0.00  0.00    +0.053 A 
ATOM     20  C   UNL     1      -9.946  -9.218  17.415  0.00  0.00    +0.093 A 
ATOM     21  C   UNL     1      -9.727 -11.569  19.968  0.00  0.00    +0.172 C 
BRANCH  20  22
ATOM     22  C   UNL     1     -10.695  -8.214  16.705  0.00  0.00    +0.006 A 
ATOM     24  C   UNL     1     -12.072  -8.358  16.541  0.00  0.00    +0.059 A 
ATOM     25  C   UNL     1     -10.041  -7.100  16.179  0.00  0.00    +0.014 A 
ATOM     26  C   UNL     1     -12.797  -7.385  15.853  0.00  0.00    +0.162 A 
ATOM     27  C   UNL     1     -10.768  -6.127  15.490  0.00  0.00    +0.050 A 
ATOM     29  C   UNL     1     -12.145  -6.271  15.327  0.00  0.00    +0.162 A 
BRANCH  26   3
ATOM      3  O   UNL     1     -14.143  -7.536  15.700  0.00  0.00    -0.491 OA
ATOM     34  C   UNL     1     -14.586  -8.302  14.582  0.00  0.00    +0.277 C 
ENDBRANCH  26   3
BRANCH  29   4
ATOM      4  O   UNL     1     -12.843  -5.314  14.653  0.00  0.00    -0.491 OA
ATOM     36  C   UNL     1     -12.355  -4.945  13.365  0.00  0.00    +0.277 C 
ENDBRANCH  29   4
ENDBRANCH  20  22
ENDBRANCH  11  17
BRANCH  12  18
ATOM     18  C   UNL     1      -4.908 -10.839  15.135  0.00  0.00    +0.252 C 
BRANCH  18   1
ATOM      1  O   UNL     1      -3.666 -10.461  14.574  0.00  0.00    -0.449 OA
BRANCH   1  23
ATOM      2  O   UNL     1      -2.514 -11.369  12.821  0.00  0.00    -0.226 OA
ATOM      9  N   UNL     1      -4.522 -10.209  12.507  0.00  0.00    -0.251 N 
ATOM     23  C   UNL     1      -3.478 -10.740  13.239  0.00  0.00    +0.405 C 
ATOM     39  H   UNL     1      -5.237  -9.715  13.037  0.00  0.00    +0.158 HD
BRANCH   9  28
ATOM     28  C   UNL     1      -4.723 -10.265  11.109  0.00  0.00    +0.036 A 
ATOM     30  C   UNL     1      -4.371  -9.177  10.310  0.00  0.00    +0.024 A 
ATOM     31  C   UNL     1      -5.273 -11.408  10.529  0.00  0.00    +0.024 A 
ATOM     32  C   UNL     1      -4.570  -9.233   8.930  0.00  0.00    +0.013 A 
ATOM     33  C   UNL     1      -5.472 -11.463   9.149  0.00  0.00    +0.013 A 
ATOM     35  C   UNL     1      -5.121 -10.375   8.350  0.00  0.00    +0.017 A 
BRANCH  35  37
ATOM      5  O   UNL     1      -5.982  -9.554   6.313  0.00  0.00    -0.292 OA
ATOM     37  C   UNL     1      -5.330 -10.432   6.912  0.00  0.00    +0.160 C 
ATOM     38  C   UNL     1      -4.749 -11.582   6.096  0.00  0.00    +0.091 C 
ENDBRANCH  35  37
ENDBRANCH   9  28
ENDBRANCH   1  23
ENDBRANCH  18   1
ENDBRANCH  12  18
TORSDOF 9
ENDMDL
MODEL 7
REMARK VINA RESULT:      -6.9     27.382     30.907
REMARK  Name = 44716366
REMARK  13 active torsions:
REMARK  status: ('A' for Active; 'I' for Inactive)
REMARK    1  A    between atoms: O_1  and  C_18
REMARK    2  A    between atoms: O_1  and  C_23
REMARK    3  A    between atoms: O_3  and  C_26
REMARK    4  A    between atoms: O_3  and  C_34
REMARK    5  A    between atoms: O_4  and  C_29
REMARK    6  A    between atoms: O_4  and  C_36
REMARK    7  A    between atoms: N_7  and  C_21
REMARK    8  A    between atoms: N_9  and  C_28
REMARK    9  A    between atoms: C_11  and  C_17
REMARK   10  A    between atoms: C_12  and  C_18
REMARK   11  A    between atoms: C_20  and  C_22
REMARK   12  A    between atoms: C_35  and  C_37
REMARK   13  A    between atoms: C_37  and  C_38
REMARK                            x       y       z     vdW  Elec       q    Type
REMARK                         _______ _______ _______ _____ _____    ______ ____
ROOT
ATOM      6  N   UNL     1      -6.396 -10.464  18.192  0.00  0.00    -0.296 NA
ATOM     10  C   UNL     1      -4.596 -12.200  17.463  0.00  0.00    +0.002 C 
ATOM     11  C   UNL     1      -4.290 -10.808  16.846  0.00  0.00    +0.055 C 
ATOM     12  C   UNL     1      -7.054 -11.690  17.671  0.00  0.00    +0.095 C 
ATOM     13  C   UNL     1      -6.014 -12.643  17.045  0.00  0.00    +0.026 C 
ATOM     14  C   UNL     1      -4.614 -12.013  18.996  0.00  0.00    +0.019 C 
ATOM     15  C   UNL     1      -5.504  -9.886  17.155  0.00  0.00    +0.094 C 
ATOM     16  C   UNL     1      -5.562 -10.855  19.354  0.00  0.00    +0.085 C 
ENDROOT
BRANCH  11  17
ATOM      7  N   UNL     1      -2.576 -10.688  14.978  0.00  0.00    -0.270 N 
ATOM      8  N   UNL     1      -2.424 -10.639  13.644  0.00  0.00    -0.171 NA
ATOM     17  C   UNL     1      -3.878 -10.746  15.381  0.00  0.00    +0.044 A 
ATOM     19  C   UNL     1      -4.629 -10.735  14.232  0.00  0.00    +0.053 A 
ATOM     20  C   UNL     1      -3.681 -10.668  13.193  0.00  0.00    +0.093 A 
ATOM     21  C   UNL     1      -1.405 -10.672  15.823  0.00  0.00    +0.172 C 
BRANCH  20  22
ATOM     22  C   UNL     1      -3.953 -10.629  11.780  0.00  0.00    +0.006 A 
ATOM     24  C   UNL     1      -4.612  -9.532  11.226  0.00  0.00    +0.059 A 
ATOM     25  C   UNL     1      -3.560 -11.691  10.965  0.00  0.00    +0.014 A 
ATOM     26  C   UNL     1      -4.876  -9.495   9.857  0.00  0.00    +0.162 A 
ATOM     27  C   UNL     1      -3.825 -11.654   9.595  0.00  0.00    +0.050 A 
ATOM     29  C   UNL     1      -4.483 -10.556   9.042  0.00  0.00    +0.162 A 
BRANCH  26   3
ATOM      3  O   UNL     1      -5.519  -8.417   9.327  0.00  0.00    -0.491 OA
ATOM     34  C   UNL     1      -6.944  -8.419   9.387  0.00  0.00    +0.277 C 
ENDBRANCH  26   3
BRANCH  29   4
ATOM      4  O   UNL     1      -4.736 -10.531   7.703  0.00  0.00    -0.491 OA
ATOM     36  C   UNL     1      -5.811 -11.341   7.233  0.00  0.00    +0.277 C 
ENDBRANCH  29   4
ENDBRANCH  20  22
ENDBRANCH  11  17
BRANCH  12  18
ATOM     18  C   UNL     1      -8.194 -11.372  16.700  0.00  0.00    +0.252 C 
BRANCH  18   1
ATOM      1  O   UNL     1      -9.161 -10.600  17.385  0.00  0.00    -0.449 OA
BRANCH   1  23
ATOM      2  O   UNL     1      -8.654  -8.399  17.027  0.00  0.00    -0.226 OA
ATOM      9  N   UNL     1     -10.634  -9.355  16.224  0.00  0.00    -0.251 N 
ATOM     23  C   UNL     1      -9.420  -9.345  16.883  0.00  0.00    +0.405 C 
ATOM     39  H   UNL     1     -11.130 -10.243  16.210  0.00  0.00    +0.158 HD
BRANCH   9  28
ATOM     28  C   UNL     1     -11.276  -8.281  15.565  0.00  0.00    +0.036 A 
ATOM     30  C   UNL     1     -11.369  -8.272  14.174  0.00  0.00    +0.024 A 
ATOM     31  C   UNL     1     -11.816  -7.231  16.308  0.00  0.00    +0.024 A 
ATOM     32  C   UNL     1     -12.003  -7.212  13.525  0.00  0.00    +0.013 A 
ATOM     33  C   UNL     1     -12.449  -6.171  15.659  0.00  0.00    +0.013 A 
ATOM     35  C   UNL     1     -12.542  -6.161  14.267  0.00  0.00    +0.017 A 
BRANCH  35  37
ATOM      5  O   UNL     1     -14.424  -4.851  13.714  0.00  0.00    -0.292 OA
ATOM     37  C   UNL     1     -13.200  -5.055  13.590  0.00  0.00    +0.160 C 
ATOM     38  C   UNL     1     -12.397  -4.110  12.704  0.00  0.00    +0.091 C 
ENDBRANCH  35  37
ENDBRANCH   9  28
ENDBRANCH   1  23
ENDBRANCH  18   1
ENDBRANCH  12  18
TORSDOF 9
ENDMDL
MODEL 8
REMARK VINA RESULT:      -6.9     13.566     17.887
REMARK  Name = 44716366
REMARK  13 active torsions:
REMARK  status: ('A' for Active; 'I' for Inactive)
REMARK    1  A    between atoms: O_1  and  C_18
REMARK    2  A    between atoms: O_1  and  C_23
REMARK    3  A    between atoms: O_3  and  C_26
REMARK    4  A    between atoms: O_3  and  C_34
REMARK    5  A    between atoms: O_4  and  C_29
REMARK    6  A    between atoms: O_4  and  C_36
REMARK    7  A    between atoms: N_7  and  C_21
REMARK    8  A    between atoms: N_9  and  C_28
REMARK    9  A    between atoms: C_11  and  C_17
REMARK   10  A    between atoms: C_12  and  C_18
REMARK   11  A    between atoms: C_20  and  C_22
REMARK   12  A    between atoms: C_35  and  C_37
REMARK   13  A    between atoms: C_37  and  C_38
REMARK                            x       y       z     vdW  Elec       q    Type
REMARK                         _______ _______ _______ _____ _____    ______ ____
ROOT
ATOM      6  N   UNL     1      13.843   4.881  -1.582  0.00  0.00    -0.296 NA
ATOM     10  C   UNL     1      12.175   3.305  -0.349  0.00  0.00    +0.002 C 
ATOM     11  C   UNL     1      11.605   4.748  -0.423  0.00  0.00    +0.055 C 
ATOM     12  C   UNL     1      14.554   4.117  -0.524  0.00  0.00    +0.095 C 
ATOM     13  C   UNL     1      13.551   3.335   0.350  0.00  0.00    +0.026 C 
ATOM     14  C   UNL     1      12.417   2.847  -1.804  0.00  0.00    +0.019 C 
ATOM     15  C   UNL     1      12.731   5.663  -0.984  0.00  0.00    +0.094 C 
ATOM     16  C   UNL     1      13.261   3.906  -2.535  0.00  0.00    +0.085 C 
ENDROOT
BRANCH  11  17
ATOM      7  N   UNL     1      10.158   6.435   0.803  0.00  0.00    -0.270 N 
ATOM      8  N   UNL     1       9.687   6.788   2.011  0.00  0.00    -0.171 NA
ATOM     17  C   UNL     1      10.959   5.331   0.827  0.00  0.00    +0.044 A 
ATOM     19  C   UNL     1      11.014   4.934   2.140  0.00  0.00    +0.053 A 
ATOM     20  C   UNL     1      10.212   5.868   2.824  0.00  0.00    +0.093 A 
ATOM     21  C   UNL     1       9.797   7.220  -0.353  0.00  0.00    +0.172 C 
BRANCH  20  22
ATOM     22  C   UNL     1       9.940   5.899   4.237  0.00  0.00    +0.006 A 
ATOM     24  C   UNL     1       9.569   7.095   4.850  0.00  0.00    +0.059 A 
ATOM     25  C   UNL     1      10.050   4.731   4.994  0.00  0.00    +0.014 A 
ATOM     26  C   UNL     1       9.305   7.124   6.220  0.00  0.00    +0.162 A 
ATOM     27  C   UNL     1       9.788   4.762   6.364  0.00  0.00    +0.050 A 
ATOM     29  C   UNL     1       9.416   5.958   6.976  0.00  0.00    +0.162 A 
BRANCH  26   3
ATOM      3  O   UNL     1       8.942   8.299   6.807  0.00  0.00    -0.491 OA
ATOM     34  C   UNL     1       8.271   9.253   5.988  0.00  0.00    +0.277 C 
ENDBRANCH  26   3
BRANCH  29   4
ATOM      4  O   UNL     1       9.161   5.975   8.315  0.00  0.00    -0.491 OA
ATOM     36  C   UNL     1      10.123   5.352   9.164  0.00  0.00    +0.277 C 
ENDBRANCH  29   4
ENDBRANCH  20  22
ENDBRANCH  11  17
BRANCH  12  18
ATOM     18  C   UNL     1      15.475   5.004   0.317  0.00  0.00    +0.252 C 
BRANCH  18   1
ATOM      1  O   UNL     1      14.995   5.010   1.647  0.00  0.00    -0.449 OA
BRANCH   1  23
ATOM      2  O   UNL     1      15.587   7.193   1.988  0.00  0.00    -0.226 OA
ATOM      9  N   UNL     1      13.821   6.198   3.157  0.00  0.00    -0.251 N 
ATOM     23  C   UNL     1      14.863   6.240   2.252  0.00  0.00    +0.405 C 
ATOM     39  H   UNL     1      13.332   5.309   3.238  0.00  0.00    +0.158 HD
BRANCH   9  28
ATOM     28  C   UNL     1      13.347   7.238   3.990  0.00  0.00    +0.036 A 
ATOM     30  C   UNL     1      13.333   7.071   5.374  0.00  0.00    +0.024 A 
ATOM     31  C   UNL     1      12.894   8.430   3.425  0.00  0.00    +0.024 A 
ATOM     32  C   UNL     1      12.864   8.097   6.195  0.00  0.00    +0.013 A 
ATOM     33  C   UNL     1      12.425   9.456   4.246  0.00  0.00    +0.013 A 
ATOM     35  C   UNL     1      12.410   9.289   5.631  0.00  0.00    +0.017 A 
BRANCH  35  37
ATOM      5  O   UNL     1      12.050  10.313   7.726  0.00  0.00    -0.292 OA
ATOM     37  C   UNL     1      11.920  10.359   6.486  0.00  0.00    +0.160 C 
ATOM     38  C   UNL     1      11.227  11.573   5.877  0.00  0.00    +0.091 C 
ENDBRANCH  35  37
ENDBRANCH   9  28
ENDBRANCH   1  23
ENDBRANCH  18   1
ENDBRANCH  12  18
TORSDOF 9
ENDMDL
MODEL 9
REMARK VINA RESULT:      -6.8     16.693     20.800
REMARK  Name = 44716366
REMARK  13 active torsions:
REMARK  status: ('A' for Active; 'I' for Inactive)
REMARK    1  A    between atoms: O_1  and  C_18
REMARK    2  A    between atoms: O_1  and  C_23
REMARK    3  A    between atoms: O_3  and  C_26
REMARK    4  A    between atoms: O_3  and  C_34
REMARK    5  A    between atoms: O_4  and  C_29
REMARK    6  A    between atoms: O_4  and  C_36
REMARK    7  A    between atoms: N_7  and  C_21
REMARK    8  A    between atoms: N_9  and  C_28
REMARK    9  A    between atoms: C_11  and  C_17
REMARK   10  A    between atoms: C_12  and  C_18
REMARK   11  A    between atoms: C_20  and  C_22
REMARK   12  A    between atoms: C_35  and  C_37
REMARK   13  A    between atoms: C_37  and  C_38
REMARK                            x       y       z     vdW  Elec       q    Type
REMARK                         _______ _______ _______ _____ _____    ______ ____
ROOT
ATOM      6  N   UNL     1       5.206  11.494   0.760  0.00  0.00    -0.296 NA
ATOM     10  C   UNL     1       3.786   9.921  -0.754  0.00  0.00    +0.002 C 
ATOM     11  C   UNL     1       2.909  11.074  -0.195  0.00  0.00    +0.055 C 
ATOM     12  C   UNL     1       5.412  10.078   1.163  0.00  0.00    +0.095 C 
ATOM     13  C   UNL     1       4.427   9.151   0.419  0.00  0.00    +0.026 C 
ATOM     14  C   UNL     1       4.937  10.580  -1.546  0.00  0.00    +0.019 C 
ATOM     15  C   UNL     1       3.767  11.844   0.850  0.00  0.00    +0.094 C 
ATOM     16  C   UNL     1       5.628  11.629  -0.656  0.00  0.00    +0.085 C 
ENDROOT
BRANCH  11  17
ATOM      7  N   UNL     1       0.433  10.590  -0.469  0.00  0.00    -0.270 N 
ATOM      8  N   UNL     1      -0.696  10.287   0.195  0.00  0.00    -0.171 NA
ATOM     17  C   UNL     1       1.524  10.731   0.337  0.00  0.00    +0.044 A 
ATOM     19  C   UNL     1       1.079  10.503   1.616  0.00  0.00    +0.053 A 
ATOM     20  C   UNL     1      -0.295  10.235   1.468  0.00  0.00    +0.093 A 
ATOM     21  C   UNL     1       0.389  10.737  -1.904  0.00  0.00    +0.172 C 
BRANCH  20  22
ATOM     22  C   UNL     1      -1.232   9.931   2.519  0.00  0.00    +0.006 A 
ATOM     24  C   UNL     1      -0.768   9.548   3.777  0.00  0.00    +0.059 A 
ATOM     25  C   UNL     1      -2.603  10.018   2.277  0.00  0.00    +0.014 A 
ATOM     26  C   UNL     1      -1.675   9.254   4.795  0.00  0.00    +0.162 A 
ATOM     27  C   UNL     1      -3.510   9.723   3.296  0.00  0.00    +0.050 A 
ATOM     29  C   UNL     1      -3.046   9.341   4.554  0.00  0.00    +0.162 A 
BRANCH  26   3
ATOM      3  O   UNL     1      -1.210   8.881   6.020  0.00  0.00    -0.491 OA
ATOM     34  C   UNL     1      -1.079   9.905   7.003  0.00  0.00    +0.277 C 
ENDBRANCH  26   3
BRANCH  29   4
ATOM      4  O   UNL     1      -3.942   9.055   5.541  0.00  0.00    -0.491 OA
ATOM     36  C   UNL     1      -5.067   9.923   5.663  0.00  0.00    +0.277 C 
ENDBRANCH  29   4
ENDBRANCH  20  22
ENDBRANCH  11  17
BRANCH  12  18
ATOM     18  C   UNL     1       5.340   9.889   2.680  0.00  0.00    +0.252 C 
BRANCH  18   1
ATOM      1  O   UNL     1       6.587  10.259   3.236  0.00  0.00    -0.449 OA
BRANCH   1  23
ATOM      2  O   UNL     1       8.060   8.557   2.835  0.00  0.00    -0.226 OA
ATOM      9  N   UNL     1       7.394   9.125   5.006  0.00  0.00    -0.251 N 
ATOM     23  C   UNL     1       7.419   9.235   3.629  0.00  0.00    +0.405 C 
ATOM     39  H   UNL     1       6.795   9.784   5.498  0.00  0.00    +0.158 HD
BRANCH   9  28
ATOM     28  C   UNL     1       8.099   8.209   5.819  0.00  0.00    +0.036 A 
ATOM     30  C   UNL     1       8.162   6.863   5.459  0.00  0.00    +0.024 A 
ATOM     31  C   UNL     1       8.730   8.652   6.981  0.00  0.00    +0.024 A 
ATOM     32  C   UNL     1       8.857   5.959   6.263  0.00  0.00    +0.013 A 
ATOM     33  C   UNL     1       9.424   7.747   7.785  0.00  0.00    +0.013 A 
ATOM     35  C   UNL     1       9.487   6.401   7.426  0.00  0.00    +0.017 A 
BRANCH  35  37
ATOM      5  O   UNL     1      11.447   5.525   8.405  0.00  0.00    -0.292 OA
ATOM     37  C   UNL     1      10.210   5.458   8.266  0.00  0.00    +0.160 C 
ATOM     38  C   UNL     1       9.459   4.353   9.001  0.00  0.00    +0.091 C 
ENDBRANCH  35  37
ENDBRANCH   9  28
ENDBRANCH   1  23
ENDBRANCH  18   1
ENDBRANCH  12  18
TORSDOF 9
ENDMDL
MODEL 10
REMARK VINA RESULT:      -6.8     27.553     31.003
REMARK  Name = 44716366
REMARK  13 active torsions:
REMARK  status: ('A' for Active; 'I' for Inactive)
REMARK    1  A    between atoms: O_1  and  C_18
REMARK    2  A    between atoms: O_1  and  C_23
REMARK    3  A    between atoms: O_3  and  C_26
REMARK    4  A    between atoms: O_3  and  C_34
REMARK    5  A    between atoms: O_4  and  C_29
REMARK    6  A    between atoms: O_4  and  C_36
REMARK    7  A    between atoms: N_7  and  C_21
REMARK    8  A    between atoms: N_9  and  C_28
REMARK    9  A    between atoms: C_11  and  C_17
REMARK   10  A    between atoms: C_12  and  C_18
REMARK   11  A    between atoms: C_20  and  C_22
REMARK   12  A    between atoms: C_35  and  C_37
REMARK   13  A    between atoms: C_37  and  C_38
REMARK                            x       y       z     vdW  Elec       q    Type
REMARK                         _______ _______ _______ _____ _____    ______ ____
ROOT
ATOM      6  N   UNL     1     -11.722 -11.959  18.590  0.00  0.00    -0.296 NA
ATOM     10  C   UNL     1     -11.799  -9.491  17.764  0.00  0.00    +0.002 C 
ATOM     11  C   UNL     1     -11.749 -10.466  16.557  0.00  0.00    +0.055 C 
ATOM     12  C   UNL     1     -10.692 -11.154  19.297  0.00  0.00    +0.095 C 
ATOM     13  C   UNL     1     -10.582  -9.745  18.677  0.00  0.00    +0.026 C 
ATOM     14  C   UNL     1     -13.060  -9.855  18.579  0.00  0.00    +0.019 C 
ATOM     15  C   UNL     1     -11.501 -11.893  17.124  0.00  0.00    +0.094 C 
ATOM     16  C   UNL     1     -13.047 -11.363  18.886  0.00  0.00    +0.085 C 
ENDROOT
BRANCH  11  17
ATOM      7  N   UNL     1     -11.218  -9.456  14.290  0.00  0.00    -0.270 N 
ATOM      8  N   UNL     1     -10.241  -9.263  13.388  0.00  0.00    -0.171 NA
ATOM     17  C   UNL     1     -10.813 -10.134  15.403  0.00  0.00    +0.044 A 
ATOM     19  C   UNL     1      -9.480 -10.403  15.215  0.00  0.00    +0.053 A 
ATOM     20  C   UNL     1      -9.182  -9.844  13.957  0.00  0.00    +0.093 A 
ATOM     21  C   UNL     1     -12.543  -8.955  14.013  0.00  0.00    +0.172 C 
BRANCH  20  22
ATOM     22  C   UNL     1      -7.906  -9.855  13.291  0.00  0.00    +0.006 A 
ATOM     24  C   UNL     1      -7.838  -9.662  11.912  0.00  0.00    +0.059 A 
ATOM     25  C   UNL     1      -6.737 -10.061  14.025  0.00  0.00    +0.014 A 
ATOM     26  C   UNL     1      -6.601  -9.673  11.266  0.00  0.00    +0.162 A 
ATOM     27  C   UNL     1      -5.501 -10.073  13.378  0.00  0.00    +0.050 A 
ATOM     29  C   UNL     1      -5.434  -9.879  11.999  0.00  0.00    +0.162 A 
BRANCH  26   3
ATOM      3  O   UNL     1      -6.548  -9.483   9.918  0.00  0.00    -0.491 OA
ATOM     34  C   UNL     1      -7.399  -8.478   9.370  0.00  0.00    +0.277 C 
ENDBRANCH  26   3
BRANCH  29   4
ATOM      4  O   UNL     1      -4.220  -9.892  11.379  0.00  0.00    -0.491 OA
ATOM     36  C   UNL     1      -3.680 -11.169  11.041  0.00  0.00    +0.277 C 
ENDBRANCH  29   4
ENDBRANCH  20  22
ENDBRANCH  11  17
BRANCH  12  18
ATOM     18  C   UNL     1      -9.335 -11.862  19.351  0.00  0.00    +0.252 C 
BRANCH  18   1
ATOM      1  O   UNL     1      -8.415 -11.012  20.007  0.00  0.00    -0.449 OA
BRANCH   1  23
ATOM      2  O   UNL     1      -6.179 -11.179  20.457  0.00  0.00    -0.226 OA
ATOM      9  N   UNL     1      -7.000 -11.189  18.265  0.00  0.00    -0.251 N 
ATOM     23  C   UNL     1      -7.092 -11.133  19.642  0.00  0.00    +0.405 C 
ATOM     39  H   UNL     1      -7.877 -11.136  17.753  0.00  0.00    +0.158 HD
BRANCH   9  28
ATOM     28  C   UNL     1      -5.834 -11.312  17.475  0.00  0.00    +0.036 A 
ATOM     30  C   UNL     1      -5.573 -12.503  16.797  0.00  0.00    +0.024 A 
ATOM     31  C   UNL     1      -4.944 -10.242  17.375  0.00  0.00    +0.024 A 
ATOM     32  C   UNL     1      -4.421 -12.623  16.018  0.00  0.00    +0.013 A 
ATOM     33  C   UNL     1      -3.793 -10.364  16.596  0.00  0.00    +0.013 A 
ATOM     35  C   UNL     1      -3.532 -11.554  15.918  0.00  0.00    +0.017 A 
BRANCH  35  37
ATOM      5  O   UNL     1      -2.245 -12.528  14.197  0.00  0.00    -0.292 OA
ATOM     37  C   UNL     1      -2.330 -11.680  15.108  0.00  0.00    +0.160 C 
ATOM     38  C   UNL     1      -1.134 -10.768  15.360  0.00  0.00    +0.091 C 
ENDBRANCH  35  37
ENDBRANCH   9  28
ENDBRANCH   1  23
ENDBRANCH  18   1
ENDBRANCH  12  18
TORSDOF 9
ENDMDL
