MODEL 1
REMARK VINA RESULT:      -6.3      0.000      0.000
REMARK  Name = 25314937
REMARK  4 active torsions:
REMARK  status: ('A' for Active; 'I' for Inactive)
REMARK    1  A    between atoms: O_3  and  C_11
REMARK    2  A    between atoms: N_6  and  C_9
REMARK    3  A    between atoms: N_7  and  C_10
REMARK    4  A    between atoms: N_8  and  C_17
REMARK                            x       y       z     vdW  Elec       q    Type
REMARK                         _______ _______ _______ _____ _____    ______ ____
ROOT
ATOM      1  O   UNL     1      10.041   8.195   5.462  0.00  0.00    -0.342 OA
ATOM      2  O   UNL     1       9.161   7.703   7.550  0.00  0.00    -0.347 OA
ATOM      9  C   UNL     1      11.564   7.764   7.281  0.00  0.00    +0.144 C 
ATOM     10  C   UNL     1      10.793   5.912   5.651  0.00  0.00    +0.136 C 
ATOM     11  C   UNL     1      11.585   6.258   6.933  0.00  0.00    +0.159 C 
ATOM     12  C   UNL     1       9.583   6.840   5.417  0.00  0.00    +0.170 C 
ATOM     13  C   UNL     1      10.221   8.395   6.870  0.00  0.00    +0.270 C 
ATOM     14  C   UNL     1       8.579   6.850   6.553  0.00  0.00    +0.196 C 
ENDROOT
BRANCH   9   6
ATOM      4  O   UNL     1      15.187   9.764   6.585  0.00  0.00    -0.377 OA
ATOM      6  N   UNL     1      12.661   8.452   6.604  0.00  0.00    -0.288 NA
ATOM     15  C   UNL     1      13.917   7.704   6.753  0.00  0.00    +0.113 C 
ATOM     16  C   UNL     1      12.823   9.816   7.126  0.00  0.00    +0.113 C 
ATOM     18  C   UNL     1      15.050   8.447   6.050  0.00  0.00    +0.175 C 
ATOM     19  C   UNL     1      13.981  10.509   6.413  0.00  0.00    +0.175 C 
ENDBRANCH   9   6
BRANCH  10   7
ATOM      5  O   UNL     1      10.657   4.215   3.336  0.00  0.00    -0.253 OA
ATOM      7  N   UNL     1      11.669   5.947   4.500  0.00  0.00    -0.291 N 
ATOM      8  N   UNL     1      12.494   5.325   2.451  0.00  0.00    -0.297 N 
ATOM     20  C   UNL     1      11.526   5.082   3.421  0.00  0.00    +0.300 C 
ATOM     26  H   UNL     1      12.465   6.577   4.516  0.00  0.00    +0.151 HD
ATOM     28  H   UNL     1      13.208   6.017   2.655  0.00  0.00    +0.151 HD
BRANCH   8  17
ATOM     17  C   UNL     1      12.585   4.575   1.218  0.00  0.00    +0.074 C 
ATOM     21  C   UNL     1      13.198   5.425   0.100  0.00  0.00    +0.022 C 
ATOM     22  C   UNL     1      13.369   3.274   1.421  0.00  0.00    +0.022 C 
ATOM     23  C   UNL     1      14.694   5.666   0.302  0.00  0.00    +0.002 C 
ATOM     24  C   UNL     1      14.865   3.520   1.621  0.00  0.00    +0.002 C 
ATOM     25  C   UNL     1      15.455   4.357   0.491  0.00  0.00    +0.000 C 
ENDBRANCH   8  17
ENDBRANCH  10   7
BRANCH  11   3
ATOM      3  O   UNL     1      11.009   5.546   8.036  0.00  0.00    -0.388 OA
ATOM     27  H   UNL     1      11.721   5.046   8.468  0.00  0.00    +0.210 HD
ENDBRANCH  11   3
TORSDOF 4
ENDMDL
MODEL 2
REMARK VINA RESULT:      -5.7     23.283     25.729
REMARK  Name = 25314937
REMARK  4 active torsions:
REMARK  status: ('A' for Active; 'I' for Inactive)
REMARK    1  A    between atoms: O_3  and  C_11
REMARK    2  A    between atoms: N_6  and  C_9
REMARK    3  A    between atoms: N_7  and  C_10
REMARK    4  A    between atoms: N_8  and  C_17
REMARK                            x       y       z     vdW  Elec       q    Type
REMARK                         _______ _______ _______ _____ _____    ______ ____
ROOT
ATOM      1  O   UNL     1      -1.078 -15.408  -5.335  0.00  0.00    -0.342 OA
ATOM      2  O   UNL     1      -2.677 -13.972  -6.208  0.00  0.00    -0.347 OA
ATOM      9  C   UNL     1      -0.349 -13.322  -6.301  0.00  0.00    +0.144 C 
ATOM     10  C   UNL     1      -0.830 -13.585  -3.775  0.00  0.00    +0.136 C 
ATOM     11  C   UNL     1      -0.467 -12.622  -4.928  0.00  0.00    +0.159 C 
ATOM     12  C   UNL     1      -1.716 -14.764  -4.227  0.00  0.00    +0.170 C 
ATOM     13  C   UNL     1      -1.350 -14.489  -6.401  0.00  0.00    +0.270 C 
ATOM     14  C   UNL     1      -3.026 -14.348  -4.867  0.00  0.00    +0.196 C 
ENDROOT
BRANCH   9   6
ATOM      4  O   UNL     1       3.589 -13.711  -7.698  0.00  0.00    -0.377 OA
ATOM      6  N   UNL     1       1.011 -13.820  -6.496  0.00  0.00    -0.288 NA
ATOM     15  C   UNL     1       1.998 -12.804  -6.106  0.00  0.00    +0.113 C 
ATOM     16  C   UNL     1       1.225 -14.218  -7.894  0.00  0.00    +0.113 C 
ATOM     18  C   UNL     1       3.410 -13.341  -6.331  0.00  0.00    +0.175 C 
ATOM     19  C   UNL     1       2.654 -14.722  -8.076  0.00  0.00    +0.175 C 
ENDBRANCH   9   6
BRANCH  10   7
ATOM      5  O   UNL     1      -0.102 -13.337  -1.006  0.00  0.00    -0.253 OA
ATOM      7  N   UNL     1       0.373 -14.087  -3.149  0.00  0.00    -0.291 N 
ATOM      8  N   UNL     1       1.861 -14.495  -1.449  0.00  0.00    -0.297 N 
ATOM     20  C   UNL     1       0.642 -13.919  -1.794  0.00  0.00    +0.300 C 
ATOM     26  H   UNL     1       1.084 -14.513  -3.736  0.00  0.00    +0.151 HD
ATOM     28  H   UNL     1       2.429 -14.887  -2.193  0.00  0.00    +0.151 HD
BRANCH   8  17
ATOM     17  C   UNL     1       2.394 -14.473  -0.106  0.00  0.00    +0.074 C 
ATOM     21  C   UNL     1       2.782 -15.881   0.358  0.00  0.00    +0.022 C 
ATOM     22  C   UNL     1       3.580 -13.507   0.000  0.00  0.00    +0.022 C 
ATOM     23  C   UNL     1       4.032 -16.406  -0.349  0.00  0.00    +0.002 C 
ATOM     24  C   UNL     1       4.829 -14.036  -0.706  0.00  0.00    +0.002 C 
ATOM     25  C   UNL     1       5.201 -15.434  -0.221  0.00  0.00    +0.000 C 
ENDBRANCH   8  17
ENDBRANCH  10   7
BRANCH  11   3
ATOM      3  O   UNL     1      -1.491 -11.624  -5.033  0.00  0.00    -0.388 OA
ATOM     27  H   UNL     1      -1.621 -11.241  -4.149  0.00  0.00    +0.210 HD
ENDBRANCH  11   3
TORSDOF 4
ENDMDL
MODEL 3
REMARK VINA RESULT:      -5.5      2.328      3.786
REMARK  Name = 25314937
REMARK  4 active torsions:
REMARK  status: ('A' for Active; 'I' for Inactive)
REMARK    1  A    between atoms: O_3  and  C_11
REMARK    2  A    between atoms: N_6  and  C_9
REMARK    3  A    between atoms: N_7  and  C_10
REMARK    4  A    between atoms: N_8  and  C_17
REMARK                            x       y       z     vdW  Elec       q    Type
REMARK                         _______ _______ _______ _____ _____    ______ ____
ROOT
ATOM      1  O   UNL     1       8.427   6.259   6.173  0.00  0.00    -0.342 OA
ATOM      2  O   UNL     1       8.634   7.561   8.080  0.00  0.00    -0.347 OA
ATOM      9  C   UNL     1       9.214   8.526   5.940  0.00  0.00    +0.144 C 
ATOM     10  C   UNL     1      10.825   6.519   6.186  0.00  0.00    +0.136 C 
ATOM     11  C   UNL     1      10.678   8.056   6.101  0.00  0.00    +0.159 C 
ATOM     12  C   UNL     1       9.614   5.831   6.849  0.00  0.00    +0.170 C 
ATOM     13  C   UNL     1       8.257   7.584   6.694  0.00  0.00    +0.270 C 
ATOM     14  C   UNL     1       9.319   6.312   8.256  0.00  0.00    +0.196 C 
ENDROOT
BRANCH   9   6
ATOM      4  O   UNL     1       8.254   9.961   2.115  0.00  0.00    -0.377 OA
ATOM      6  N   UNL     1       8.853   8.570   4.525  0.00  0.00    -0.288 NA
ATOM     15  C   UNL     1       9.903   9.232   3.739  0.00  0.00    +0.113 C 
ATOM     16  C   UNL     1       7.571   9.261   4.335  0.00  0.00    +0.113 C 
ATOM     18  C   UNL     1       9.498   9.277   2.268  0.00  0.00    +0.175 C 
ATOM     19  C   UNL     1       7.221   9.304   2.851  0.00  0.00    +0.175 C 
ENDBRANCH   9   6
BRANCH  10   7
ATOM      5  O   UNL     1      13.009   7.109   4.414  0.00  0.00    -0.253 OA
ATOM      7  N   UNL     1      11.042   5.967   4.867  0.00  0.00    -0.291 N 
ATOM      8  N   UNL     1      12.106   5.641   2.860  0.00  0.00    -0.297 N 
ATOM     20  C   UNL     1      12.134   6.313   4.078  0.00  0.00    +0.300 C 
ATOM     26  H   UNL     1      10.330   5.360   4.472  0.00  0.00    +0.151 HD
ATOM     28  H   UNL     1      11.298   5.061   2.655  0.00  0.00    +0.151 HD
BRANCH   8  17
ATOM     17  C   UNL     1      13.118   5.807   1.841  0.00  0.00    +0.074 C 
ATOM     21  C   UNL     1      14.182   4.707   1.935  0.00  0.00    +0.022 C 
ATOM     22  C   UNL     1      12.491   5.853   0.443  0.00  0.00    +0.022 C 
ATOM     23  C   UNL     1      13.657   3.345   1.481  0.00  0.00    +0.002 C 
ATOM     24  C   UNL     1      11.968   4.489  -0.009  0.00  0.00    +0.002 C 
ATOM     25  C   UNL     1      13.047   3.414   0.084  0.00  0.00    +0.000 C 
ENDBRANCH   8  17
ENDBRANCH  10   7
BRANCH  11   3
ATOM      3  O   UNL     1      11.193   8.634   7.308  0.00  0.00    -0.388 OA
ATOM     27  H   UNL     1      11.987   8.132   7.560  0.00  0.00    +0.210 HD
ENDBRANCH  11   3
TORSDOF 4
ENDMDL
MODEL 4
REMARK VINA RESULT:      -5.5     24.115     26.537
REMARK  Name = 25314937
REMARK  4 active torsions:
REMARK  status: ('A' for Active; 'I' for Inactive)
REMARK    1  A    between atoms: O_3  and  C_11
REMARK    2  A    between atoms: N_6  and  C_9
REMARK    3  A    between atoms: N_7  and  C_10
REMARK    4  A    between atoms: N_8  and  C_17
REMARK                            x       y       z     vdW  Elec       q    Type
REMARK                         _______ _______ _______ _____ _____    ______ ____
ROOT
ATOM      1  O   UNL     1      -5.797  -9.236  16.894  0.00  0.00    -0.342 OA
ATOM      2  O   UNL     1      -6.603 -10.776  18.429  0.00  0.00    -0.347 OA
ATOM      9  C   UNL     1      -5.173 -11.551  16.639  0.00  0.00    +0.144 C 
ATOM     10  C   UNL     1      -7.208 -10.523  15.421  0.00  0.00    +0.136 C 
ATOM     11  C   UNL     1      -6.403 -11.803  15.737  0.00  0.00    +0.159 C 
ATOM     12  C   UNL     1      -7.167  -9.484  16.561  0.00  0.00    +0.170 C 
ATOM     13  C   UNL     1      -5.460 -10.413  17.637  0.00  0.00    +0.270 C 
ATOM     14  C   UNL     1      -7.684  -9.999  17.891  0.00  0.00    +0.196 C 
ENDROOT
BRANCH   9   6
ATOM      4  O   UNL     1      -1.385 -11.699  14.838  0.00  0.00    -0.377 OA
ATOM      6  N   UNL     1      -4.012 -11.209  15.820  0.00  0.00    -0.288 NA
ATOM     15  C   UNL     1      -3.746 -12.260  14.829  0.00  0.00    +0.113 C 
ATOM     16  C   UNL     1      -2.825 -10.999  16.661  0.00  0.00    +0.113 C 
ATOM     18  C   UNL     1      -2.522 -11.888  13.995  0.00  0.00    +0.175 C 
ATOM     19  C   UNL     1      -1.624 -10.656  15.785  0.00  0.00    +0.175 C 
ENDBRANCH   9   6
BRANCH  10   7
ATOM      5  O   UNL     1      -7.534 -11.560  12.761  0.00  0.00    -0.253 OA
ATOM      7  N   UNL     1      -6.730  -9.924  14.195  0.00  0.00    -0.291 N 
ATOM      8  N   UNL     1      -6.377  -9.725  11.935  0.00  0.00    -0.297 N 
ATOM     20  C   UNL     1      -6.936 -10.501  12.946  0.00  0.00    +0.300 C 
ATOM     26  H   UNL     1      -6.156  -9.088  14.254  0.00  0.00    +0.151 HD
ATOM     28  H   UNL     1      -5.842  -8.906  12.206  0.00  0.00    +0.151 HD
BRANCH   8  17
ATOM     17  C   UNL     1      -6.440 -10.082  10.536  0.00  0.00    +0.074 C 
ATOM     21  C   UNL     1      -6.527  -8.835   9.651  0.00  0.00    +0.022 C 
ATOM     22  C   UNL     1      -5.250 -10.963  10.138  0.00  0.00    +0.022 C 
ATOM     23  C   UNL     1      -5.211  -8.058   9.603  0.00  0.00    +0.002 C 
ATOM     24  C   UNL     1      -3.936 -10.183  10.090  0.00  0.00    +0.002 C 
ATOM     25  C   UNL     1      -4.045  -8.953   9.195  0.00  0.00    +0.000 C 
ENDBRANCH   8  17
ENDBRANCH  10   7
BRANCH  11   3
ATOM      3  O   UNL     1      -7.261 -12.730  16.417  0.00  0.00    -0.388 OA
ATOM     27  H   UNL     1      -7.508 -13.423  15.782  0.00  0.00    +0.210 HD
ENDBRANCH  11   3
TORSDOF 4
ENDMDL
MODEL 5
REMARK VINA RESULT:      -5.4     28.164     30.906
REMARK  Name = 25314937
REMARK  4 active torsions:
REMARK  status: ('A' for Active; 'I' for Inactive)
REMARK    1  A    between atoms: O_3  and  C_11
REMARK    2  A    between atoms: N_6  and  C_9
REMARK    3  A    between atoms: N_7  and  C_10
REMARK    4  A    between atoms: N_8  and  C_17
REMARK                            x       y       z     vdW  Elec       q    Type
REMARK                         _______ _______ _______ _____ _____    ______ ____
ROOT
ATOM      1  O   UNL     1     -11.610 -12.516  18.426  0.00  0.00    -0.342 OA
ATOM      2  O   UNL     1     -12.766 -11.443  20.127  0.00  0.00    -0.347 OA
ATOM      9  C   UNL     1     -11.296 -10.143  18.713  0.00  0.00    +0.144 C 
ATOM     10  C   UNL     1      -9.737 -11.889  19.808  0.00  0.00    +0.136 C 
ATOM     11  C   UNL     1     -10.112 -10.396  19.674  0.00  0.00    +0.159 C 
ATOM     12  C   UNL     1     -10.945 -12.835  19.653  0.00  0.00    +0.170 C 
ATOM     13  C   UNL     1     -12.301 -11.309  18.774  0.00  0.00    +0.270 C 
ATOM     14  C   UNL     1     -12.063 -12.583  20.646  0.00  0.00    +0.196 C 
ENDROOT
BRANCH   9   6
ATOM      4  O   UNL     1     -10.249  -8.419  15.033  0.00  0.00    -0.377 OA
ATOM      6  N   UNL     1     -10.808  -9.982  17.345  0.00  0.00    -0.288 NA
ATOM     15  C   UNL     1      -9.672  -9.051  17.304  0.00  0.00    +0.113 C 
ATOM     16  C   UNL     1     -11.880  -9.507  16.460  0.00  0.00    +0.113 C 
ATOM     18  C   UNL     1      -9.187  -8.888  15.865  0.00  0.00    +0.175 C 
ATOM     19  C   UNL     1     -11.344  -9.335  15.043  0.00  0.00    +0.175 C 
ENDBRANCH   9   6
BRANCH  10   7
ATOM      5  O   UNL     1      -6.895 -11.903  20.240  0.00  0.00    -0.253 OA
ATOM      7  N   UNL     1      -8.716 -12.234  18.842  0.00  0.00    -0.291 N 
ATOM      8  N   UNL     1      -6.594 -12.585  18.041  0.00  0.00    -0.297 N 
ATOM     20  C   UNL     1      -7.359 -12.212  19.143  0.00  0.00    +0.300 C 
ATOM     26  H   UNL     1      -8.999 -12.426  17.886  0.00  0.00    +0.151 HD
ATOM     28  H   UNL     1      -7.076 -12.750  17.163  0.00  0.00    +0.151 HD
BRANCH   8  17
ATOM     17  C   UNL     1      -5.151 -12.653  18.066  0.00  0.00    +0.074 C 
ATOM     21  C   UNL     1      -4.606 -13.293  16.785  0.00  0.00    +0.022 C 
ATOM     22  C   UNL     1      -4.538 -11.267  18.297  0.00  0.00    +0.022 C 
ATOM     23  C   UNL     1      -4.746 -12.379  15.568  0.00  0.00    +0.002 C 
ATOM     24  C   UNL     1      -4.678 -10.355  17.078  0.00  0.00    +0.002 C 
ATOM     25  C   UNL     1      -4.120 -11.010  15.818  0.00  0.00    +0.000 C 
ENDBRANCH   8  17
ENDBRANCH  10   7
BRANCH  11   3
ATOM      3  O   UNL     1     -10.484  -9.898  20.966  0.00  0.00    -0.388 OA
ATOM     27  H   UNL     1     -10.901  -9.029  20.839  0.00  0.00    +0.210 HD
ENDBRANCH  11   3
TORSDOF 4
ENDMDL
MODEL 6
REMARK VINA RESULT:      -5.4     23.536     26.425
REMARK  Name = 25314937
REMARK  4 active torsions:
REMARK  status: ('A' for Active; 'I' for Inactive)
REMARK    1  A    between atoms: O_3  and  C_11
REMARK    2  A    between atoms: N_6  and  C_9
REMARK    3  A    between atoms: N_7  and  C_10
REMARK    4  A    between atoms: N_8  and  C_17
REMARK                            x       y       z     vdW  Elec       q    Type
REMARK                         _______ _______ _______ _____ _____    ______ ____
ROOT
ATOM      1  O   UNL     1     -10.324   8.356  17.606  0.00  0.00    -0.342 OA
ATOM      2  O   UNL     1     -12.224   8.009  18.890  0.00  0.00    -0.347 OA
ATOM      9  C   UNL     1     -12.380   9.422  16.934  0.00  0.00    +0.144 C 
ATOM     10  C   UNL     1     -10.631  10.602  18.427  0.00  0.00    +0.136 C 
ATOM     11  C   UNL     1     -12.033  10.668  17.780  0.00  0.00    +0.159 C 
ATOM     12  C   UNL     1     -10.193   9.165  18.779  0.00  0.00    +0.170 C 
ATOM     13  C   UNL     1     -11.743   8.160  17.544  0.00  0.00    +0.270 C 
ATOM     14  C   UNL     1     -11.136   8.441  19.721  0.00  0.00    +0.196 C 
ENDROOT
BRANCH   9   6
ATOM      4  O   UNL     1     -12.342   9.907  12.765  0.00  0.00    -0.377 OA
ATOM      6  N   UNL     1     -11.909   9.599  15.562  0.00  0.00    -0.288 NA
ATOM     15  C   UNL     1     -12.413  10.858  14.997  0.00  0.00    +0.113 C 
ATOM     16  C   UNL     1     -12.320   8.469  14.719  0.00  0.00    +0.113 C 
ATOM     18  C   UNL     1     -11.919  11.016  13.560  0.00  0.00    +0.175 C 
ATOM     19  C   UNL     1     -11.828   8.682  13.290  0.00  0.00    +0.175 C 
ENDBRANCH   9   6
BRANCH  10   7
ATOM      5  O   UNL     1     -10.268  13.414  17.959  0.00  0.00    -0.253 OA
ATOM      7  N   UNL     1      -9.652  11.215  17.557  0.00  0.00    -0.291 N 
ATOM      8  N   UNL     1      -8.529  12.917  16.504  0.00  0.00    -0.297 N 
ATOM     20  C   UNL     1      -9.550  12.592  17.393  0.00  0.00    +0.300 C 
ATOM     26  H   UNL     1      -9.066  10.613  16.987  0.00  0.00    +0.151 HD
ATOM     28  H   UNL     1      -8.046  12.157  16.037  0.00  0.00    +0.151 HD
BRANCH   8  17
ATOM     17  C   UNL     1      -8.196  14.278  16.145  0.00  0.00    +0.074 C 
ATOM     21  C   UNL     1      -7.527  15.009  17.314  0.00  0.00    +0.022 C 
ATOM     22  C   UNL     1      -7.317  14.317  14.890  0.00  0.00    +0.022 C 
ATOM     23  C   UNL     1      -6.106  14.514  17.577  0.00  0.00    +0.002 C 
ATOM     24  C   UNL     1      -5.895  13.822  15.157  0.00  0.00    +0.002 C 
ATOM     25  C   UNL     1      -5.247  14.572  16.317  0.00  0.00    +0.000 C 
ENDBRANCH   8  17
ENDBRANCH  10   7
BRANCH  11   3
ATOM      3  O   UNL     1     -13.015  10.778  18.820  0.00  0.00    -0.388 OA
ATOM     27  H   UNL     1     -13.842  10.392  18.486  0.00  0.00    +0.210 HD
ENDBRANCH  11   3
TORSDOF 4
ENDMDL
MODEL 7
REMARK VINA RESULT:      -5.3     25.944     28.573
REMARK  Name = 25314937
REMARK  4 active torsions:
REMARK  status: ('A' for Active; 'I' for Inactive)
REMARK    1  A    between atoms: O_3  and  C_11
REMARK    2  A    between atoms: N_6  and  C_9
REMARK    3  A    between atoms: N_7  and  C_10
REMARK    4  A    between atoms: N_8  and  C_17
REMARK                            x       y       z     vdW  Elec       q    Type
REMARK                         _______ _______ _______ _____ _____    ______ ____
ROOT
ATOM      1  O   UNL     1      -6.257 -12.760  18.599  0.00  0.00    -0.342 OA
ATOM      2  O   UNL     1      -7.299 -11.311  20.080  0.00  0.00    -0.347 OA
ATOM      9  C   UNL     1      -8.158 -11.494  17.827  0.00  0.00    +0.144 C 
ATOM     10  C   UNL     1      -5.727 -10.675  17.511  0.00  0.00    +0.136 C 
ATOM     11  C   UNL     1      -7.231 -10.350  17.357  0.00  0.00    +0.159 C 
ATOM     12  C   UNL     1      -5.426 -11.600  18.708  0.00  0.00    +0.170 C 
ATOM     13  C   UNL     1      -7.530 -12.247  19.014  0.00  0.00    +0.270 C 
ATOM     14  C   UNL     1      -5.887 -11.055  20.046  0.00  0.00    +0.196 C 
ENDROOT
BRANCH   9   6
ATOM      4  O   UNL     1     -10.079 -13.606  14.750  0.00  0.00    -0.377 OA
ATOM      6  N   UNL     1      -8.406 -12.424  16.726  0.00  0.00    -0.288 NA
ATOM     15  C   UNL     1      -8.783 -11.698  15.506  0.00  0.00    +0.113 C 
ATOM     16  C   UNL     1      -9.456 -13.387  17.084  0.00  0.00    +0.113 C 
ATOM     18  C   UNL     1      -9.049 -12.690  14.376  0.00  0.00    +0.175 C 
ATOM     19  C   UNL     1      -9.705 -14.339  15.918  0.00  0.00    +0.175 C 
ENDBRANCH   9   6
BRANCH  10   7
ATOM      5  O   UNL     1      -3.097 -10.336  16.403  0.00  0.00    -0.253 OA
ATOM      7  N   UNL     1      -5.219 -11.266  16.293  0.00  0.00    -0.291 N 
ATOM      8  N   UNL     1      -3.691 -11.729  14.644  0.00  0.00    -0.297 N 
ATOM     20  C   UNL     1      -3.925 -11.045  15.833  0.00  0.00    +0.300 C 
ATOM     26  H   UNL     1      -5.855 -11.804  15.712  0.00  0.00    +0.151 HD
ATOM     28  H   UNL     1      -4.468 -12.227  14.221  0.00  0.00    +0.151 HD
BRANCH   8  17
ATOM     17  C   UNL     1      -2.430 -11.682  13.939  0.00  0.00    +0.074 C 
ATOM     21  C   UNL     1      -2.249 -12.915  13.047  0.00  0.00    +0.022 C 
ATOM     22  C   UNL     1      -2.299 -10.387  13.128  0.00  0.00    +0.022 C 
ATOM     23  C   UNL     1      -3.167 -12.892  11.824  0.00  0.00    +0.002 C 
ATOM     24  C   UNL     1      -3.217 -10.368  11.905  0.00  0.00    +0.002 C 
ATOM     25  C   UNL     1      -3.012 -11.600  11.029  0.00  0.00    +0.000 C 
ENDBRANCH   8  17
ENDBRANCH  10   7
BRANCH  11   3
ATOM      3  O   UNL     1      -7.533  -9.190  18.144  0.00  0.00    -0.388 OA
ATOM     27  H   UNL     1      -7.750  -9.492  19.042  0.00  0.00    +0.210 HD
ENDBRANCH  11   3
TORSDOF 4
ENDMDL
MODEL 8
REMARK VINA RESULT:      -5.2     36.445     38.462
REMARK  Name = 25314937
REMARK  4 active torsions:
REMARK  status: ('A' for Active; 'I' for Inactive)
REMARK    1  A    between atoms: O_3  and  C_11
REMARK    2  A    between atoms: N_6  and  C_9
REMARK    3  A    between atoms: N_7  and  C_10
REMARK    4  A    between atoms: N_8  and  C_17
REMARK                            x       y       z     vdW  Elec       q    Type
REMARK                         _______ _______ _______ _____ _____    ______ ____
ROOT
ATOM      1  O   UNL     1     -13.752   2.889  30.917  0.00  0.00    -0.342 OA
ATOM      2  O   UNL     1     -14.983   1.273  32.034  0.00  0.00    -0.347 OA
ATOM      9  C   UNL     1     -16.113   3.258  31.239  0.00  0.00    +0.144 C 
ATOM     10  C   UNL     1     -14.333   4.159  32.882  0.00  0.00    +0.136 C 
ATOM     11  C   UNL     1     -15.837   3.977  32.580  0.00  0.00    +0.159 C 
ATOM     12  C   UNL     1     -13.458   3.025  32.311  0.00  0.00    +0.170 C 
ATOM     13  C   UNL     1     -15.017   2.215  30.950  0.00  0.00    +0.270 C 
ATOM     14  C   UNL     1     -13.831   1.641  32.807  0.00  0.00    +0.196 C 
ENDROOT
BRANCH   9   6
ATOM      4  O   UNL     1     -17.584   5.809  28.250  0.00  0.00    -0.377 OA
ATOM      6  N   UNL     1     -16.170   4.230  30.150  0.00  0.00    -0.288 NA
ATOM     15  C   UNL     1     -16.930   5.421  30.554  0.00  0.00    +0.113 C 
ATOM     16  C   UNL     1     -16.772   3.633  28.949  0.00  0.00    +0.113 C 
ATOM     18  C   UNL     1     -16.988   6.416  29.397  0.00  0.00    +0.175 C 
ATOM     19  C   UNL     1     -16.832   4.668  27.831  0.00  0.00    +0.175 C 
ENDBRANCH   9   6
BRANCH  10   7
ATOM      5  O   UNL     1     -14.172   6.629  34.343  0.00  0.00    -0.253 OA
ATOM      7  N   UNL     1     -13.874   5.435  32.377  0.00  0.00    -0.291 N 
ATOM      8  N   UNL     1     -13.352   7.669  32.436  0.00  0.00    -0.297 N 
ATOM     20  C   UNL     1     -13.831   6.582  33.162  0.00  0.00    +0.300 C 
ATOM     26  H   UNL     1     -13.646   5.512  31.390  0.00  0.00    +0.151 HD
ATOM     28  H   UNL     1     -13.169   7.536  31.447  0.00  0.00    +0.151 HD
BRANCH   8  17
ATOM     17  C   UNL     1     -13.200   8.992  32.999  0.00  0.00    +0.074 C 
ATOM     21  C   UNL     1     -11.766   9.221  33.489  0.00  0.00    +0.022 C 
ATOM     22  C   UNL     1     -13.622  10.070  31.995  0.00  0.00    +0.022 C 
ATOM     23  C   UNL     1     -10.772   9.374  32.338  0.00  0.00    +0.002 C 
ATOM     24  C   UNL     1     -12.625  10.222  30.846  0.00  0.00    +0.002 C 
ATOM     25  C   UNL     1     -11.208  10.459  31.359  0.00  0.00    +0.000 C 
ENDBRANCH   8  17
ENDBRANCH  10   7
BRANCH  11   3
ATOM      3  O   UNL     1     -16.425   3.193  33.626  0.00  0.00    -0.388 OA
ATOM     27  H   UNL     1     -16.092   2.284  33.535  0.00  0.00    +0.210 HD
ENDBRANCH  11   3
TORSDOF 4
ENDMDL
MODEL 9
REMARK VINA RESULT:      -5.2      2.146      2.855
REMARK  Name = 25314937
REMARK  4 active torsions:
REMARK  status: ('A' for Active; 'I' for Inactive)
REMARK    1  A    between atoms: O_3  and  C_11
REMARK    2  A    between atoms: N_6  and  C_9
REMARK    3  A    between atoms: N_7  and  C_10
REMARK    4  A    between atoms: N_8  and  C_17
REMARK                            x       y       z     vdW  Elec       q    Type
REMARK                         _______ _______ _______ _____ _____    ______ ____
ROOT
ATOM      1  O   UNL     1       8.804   6.227   6.810  0.00  0.00    -0.342 OA
ATOM      2  O   UNL     1       9.874   5.735   8.808  0.00  0.00    -0.347 OA
ATOM      9  C   UNL     1      10.695   7.572   7.466  0.00  0.00    +0.144 C 
ATOM     10  C   UNL     1      10.930   5.510   5.925  0.00  0.00    +0.136 C 
ATOM     11  C   UNL     1      11.656   6.622   6.716  0.00  0.00    +0.159 C 
ATOM     12  C   UNL     1       9.608   5.064   6.583  0.00  0.00    +0.170 C 
ATOM     13  C   UNL     1       9.449   6.808   7.951  0.00  0.00    +0.270 C 
ATOM     14  C   UNL     1       9.760   4.553   8.002  0.00  0.00    +0.196 C 
ENDROOT
BRANCH   9   6
ATOM      4  O   UNL     1      10.279  11.414   5.829  0.00  0.00    -0.377 OA
ATOM      6  N   UNL     1      10.291   8.672   6.592  0.00  0.00    -0.288 NA
ATOM     15  C   UNL     1      11.465   9.301   5.972  0.00  0.00    +0.113 C 
ATOM     16  C   UNL     1       9.518   9.674   7.338  0.00  0.00    +0.113 C 
ATOM     18  C   UNL     1      11.020  10.454   5.075  0.00  0.00    +0.175 C 
ATOM     19  C   UNL     1       9.119  10.816   6.410  0.00  0.00    +0.175 C 
ENDBRANCH   9   6
BRANCH  10   7
ATOM      5  O   UNL     1      10.978   3.877   3.561  0.00  0.00    -0.253 OA
ATOM      7  N   UNL     1      10.682   5.945   4.568  0.00  0.00    -0.291 N 
ATOM      8  N   UNL     1      10.451   5.748   2.293  0.00  0.00    -0.297 N 
ATOM     20  C   UNL     1      10.727   5.078   3.481  0.00  0.00    +0.300 C 
ATOM     26  H   UNL     1      10.543   6.936   4.394  0.00  0.00    +0.151 HD
ATOM     28  H   UNL     1      10.329   6.755   2.333  0.00  0.00    +0.151 HD
BRANCH   8  17
ATOM     17  C   UNL     1      10.428   5.095   1.003  0.00  0.00    +0.074 C 
ATOM     21  C   UNL     1       9.915   6.043  -0.086  0.00  0.00    +0.022 C 
ATOM     22  C   UNL     1      11.809   4.534   0.645  0.00  0.00    +0.022 C 
ATOM     23  C   UNL     1      10.923   7.139  -0.430  0.00  0.00    +0.002 C 
ATOM     24  C   UNL     1      12.814   5.633   0.300  0.00  0.00    +0.002 C 
ATOM     25  C   UNL     1      12.286   6.556  -0.793  0.00  0.00    +0.000 C 
ENDBRANCH   8  17
ENDBRANCH  10   7
BRANCH  11   3
ATOM      3  O   UNL     1      12.514   6.010   7.688  0.00  0.00    -0.388 OA
ATOM     27  H   UNL     1      13.340   6.521   7.716  0.00  0.00    +0.210 HD
ENDBRANCH  11   3
TORSDOF 4
ENDMDL
MODEL 10
REMARK VINA RESULT:      -5.2     29.239     33.034
REMARK  Name = 25314937
REMARK  4 active torsions:
REMARK  status: ('A' for Active; 'I' for Inactive)
REMARK    1  A    between atoms: O_3  and  C_11
REMARK    2  A    between atoms: N_6  and  C_9
REMARK    3  A    between atoms: N_7  and  C_10
REMARK    4  A    between atoms: N_8  and  C_17
REMARK                            x       y       z     vdW  Elec       q    Type
REMARK                         _______ _______ _______ _____ _____    ______ ____
ROOT
ATOM      1  O   UNL     1     -15.932   3.123  23.032  0.00  0.00    -0.342 OA
ATOM      2  O   UNL     1     -17.444   3.251  24.786  0.00  0.00    -0.347 OA
ATOM      9  C   UNL     1     -17.772   4.672  22.857  0.00  0.00    +0.144 C 
ATOM     10  C   UNL     1     -15.456   5.369  23.769  0.00  0.00    +0.136 C 
ATOM     11  C   UNL     1     -16.921   5.787  23.507  0.00  0.00    +0.159 C 
ATOM     12  C   UNL     1     -15.300   3.866  24.080  0.00  0.00    +0.170 C 
ATOM     13  C   UNL     1     -17.319   3.286  23.355  0.00  0.00    +0.270 C 
ATOM     14  C   UNL     1     -16.103   3.393  25.277  0.00  0.00    +0.196 C 
ENDROOT
BRANCH   9   6
ATOM      4  O   UNL     1     -18.673   5.349  18.814  0.00  0.00    -0.377 OA
ATOM      6  N   UNL     1     -17.656   4.735  21.401  0.00  0.00    -0.288 NA
ATOM     15  C   UNL     1     -17.771   6.122  20.930  0.00  0.00    +0.113 C 
ATOM     16  C   UNL     1     -18.680   3.900  20.760  0.00  0.00    +0.113 C 
ATOM     18  C   UNL     1     -17.661   6.163  19.408  0.00  0.00    +0.175 C 
ATOM     19  C   UNL     1     -18.548   3.991  19.243  0.00  0.00    +0.175 C 
ENDBRANCH   9   6
BRANCH  10   7
ATOM      5  O   UNL     1     -14.565   8.006  23.052  0.00  0.00    -0.253 OA
ATOM      7  N   UNL     1     -14.627   5.725  22.638  0.00  0.00    -0.291 N 
ATOM      8  N   UNL     1     -13.452   7.102  21.228  0.00  0.00    -0.297 N 
ATOM     20  C   UNL     1     -14.244   7.035  22.370  0.00  0.00    +0.300 C 
ATOM     26  H   UNL     1     -14.378   5.000  21.973  0.00  0.00    +0.151 HD
ATOM     28  H   UNL     1     -13.308   6.248  20.698  0.00  0.00    +0.151 HD
BRANCH   8  17
ATOM     17  C   UNL     1     -12.909   8.339  20.712  0.00  0.00    +0.074 C 
ATOM     21  C   UNL     1     -11.486   8.139  20.182  0.00  0.00    +0.022 C 
ATOM     22  C   UNL     1     -13.824   8.935  19.636  0.00  0.00    +0.022 C 
ATOM     23  C   UNL     1     -11.454   7.343  18.877  0.00  0.00    +0.002 C 
ATOM     24  C   UNL     1     -13.788   8.138  18.332  0.00  0.00    +0.002 C 
ATOM     25  C   UNL     1     -12.363   7.961  17.819  0.00  0.00    +0.000 C 
ENDBRANCH   8  17
ENDBRANCH  10   7
BRANCH  11   3
ATOM      3  O   UNL     1     -17.532   6.130  24.758  0.00  0.00    -0.388 OA
ATOM     27  H   UNL     1     -17.862   5.309  25.159  0.00  0.00    +0.210 HD
ENDBRANCH  11   3
TORSDOF 4
ENDMDL
