MODEL 1
REMARK VINA RESULT:      -6.4      0.000      0.000
REMARK  Name = 26763051
REMARK  9 active torsions:
REMARK  status: ('A' for Active; 'I' for Inactive)
REMARK    1  A    between atoms: N_6  and  C_11
REMARK    2  A    between atoms: N_7  and  C_20
REMARK    3  A    between atoms: N_7  and  C_21
REMARK    4  A    between atoms: N_8  and  C_22
REMARK    5  A    between atoms: C_10  and  C_15
REMARK    6  A    between atoms: C_15  and  C_17
REMARK    7  A    between atoms: C_17  and  C_19
REMARK    8  A    between atoms: C_20  and  C_23
REMARK    9  A    between atoms: C_21  and  C_24
REMARK                            x       y       z     vdW  Elec       q    Type
REMARK                         _______ _______ _______ _____ _____    ______ ____
ROOT
ATOM      1  O   UNL     1      -5.621 -14.458  16.454  0.00  0.00    -0.274 OA
ATOM      4  N   UNL     1      -4.190 -11.340  15.598  0.00  0.00    -0.285 NA
ATOM      5  N   UNL     1      -3.775 -14.008  15.165  0.00  0.00    -0.313 N 
ATOM      9  C   UNL     1      -4.647 -12.269  16.635  0.00  0.00    +0.145 C 
ATOM     10  C   UNL     1      -2.827 -11.680  15.183  0.00  0.00    +0.075 C 
ATOM     11  C   UNL     1      -5.740 -10.135  16.868  0.00  0.00    +0.090 C 
ATOM     12  C   UNL     1      -5.953 -11.636  17.091  0.00  0.00    +0.052 C 
ATOM     13  C   UNL     1      -4.372 -10.014  16.188  0.00  0.00    +0.107 C 
ATOM     14  C   UNL     1      -2.901 -13.053  14.501  0.00  0.00    +0.123 C 
ATOM     16  C   UNL     1      -4.767 -13.663  16.063  0.00  0.00    +0.230 C 
ATOM     30  H   UNL     1      -3.775 -14.960  14.813  0.00  0.00    +0.149 HD
ENDROOT
BRANCH  11   6
ATOM      2  O   UNL     1      -8.247  -9.101  17.793  0.00  0.00    -0.253 OA
ATOM      6  N   UNL     1      -6.793  -9.575  16.057  0.00  0.00    -0.295 N 
ATOM      8  N   UNL     1      -8.820  -8.609  15.569  0.00  0.00    -0.269 N 
ATOM     18  C   UNL     1      -7.994  -9.089  16.590  0.00  0.00    +0.304 C 
ATOM     31  H   UNL     1      -6.690  -9.600  15.047  0.00  0.00    +0.151 HD
ATOM     32  H   UNL     1      -8.458  -8.673  14.621  0.00  0.00    +0.156 HD
BRANCH   8  22
ATOM     22  C   UNL     1     -10.109  -8.040  15.691  0.00  0.00    +0.035 A 
ATOM     25  C   UNL     1     -11.233  -8.863  15.753  0.00  0.00    +0.023 A 
ATOM     26  C   UNL     1     -10.257  -6.654  15.750  0.00  0.00    +0.023 A 
ATOM     27  C   UNL     1     -12.503  -8.302  15.874  0.00  0.00    +0.002 A 
ATOM     28  C   UNL     1     -11.527  -6.092  15.870  0.00  0.00    +0.002 A 
ATOM     29  C   UNL     1     -12.651  -6.916  15.932  0.00  0.00    +0.000 A 
ENDBRANCH   8  22
ENDBRANCH  11   6
BRANCH  10  15
ATOM     15  C   UNL     1      -2.222 -10.659  14.216  0.00  0.00    +0.029 C 
BRANCH  15  17
ATOM     17  C   UNL     1      -2.087 -11.242  12.814  0.00  0.00    +0.097 C 
BRANCH  17  19
ATOM      3  O   UNL     1      -1.222  -9.530  11.377  0.00  0.00    -0.276 OA
ATOM      7  N   UNL     1      -3.487  -9.992  11.190  0.00  0.00    -0.302 N 
ATOM     19  C   UNL     1      -2.210 -10.177  11.732  0.00  0.00    +0.216 C 
BRANCH   7  20
ATOM     20  C   UNL     1      -4.685 -10.731  11.580  0.00  0.00    +0.104 C 
ATOM     23  C   UNL     1      -5.565  -9.917  12.506  0.00  0.00    +0.024 C 
ENDBRANCH   7  20
BRANCH   7  21
ATOM     21  C   UNL     1      -3.689  -8.984  10.158  0.00  0.00    +0.104 C 
ATOM     24  C   UNL     1      -4.393  -9.562   8.948  0.00  0.00    +0.024 C 
ENDBRANCH   7  21
ENDBRANCH  17  19
ENDBRANCH  15  17
ENDBRANCH  10  15
TORSDOF 7
ENDMDL
MODEL 2
REMARK VINA RESULT:      -6.3     18.905     21.486
REMARK  Name = 26763051
REMARK  9 active torsions:
REMARK  status: ('A' for Active; 'I' for Inactive)
REMARK    1  A    between atoms: N_6  and  C_11
REMARK    2  A    between atoms: N_7  and  C_20
REMARK    3  A    between atoms: N_7  and  C_21
REMARK    4  A    between atoms: N_8  and  C_22
REMARK    5  A    between atoms: C_10  and  C_15
REMARK    6  A    between atoms: C_15  and  C_17
REMARK    7  A    between atoms: C_17  and  C_19
REMARK    8  A    between atoms: C_20  and  C_23
REMARK    9  A    between atoms: C_21  and  C_24
REMARK                            x       y       z     vdW  Elec       q    Type
REMARK                         _______ _______ _______ _____ _____    ______ ____
ROOT
ATOM      1  O   UNL     1     -17.314   1.345  22.535  0.00  0.00    -0.274 OA
ATOM      4  N   UNL     1     -16.657   3.609  25.172  0.00  0.00    -0.285 NA
ATOM      5  N   UNL     1     -17.159   0.947  24.791  0.00  0.00    -0.313 N 
ATOM      9  C   UNL     1     -17.468   3.236  24.010  0.00  0.00    +0.145 C 
ATOM     10  C   UNL     1     -17.135   2.908  26.365  0.00  0.00    +0.075 C 
ATOM     11  C   UNL     1     -16.564   5.452  23.737  0.00  0.00    +0.090 C 
ATOM     12  C   UNL     1     -16.984   4.209  22.945  0.00  0.00    +0.052 C 
ATOM     13  C   UNL     1     -16.723   5.069  25.212  0.00  0.00    +0.107 C 
ATOM     14  C   UNL     1     -16.868   1.414  26.139  0.00  0.00    +0.123 C 
ATOM     16  C   UNL     1     -17.270   1.773  23.688  0.00  0.00    +0.230 C 
ATOM     30  H   UNL     1     -17.099  -0.052  24.622  0.00  0.00    +0.149 HD
ENDROOT
BRANCH  11   6
ATOM      2  O   UNL     1     -15.716   7.154  21.593  0.00  0.00    -0.253 OA
ATOM      6  N   UNL     1     -15.209   5.835  23.425  0.00  0.00    -0.295 N 
ATOM      8  N   UNL     1     -13.494   6.868  22.299  0.00  0.00    -0.269 N 
ATOM     18  C   UNL     1     -14.877   6.675  22.354  0.00  0.00    +0.304 C 
ATOM     31  H   UNL     1     -14.454   5.419  23.962  0.00  0.00    +0.151 HD
ATOM     32  H   UNL     1     -12.938   6.397  23.008  0.00  0.00    +0.156 HD
BRANCH   8  22
ATOM     22  C   UNL     1     -12.763   7.646  21.370  0.00  0.00    +0.035 A 
ATOM     25  C   UNL     1     -12.846   9.037  21.406  0.00  0.00    +0.023 A 
ATOM     26  C   UNL     1     -11.959   7.020  20.417  0.00  0.00    +0.023 A 
ATOM     27  C   UNL     1     -12.124   9.803  20.492  0.00  0.00    +0.002 A 
ATOM     28  C   UNL     1     -11.239   7.786  19.501  0.00  0.00    +0.002 A 
ATOM     29  C   UNL     1     -11.321   9.178  19.538  0.00  0.00    +0.000 A 
ENDBRANCH   8  22
ENDBRANCH  11   6
BRANCH  10  15
ATOM     15  C   UNL     1     -16.439   3.364  27.649  0.00  0.00    +0.029 C 
BRANCH  15  17
ATOM     17  C   UNL     1     -15.901   2.175  28.436  0.00  0.00    +0.097 C 
BRANCH  17  19
ATOM      3  O   UNL     1     -14.971   3.801  29.932  0.00  0.00    -0.276 OA
ATOM      7  N   UNL     1     -14.693   1.575  30.520  0.00  0.00    -0.302 N 
ATOM     19  C   UNL     1     -15.150   2.605  29.690  0.00  0.00    +0.216 C 
BRANCH   7  20
ATOM     20  C   UNL     1     -14.879   0.147  30.275  0.00  0.00    +0.104 C 
ATOM     23  C   UNL     1     -13.606  -0.502  29.772  0.00  0.00    +0.024 C 
ENDBRANCH   7  20
BRANCH   7  21
ATOM     21  C   UNL     1     -13.956   1.905  31.733  0.00  0.00    +0.104 C 
ATOM     24  C   UNL     1     -14.775   1.616  32.974  0.00  0.00    +0.024 C 
ENDBRANCH   7  21
ENDBRANCH  17  19
ENDBRANCH  15  17
ENDBRANCH  10  15
TORSDOF 7
ENDMDL
MODEL 3
REMARK VINA RESULT:      -6.1     19.210     22.315
REMARK  Name = 26763051
REMARK  9 active torsions:
REMARK  status: ('A' for Active; 'I' for Inactive)
REMARK    1  A    between atoms: N_6  and  C_11
REMARK    2  A    between atoms: N_7  and  C_20
REMARK    3  A    between atoms: N_7  and  C_21
REMARK    4  A    between atoms: N_8  and  C_22
REMARK    5  A    between atoms: C_10  and  C_15
REMARK    6  A    between atoms: C_15  and  C_17
REMARK    7  A    between atoms: C_17  and  C_19
REMARK    8  A    between atoms: C_20  and  C_23
REMARK    9  A    between atoms: C_21  and  C_24
REMARK                            x       y       z     vdW  Elec       q    Type
REMARK                         _______ _______ _______ _____ _____    ______ ____
ROOT
ATOM      1  O   UNL     1     -16.490   0.204  25.327  0.00  0.00    -0.274 OA
ATOM      4  N   UNL     1     -16.666   3.313  27.003  0.00  0.00    -0.285 NA
ATOM      5  N   UNL     1     -16.433   0.650  27.578  0.00  0.00    -0.313 N 
ATOM      9  C   UNL     1     -17.252   2.365  26.051  0.00  0.00    +0.145 C 
ATOM     10  C   UNL     1     -17.049   2.956  28.370  0.00  0.00    +0.075 C 
ATOM     11  C   UNL     1     -16.927   4.515  25.014  0.00  0.00    +0.090 C 
ATOM     12  C   UNL     1     -16.944   3.013  24.710  0.00  0.00    +0.052 C 
ATOM     13  C   UNL     1     -17.109   4.625  26.531  0.00  0.00    +0.107 C 
ATOM     14  C   UNL     1     -16.389   1.605  28.676  0.00  0.00    +0.123 C 
ATOM     16  C   UNL     1     -16.656   0.991  26.258  0.00  0.00    +0.230 C 
ATOM     30  H   UNL     1     -16.104  -0.291  27.768  0.00  0.00    +0.149 HD
ENDROOT
BRANCH  11   6
ATOM      2  O   UNL     1     -16.371   5.575  22.411  0.00  0.00    -0.253 OA
ATOM      6  N   UNL     1     -15.694   5.122  24.575  0.00  0.00    -0.295 N 
ATOM      8  N   UNL     1     -14.215   6.144  23.147  0.00  0.00    -0.269 N 
ATOM     18  C   UNL     1     -15.503   5.617  23.280  0.00  0.00    +0.304 C 
ATOM     31  H   UNL     1     -14.905   5.125  25.214  0.00  0.00    +0.151 HD
ATOM     32  H   UNL     1     -13.617   6.102  23.968  0.00  0.00    +0.156 HD
BRANCH   8  22
ATOM     22  C   UNL     1     -13.634   6.737  22.001  0.00  0.00    +0.035 A 
ATOM     25  C   UNL     1     -12.480   6.191  21.441  0.00  0.00    +0.023 A 
ATOM     26  C   UNL     1     -14.217   7.870  21.430  0.00  0.00    +0.023 A 
ATOM     27  C   UNL     1     -11.908   6.774  20.312  0.00  0.00    +0.002 A 
ATOM     28  C   UNL     1     -13.644   8.454  20.301  0.00  0.00    +0.002 A 
ATOM     29  C   UNL     1     -12.489   7.907  19.741  0.00  0.00    +0.000 A 
ENDBRANCH   8  22
ENDBRANCH  11   6
BRANCH  10  15
ATOM     15  C   UNL     1     -16.607   3.990  29.407  0.00  0.00    +0.029 C 
BRANCH  15  17
ATOM     17  C   UNL     1     -15.308   3.568  30.086  0.00  0.00    +0.097 C 
BRANCH  17  19
ATOM      3  O   UNL     1     -15.340   5.625  31.316  0.00  0.00    -0.276 OA
ATOM      7  N   UNL     1     -14.231   3.844  32.305  0.00  0.00    -0.302 N 
ATOM     19  C   UNL     1     -14.970   4.449  31.281  0.00  0.00    +0.216 C 
BRANCH   7  20
ATOM     20  C   UNL     1     -13.770   2.458  32.307  0.00  0.00    +0.104 C 
ATOM     23  C   UNL     1     -14.730   1.554  33.053  0.00  0.00    +0.024 C 
ENDBRANCH   7  20
BRANCH   7  21
ATOM     21  C   UNL     1     -13.858   4.624  33.478  0.00  0.00    +0.104 C 
ATOM     24  C   UNL     1     -15.000   4.716  34.468  0.00  0.00    +0.024 C 
ENDBRANCH   7  21
ENDBRANCH  17  19
ENDBRANCH  15  17
ENDBRANCH  10  15
TORSDOF 7
ENDMDL
MODEL 4
REMARK VINA RESULT:      -6.1     28.249     31.374
REMARK  Name = 26763051
REMARK  9 active torsions:
REMARK  status: ('A' for Active; 'I' for Inactive)
REMARK    1  A    between atoms: N_6  and  C_11
REMARK    2  A    between atoms: N_7  and  C_20
REMARK    3  A    between atoms: N_7  and  C_21
REMARK    4  A    between atoms: N_8  and  C_22
REMARK    5  A    between atoms: C_10  and  C_15
REMARK    6  A    between atoms: C_15  and  C_17
REMARK    7  A    between atoms: C_17  and  C_19
REMARK    8  A    between atoms: C_20  and  C_23
REMARK    9  A    between atoms: C_21  and  C_24
REMARK                            x       y       z     vdW  Elec       q    Type
REMARK                         _______ _______ _______ _____ _____    ______ ____
ROOT
ATOM      1  O   UNL     1      19.085  10.985  21.607  0.00  0.00    -0.274 OA
ATOM      4  N   UNL     1      17.418   7.974  20.795  0.00  0.00    -0.285 NA
ATOM      5  N   UNL     1      17.141  10.670  20.427  0.00  0.00    -0.313 N 
ATOM      9  C   UNL     1      17.992   8.855  21.816  0.00  0.00    +0.145 C 
ATOM     10  C   UNL     1      16.056   8.402  20.470  0.00  0.00    +0.075 C 
ATOM     11  C   UNL     1      18.966   6.656  21.951  0.00  0.00    +0.090 C 
ATOM     12  C   UNL     1      19.283   8.138  22.182  0.00  0.00    +0.052 C 
ATOM     13  C   UNL     1      17.555   6.629  21.355  0.00  0.00    +0.107 C 
ATOM     14  C   UNL     1      16.171   9.780  19.804  0.00  0.00    +0.123 C 
ATOM     16  C   UNL     1      18.162  10.250  21.257  0.00  0.00    +0.230 C 
ATOM     30  H   UNL     1      17.177  11.626  20.089  0.00  0.00    +0.149 HD
ENDROOT
BRANCH  11   6
ATOM      2  O   UNL     1      21.251   5.109  22.722  0.00  0.00    -0.253 OA
ATOM      6  N   UNL     1      19.933   6.049  21.070  0.00  0.00    -0.295 N 
ATOM      8  N   UNL     1      21.786   4.842  20.451  0.00  0.00    -0.269 N 
ATOM     18  C   UNL     1      21.027   5.305  21.529  0.00  0.00    +0.304 C 
ATOM     31  H   UNL     1      19.857   6.229  20.073  0.00  0.00    +0.151 HD
ATOM     32  H   UNL     1      21.461   5.094  19.521  0.00  0.00    +0.156 HD
BRANCH   8  22
ATOM     22  C   UNL     1      22.964   4.058  20.492  0.00  0.00    +0.035 A 
ATOM     25  C   UNL     1      22.899   2.722  20.884  0.00  0.00    +0.023 A 
ATOM     26  C   UNL     1      24.190   4.623  20.139  0.00  0.00    +0.023 A 
ATOM     27  C   UNL     1      24.059   1.949  20.923  0.00  0.00    +0.002 A 
ATOM     28  C   UNL     1      25.350   3.851  20.179  0.00  0.00    +0.002 A 
ATOM     29  C   UNL     1      25.285   2.513  20.571  0.00  0.00    +0.000 A 
ENDBRANCH   8  22
ENDBRANCH  11   6
BRANCH  10  15
ATOM     15  C   UNL     1      15.333   7.436  19.527  0.00  0.00    +0.029 C 
BRANCH  15  17
ATOM     17  C   UNL     1      14.190   8.132  18.798  0.00  0.00    +0.097 C 
BRANCH  17  19
ATOM      3  O   UNL     1      12.414   6.543  19.054  0.00  0.00    -0.276 OA
ATOM      7  N   UNL     1      12.096   8.619  20.038  0.00  0.00    -0.302 N 
ATOM     19  C   UNL     1      12.825   7.679  19.300  0.00  0.00    +0.216 C 
BRANCH   7  20
ATOM     20  C   UNL     1      12.540   9.974  20.354  0.00  0.00    +0.104 C 
ATOM     23  C   UNL     1      12.986  10.091  21.797  0.00  0.00    +0.024 C 
ENDBRANCH   7  20
BRANCH   7  21
ATOM     21  C   UNL     1      10.776   8.265  20.545  0.00  0.00    +0.104 C 
ATOM     24  C   UNL     1      10.869   7.305  21.713  0.00  0.00    +0.024 C 
ENDBRANCH   7  21
ENDBRANCH  17  19
ENDBRANCH  15  17
ENDBRANCH  10  15
TORSDOF 7
ENDMDL
MODEL 5
REMARK VINA RESULT:      -5.8     23.517     27.486
REMARK  Name = 26763051
REMARK  9 active torsions:
REMARK  status: ('A' for Active; 'I' for Inactive)
REMARK    1  A    between atoms: N_6  and  C_11
REMARK    2  A    between atoms: N_7  and  C_20
REMARK    3  A    between atoms: N_7  and  C_21
REMARK    4  A    between atoms: N_8  and  C_22
REMARK    5  A    between atoms: C_10  and  C_15
REMARK    6  A    between atoms: C_15  and  C_17
REMARK    7  A    between atoms: C_17  and  C_19
REMARK    8  A    between atoms: C_20  and  C_23
REMARK    9  A    between atoms: C_21  and  C_24
REMARK                            x       y       z     vdW  Elec       q    Type
REMARK                         _______ _______ _______ _____ _____    ______ ____
ROOT
ATOM      1  O   UNL     1      16.679   7.444   1.387  0.00  0.00    -0.274 OA
ATOM      4  N   UNL     1      13.797   5.400   1.228  0.00  0.00    -0.285 NA
ATOM      5  N   UNL     1      16.340   5.492   0.225  0.00  0.00    -0.313 N 
ATOM      9  C   UNL     1      14.409   6.722   1.066  0.00  0.00    +0.145 C 
ATOM     10  C   UNL     1      13.998   4.601   0.018  0.00  0.00    +0.075 C 
ATOM     11  C   UNL     1      12.552   6.831   2.596  0.00  0.00    +0.090 C 
ATOM     12  C   UNL     1      13.913   7.467   2.296  0.00  0.00    +0.052 C 
ATOM     13  C   UNL     1      12.409   5.683   1.591  0.00  0.00    +0.107 C 
ATOM     14  C   UNL     1      15.506   4.344  -0.098  0.00  0.00    +0.123 C 
ATOM     16  C   UNL     1      15.911   6.585   0.954  0.00  0.00    +0.230 C 
ATOM     30  H   UNL     1      17.338   5.403   0.062  0.00  0.00    +0.149 HD
ENDROOT
BRANCH  11   6
ATOM      2  O   UNL     1      10.261   6.892   4.316  0.00  0.00    -0.253 OA
ATOM      6  N   UNL     1      12.484   6.363   3.959  0.00  0.00    -0.295 N 
ATOM      8  N   UNL     1      11.555   5.904   6.008  0.00  0.00    -0.269 N 
ATOM     18  C   UNL     1      11.320   6.429   4.735  0.00  0.00    +0.304 C 
ATOM     31  H   UNL     1      13.339   6.037   4.399  0.00  0.00    +0.151 HD
ATOM     32  H   UNL     1      12.493   5.560   6.195  0.00  0.00    +0.156 HD
BRANCH   8  22
ATOM     22  C   UNL     1      10.641   5.790   7.082  0.00  0.00    +0.035 A 
ATOM     25  C   UNL     1       9.950   6.914   7.534  0.00  0.00    +0.023 A 
ATOM     26  C   UNL     1      10.429   4.552   7.689  0.00  0.00    +0.023 A 
ATOM     27  C   UNL     1       9.049   6.801   8.591  0.00  0.00    +0.002 A 
ATOM     28  C   UNL     1       9.529   4.439   8.748  0.00  0.00    +0.002 A 
ATOM     29  C   UNL     1       8.838   5.564   9.199  0.00  0.00    +0.000 A 
ENDBRANCH   8  22
ENDBRANCH  11   6
BRANCH  10  15
ATOM     15  C   UNL     1      13.251   3.266   0.050  0.00  0.00    +0.029 C 
BRANCH  15  17
ATOM     17  C   UNL     1      12.617   2.957  -1.302  0.00  0.00    +0.097 C 
BRANCH  17  19
ATOM      3  O   UNL     1      10.488   3.816  -0.610  0.00  0.00    -0.276 OA
ATOM      7  N   UNL     1      11.143   4.298  -2.782  0.00  0.00    -0.302 N 
ATOM     19  C   UNL     1      11.318   3.724  -1.517  0.00  0.00    +0.216 C 
BRANCH   7  20
ATOM     20  C   UNL     1      12.096   4.215  -3.886  0.00  0.00    +0.104 C 
ATOM     23  C   UNL     1      12.841   5.520  -4.077  0.00  0.00    +0.024 C 
ENDBRANCH   7  20
BRANCH   7  21
ATOM     21  C   UNL     1       9.922   5.039  -3.071  0.00  0.00    +0.104 C 
ATOM     24  C   UNL     1       8.944   4.206  -3.873  0.00  0.00    +0.024 C 
ENDBRANCH   7  21
ENDBRANCH  17  19
ENDBRANCH  15  17
ENDBRANCH  10  15
TORSDOF 7
ENDMDL
MODEL 6
REMARK VINA RESULT:      -5.8     19.554     21.453
REMARK  Name = 26763051
REMARK  9 active torsions:
REMARK  status: ('A' for Active; 'I' for Inactive)
REMARK    1  A    between atoms: N_6  and  C_11
REMARK    2  A    between atoms: N_7  and  C_20
REMARK    3  A    between atoms: N_7  and  C_21
REMARK    4  A    between atoms: N_8  and  C_22
REMARK    5  A    between atoms: C_10  and  C_15
REMARK    6  A    between atoms: C_15  and  C_17
REMARK    7  A    between atoms: C_17  and  C_19
REMARK    8  A    between atoms: C_20  and  C_23
REMARK    9  A    between atoms: C_21  and  C_24
REMARK                            x       y       z     vdW  Elec       q    Type
REMARK                         _______ _______ _______ _____ _____    ______ ____
ROOT
ATOM      1  O   UNL     1     -19.260   6.647  24.663  0.00  0.00    -0.274 OA
ATOM      4  N   UNL     1     -16.189   5.139  23.766  0.00  0.00    -0.285 NA
ATOM      5  N   UNL     1     -17.734   7.286  23.071  0.00  0.00    -0.313 N 
ATOM      9  C   UNL     1     -17.636   5.019  23.963  0.00  0.00    +0.145 C 
ATOM     10  C   UNL     1     -15.906   5.681  22.436  0.00  0.00    +0.075 C 
ATOM     11  C   UNL     1     -16.463   3.381  25.283  0.00  0.00    +0.090 C 
ATOM     12  C   UNL     1     -17.728   4.247  25.271  0.00  0.00    +0.052 C 
ATOM     13  C   UNL     1     -15.671   3.799  24.041  0.00  0.00    +0.107 C 
ATOM     14  C   UNL     1     -16.444   7.119  22.419  0.00  0.00    +0.123 C 
ATOM     16  C   UNL     1     -18.272   6.391  23.976  0.00  0.00    +0.230 C 
ATOM     30  H   UNL     1     -18.179   8.196  22.994  0.00  0.00    +0.149 HD
ENDROOT
BRANCH  11   6
ATOM      2  O   UNL     1     -16.726   1.910  27.728  0.00  0.00    -0.253 OA
ATOM      6  N   UNL     1     -15.707   3.581  26.495  0.00  0.00    -0.295 N 
ATOM      8  N   UNL     1     -15.026   3.235  28.661  0.00  0.00    -0.269 N 
ATOM     18  C   UNL     1     -15.897   2.815  27.652  0.00  0.00    +0.304 C 
ATOM     31  H   UNL     1     -15.056   4.360  26.534  0.00  0.00    +0.151 HD
ATOM     32  H   UNL     1     -14.399   4.003  28.433  0.00  0.00    +0.156 HD
BRANCH   8  22
ATOM     22  C   UNL     1     -14.905   2.720  29.973  0.00  0.00    +0.035 A 
ATOM     25  C   UNL     1     -14.336   1.463  30.180  0.00  0.00    +0.023 A 
ATOM     26  C   UNL     1     -15.355   3.469  31.061  0.00  0.00    +0.023 A 
ATOM     27  C   UNL     1     -14.217   0.956  31.473  0.00  0.00    +0.002 A 
ATOM     28  C   UNL     1     -15.237   2.961  32.354  0.00  0.00    +0.002 A 
ATOM     29  C   UNL     1     -14.667   1.704  32.561  0.00  0.00    +0.000 A 
ENDBRANCH   8  22
ENDBRANCH  11   6
BRANCH  10  15
ATOM     15  C   UNL     1     -14.414   5.688  22.096  0.00  0.00    +0.029 C 
BRANCH  15  17
ATOM     17  C   UNL     1     -13.899   7.111  21.907  0.00  0.00    +0.097 C 
BRANCH  17  19
ATOM      3  O   UNL     1     -11.820   6.177  21.163  0.00  0.00    -0.276 OA
ATOM      7  N   UNL     1     -12.300   8.334  20.455  0.00  0.00    -0.302 N 
ATOM     19  C   UNL     1     -12.579   7.149  21.148  0.00  0.00    +0.216 C 
BRANCH   7  20
ATOM     20  C   UNL     1     -13.165   9.509  20.410  0.00  0.00    +0.104 C 
ATOM     23  C   UNL     1     -12.525  10.698  21.095  0.00  0.00    +0.024 C 
ENDBRANCH   7  20
BRANCH   7  21
ATOM     21  C   UNL     1     -11.052   8.453  19.713  0.00  0.00    +0.104 C 
ATOM     24  C   UNL     1     -11.224   8.039  18.267  0.00  0.00    +0.024 C 
ENDBRANCH   7  21
ENDBRANCH  17  19
ENDBRANCH  15  17
ENDBRANCH  10  15
TORSDOF 7
ENDMDL
MODEL 7
REMARK VINA RESULT:      -5.8      3.316      4.941
REMARK  Name = 26763051
REMARK  9 active torsions:
REMARK  status: ('A' for Active; 'I' for Inactive)
REMARK    1  A    between atoms: N_6  and  C_11
REMARK    2  A    between atoms: N_7  and  C_20
REMARK    3  A    between atoms: N_7  and  C_21
REMARK    4  A    between atoms: N_8  and  C_22
REMARK    5  A    between atoms: C_10  and  C_15
REMARK    6  A    between atoms: C_15  and  C_17
REMARK    7  A    between atoms: C_17  and  C_19
REMARK    8  A    between atoms: C_20  and  C_23
REMARK    9  A    between atoms: C_21  and  C_24
REMARK                            x       y       z     vdW  Elec       q    Type
REMARK                         _______ _______ _______ _____ _____    ______ ____
ROOT
ATOM      1  O   UNL     1      -3.028 -14.478  13.122  0.00  0.00    -0.274 OA
ATOM      4  N   UNL     1      -2.535 -11.026  12.538  0.00  0.00    -0.285 NA
ATOM      5  N   UNL     1      -3.493 -13.238  11.247  0.00  0.00    -0.313 N 
ATOM      9  C   UNL     1      -1.979 -12.325  12.926  0.00  0.00    +0.145 C 
ATOM     10  C   UNL     1      -2.565 -10.908  11.079  0.00  0.00    +0.075 C 
ATOM     11  C   UNL     1      -1.560 -10.680  14.636  0.00  0.00    +0.090 C 
ATOM     12  C   UNL     1      -1.818 -12.177  14.432  0.00  0.00    +0.052 C 
ATOM     13  C   UNL     1      -1.709 -10.049  13.247  0.00  0.00    +0.107 C 
ATOM     14  C   UNL     1      -3.568 -11.952  10.570  0.00  0.00    +0.123 C 
ATOM     16  C   UNL     1      -2.903 -13.436  12.481  0.00  0.00    +0.230 C 
ATOM     30  H   UNL     1      -4.063 -13.992  10.876  0.00  0.00    +0.149 HD
ENDROOT
BRANCH  11   6
ATOM      2  O   UNL     1      -3.859 -11.972  15.756  0.00  0.00    -0.253 OA
ATOM      6  N   UNL     1      -2.489 -10.117  15.584  0.00  0.00    -0.295 N 
ATOM      8  N   UNL     1      -4.309 -10.021  16.982  0.00  0.00    -0.269 N 
ATOM     18  C   UNL     1      -3.593 -10.818  16.085  0.00  0.00    +0.304 C 
ATOM     31  H   UNL     1      -2.378  -9.141  15.846  0.00  0.00    +0.151 HD
ATOM     32  H   UNL     1      -3.952  -9.083  17.145  0.00  0.00    +0.156 HD
BRANCH   8  22
ATOM     22  C   UNL     1      -5.481 -10.359  17.699  0.00  0.00    +0.035 A 
ATOM     25  C   UNL     1      -6.734 -10.030  17.184  0.00  0.00    +0.023 A 
ATOM     26  C   UNL     1      -5.382 -11.022  18.923  0.00  0.00    +0.023 A 
ATOM     27  C   UNL     1      -7.889 -10.364  17.891  0.00  0.00    +0.002 A 
ATOM     28  C   UNL     1      -6.537 -11.355  19.630  0.00  0.00    +0.002 A 
ATOM     29  C   UNL     1      -7.790 -11.026  19.114  0.00  0.00    +0.000 A 
ENDBRANCH   8  22
ENDBRANCH  11   6
BRANCH  10  15
ATOM     15  C   UNL     1      -2.984  -9.517  10.598  0.00  0.00    +0.029 C 
BRANCH  15  17
ATOM     17  C   UNL     1      -3.926  -9.608   9.403  0.00  0.00    +0.097 C 
BRANCH  17  19
ATOM      3  O   UNL     1      -5.147  -7.807  10.409  0.00  0.00    -0.276 OA
ATOM      7  N   UNL     1      -6.196  -8.925   8.668  0.00  0.00    -0.302 N 
ATOM     19  C   UNL     1      -5.135  -8.693   9.550  0.00  0.00    +0.216 C 
BRANCH   7  20
ATOM     20  C   UNL     1      -6.227  -9.961   7.638  0.00  0.00    +0.104 C 
ATOM     23  C   UNL     1      -6.570  -9.384   6.280  0.00  0.00    +0.024 C 
ENDBRANCH   7  20
BRANCH   7  21
ATOM     21  C   UNL     1      -7.393  -8.098   8.752  0.00  0.00    +0.104 C 
ATOM     24  C   UNL     1      -8.475  -8.770   9.572  0.00  0.00    +0.024 C 
ENDBRANCH   7  21
ENDBRANCH  17  19
ENDBRANCH  15  17
ENDBRANCH  10  15
TORSDOF 7
ENDMDL
MODEL 8
REMARK VINA RESULT:      -5.7      1.740      2.312
REMARK  Name = 26763051
REMARK  9 active torsions:
REMARK  status: ('A' for Active; 'I' for Inactive)
REMARK    1  A    between atoms: N_6  and  C_11
REMARK    2  A    between atoms: N_7  and  C_20
REMARK    3  A    between atoms: N_7  and  C_21
REMARK    4  A    between atoms: N_8  and  C_22
REMARK    5  A    between atoms: C_10  and  C_15
REMARK    6  A    between atoms: C_15  and  C_17
REMARK    7  A    between atoms: C_17  and  C_19
REMARK    8  A    between atoms: C_20  and  C_23
REMARK    9  A    between atoms: C_21  and  C_24
REMARK                            x       y       z     vdW  Elec       q    Type
REMARK                         _______ _______ _______ _____ _____    ______ ____
ROOT
ATOM      1  O   UNL     1      -7.666 -13.443  18.241  0.00  0.00    -0.274 OA
ATOM      4  N   UNL     1      -5.964 -10.948  16.402  0.00  0.00    -0.285 NA
ATOM      5  N   UNL     1      -5.746 -13.609  16.993  0.00  0.00    -0.313 N 
ATOM      9  C   UNL     1      -6.529 -11.403  17.675  0.00  0.00    +0.145 C 
ATOM     10  C   UNL     1      -4.619 -11.498  16.223  0.00  0.00    +0.075 C 
ATOM     11  C   UNL     1      -7.459  -9.270  17.051  0.00  0.00    +0.090 C 
ATOM     12  C   UNL     1      -7.796 -10.570  17.789  0.00  0.00    +0.052 C 
ATOM     13  C   UNL     1      -6.062  -9.490  16.459  0.00  0.00    +0.107 C 
ATOM     14  C   UNL     1      -4.776 -13.018  16.083  0.00  0.00    +0.123 C 
ATOM     16  C   UNL     1      -6.739 -12.900  17.642  0.00  0.00    +0.230 C 
ATOM     30  H   UNL     1      -5.809 -14.622  17.011  0.00  0.00    +0.149 HD
ENDROOT
BRANCH  11   6
ATOM      2  O   UNL     1      -9.919  -7.841  17.387  0.00  0.00    -0.253 OA
ATOM      6  N   UNL     1      -8.435  -8.983  16.029  0.00  0.00    -0.295 N 
ATOM      8  N   UNL     1     -10.365  -8.150  15.103  0.00  0.00    -0.269 N 
ATOM     18  C   UNL     1      -9.618  -8.275  16.277  0.00  0.00    +0.304 C 
ATOM     31  H   UNL     1      -8.293  -9.374  15.102  0.00  0.00    +0.151 HD
ATOM     32  H   UNL     1      -9.971  -8.569  14.264  0.00  0.00    +0.156 HD
BRANCH   8  22
ATOM     22  C   UNL     1     -11.614  -7.507  14.933  0.00  0.00    +0.035 A 
ATOM     25  C   UNL     1     -12.796  -8.240  15.035  0.00  0.00    +0.023 A 
ATOM     26  C   UNL     1     -11.663  -6.139  14.662  0.00  0.00    +0.023 A 
ATOM     27  C   UNL     1     -14.027  -7.606  14.869  0.00  0.00    +0.002 A 
ATOM     28  C   UNL     1     -12.893  -5.506  14.494  0.00  0.00    +0.002 A 
ATOM     29  C   UNL     1     -14.076  -6.239  14.597  0.00  0.00    +0.000 A 
ENDBRANCH   8  22
ENDBRANCH  11   6
BRANCH  10  15
ATOM     15  C   UNL     1      -3.902 -10.941  14.991  0.00  0.00    +0.029 C 
BRANCH  15  17
ATOM     17  C   UNL     1      -4.514 -11.484  13.705  0.00  0.00    +0.097 C 
BRANCH  17  19
ATOM      3  O   UNL     1      -5.958  -9.745  12.905  0.00  0.00    -0.276 OA
ATOM      7  N   UNL     1      -4.022 -10.127  11.686  0.00  0.00    -0.302 N 
ATOM     19  C   UNL     1      -4.909 -10.373  12.740  0.00  0.00    +0.216 C 
BRANCH   7  20
ATOM     20  C   UNL     1      -2.772 -10.845  11.449  0.00  0.00    +0.104 C 
ATOM     23  C   UNL     1      -1.576 -10.058  11.947  0.00  0.00    +0.024 C 
ENDBRANCH   7  20
BRANCH   7  21
ATOM     21  C   UNL     1      -4.333  -9.087  10.714  0.00  0.00    +0.104 C 
ATOM     24  C   UNL     1      -4.136  -9.578   9.295  0.00  0.00    +0.024 C 
ENDBRANCH   7  21
ENDBRANCH  17  19
ENDBRANCH  15  17
ENDBRANCH  10  15
TORSDOF 7
ENDMDL
MODEL 9
REMARK VINA RESULT:      -5.7     28.124     29.924
REMARK  Name = 26763051
REMARK  9 active torsions:
REMARK  status: ('A' for Active; 'I' for Inactive)
REMARK    1  A    between atoms: N_6  and  C_11
REMARK    2  A    between atoms: N_7  and  C_20
REMARK    3  A    between atoms: N_7  and  C_21
REMARK    4  A    between atoms: N_8  and  C_22
REMARK    5  A    between atoms: C_10  and  C_15
REMARK    6  A    between atoms: C_15  and  C_17
REMARK    7  A    between atoms: C_17  and  C_19
REMARK    8  A    between atoms: C_20  and  C_23
REMARK    9  A    between atoms: C_21  and  C_24
REMARK                            x       y       z     vdW  Elec       q    Type
REMARK                         _______ _______ _______ _____ _____    ______ ____
ROOT
ATOM      1  O   UNL     1      20.281   8.681  22.554  0.00  0.00    -0.274 OA
ATOM      4  N   UNL     1      17.005   8.407  21.250  0.00  0.00    -0.285 NA
ATOM      5  N   UNL     1      19.265   6.894  21.532  0.00  0.00    -0.313 N 
ATOM      9  C   UNL     1      18.289   9.114  21.282  0.00  0.00    +0.145 C 
ATOM     10  C   UNL     1      17.083   7.263  20.340  0.00  0.00    +0.075 C 
ATOM     11  C   UNL     1      16.477  10.627  21.766  0.00  0.00    +0.090 C 
ATOM     12  C   UNL     1      17.955  10.367  22.078  0.00  0.00    +0.052 C 
ATOM     13  C   UNL     1      16.028   9.440  20.906  0.00  0.00    +0.107 C 
ATOM     14  C   UNL     1      18.081   6.274  20.955  0.00  0.00    +0.123 C 
ATOM     16  C   UNL     1      19.352   8.226  21.887  0.00  0.00    +0.230 C 
ATOM     30  H   UNL     1      20.002   6.275  21.856  0.00  0.00    +0.149 HD
ENDROOT
BRANCH  11   6
ATOM      2  O   UNL     1      14.258  12.380  22.222  0.00  0.00    -0.253 OA
ATOM      6  N   UNL     1      15.701  10.737  22.976  0.00  0.00    -0.295 N 
ATOM      8  N   UNL     1      14.068  11.509  24.395  0.00  0.00    -0.269 N 
ATOM     18  C   UNL     1      14.626  11.624  23.119  0.00  0.00    +0.304 C 
ATOM     31  H   UNL     1      15.992  10.198  23.787  0.00  0.00    +0.151 HD
ATOM     32  H   UNL     1      14.494  10.830  25.021  0.00  0.00    +0.156 HD
BRANCH   8  22
ATOM     22  C   UNL     1      12.972  12.226  24.931  0.00  0.00    +0.035 A 
ATOM     25  C   UNL     1      11.671  11.773  24.717  0.00  0.00    +0.023 A 
ATOM     26  C   UNL     1      13.194  13.387  25.673  0.00  0.00    +0.023 A 
ATOM     27  C   UNL     1      10.591  12.480  25.246  0.00  0.00    +0.002 A 
ATOM     28  C   UNL     1      12.114  14.094  26.200  0.00  0.00    +0.002 A 
ATOM     29  C   UNL     1      10.812  13.640  25.987  0.00  0.00    +0.000 A 
ENDBRANCH   8  22
ENDBRANCH  11   6
BRANCH  10  15
ATOM     15  C   UNL     1      15.735   6.569  20.132  0.00  0.00    +0.029 C 
BRANCH  15  17
ATOM     17  C   UNL     1      15.129   6.935  18.782  0.00  0.00    +0.097 C 
BRANCH  17  19
ATOM      3  O   UNL     1      12.892   6.622  19.584  0.00  0.00    -0.276 OA
ATOM      7  N   UNL     1      13.242   8.429  18.173  0.00  0.00    -0.302 N 
ATOM     19  C   UNL     1      13.654   7.301  18.893  0.00  0.00    +0.216 C 
BRANCH   7  20
ATOM     20  C   UNL     1      14.107   9.262  17.342  0.00  0.00    +0.104 C 
ATOM     23  C   UNL     1      14.151  10.691  17.842  0.00  0.00    +0.024 C 
ENDBRANCH   7  20
BRANCH   7  21
ATOM     21  C   UNL     1      11.845   8.839  18.219  0.00  0.00    +0.104 C 
ATOM     24  C   UNL     1      11.158   8.616  16.888  0.00  0.00    +0.024 C 
ENDBRANCH   7  21
ENDBRANCH  17  19
ENDBRANCH  15  17
ENDBRANCH  10  15
TORSDOF 7
ENDMDL
MODEL 10
REMARK VINA RESULT:      -5.7     23.720     25.746
REMARK  Name = 26763051
REMARK  9 active torsions:
REMARK  status: ('A' for Active; 'I' for Inactive)
REMARK    1  A    between atoms: N_6  and  C_11
REMARK    2  A    between atoms: N_7  and  C_20
REMARK    3  A    between atoms: N_7  and  C_21
REMARK    4  A    between atoms: N_8  and  C_22
REMARK    5  A    between atoms: C_10  and  C_15
REMARK    6  A    between atoms: C_15  and  C_17
REMARK    7  A    between atoms: C_17  and  C_19
REMARK    8  A    between atoms: C_20  and  C_23
REMARK    9  A    between atoms: C_21  and  C_24
REMARK                            x       y       z     vdW  Elec       q    Type
REMARK                         _______ _______ _______ _____ _____    ______ ____
ROOT
ATOM      1  O   UNL     1       9.080   6.207   8.675  0.00  0.00    -0.274 OA
ATOM      4  N   UNL     1       9.404   6.738   5.194  0.00  0.00    -0.285 NA
ATOM      5  N   UNL     1       9.836   4.774   7.048  0.00  0.00    -0.313 N 
ATOM      9  C   UNL     1       9.714   7.161   6.563  0.00  0.00    +0.145 C 
ATOM     10  C   UNL     1      10.341   5.698   4.765  0.00  0.00    +0.075 C 
ATOM     11  C   UNL     1       8.678   8.956   5.336  0.00  0.00    +0.090 C 
ATOM     12  C   UNL     1       8.810   8.370   6.746  0.00  0.00    +0.052 C 
ATOM     13  C   UNL     1       9.417   7.977   4.417  0.00  0.00    +0.107 C 
ATOM     14  C   UNL     1      10.074   4.469   5.645  0.00  0.00    +0.123 C 
ATOM     16  C   UNL     1       9.471   6.019   7.523  0.00  0.00    +0.230 C 
ATOM     30  H   UNL     1       9.759   3.990   7.687  0.00  0.00    +0.149 HD
ENDROOT
BRANCH  11   6
ATOM      2  O   UNL     1       7.640  10.583   3.217  0.00  0.00    -0.253 OA
ATOM      6  N   UNL     1       7.293   9.103   4.961  0.00  0.00    -0.295 N 
ATOM      8  N   UNL     1       5.476   9.864   3.779  0.00  0.00    -0.269 N 
ATOM     18  C   UNL     1       6.867   9.922   3.908  0.00  0.00    +0.304 C 
ATOM     31  H   UNL     1       6.588   8.647   5.532  0.00  0.00    +0.151 HD
ATOM     32  H   UNL     1       4.981   9.264   4.434  0.00  0.00    +0.156 HD
BRANCH   8  22
ATOM     22  C   UNL     1       4.663  10.542   2.841  0.00  0.00    +0.035 A 
ATOM     25  C   UNL     1       4.199   9.875   1.708  0.00  0.00    +0.023 A 
ATOM     26  C   UNL     1       4.323  11.879   3.050  0.00  0.00    +0.023 A 
ATOM     27  C   UNL     1       3.397  10.543   0.784  0.00  0.00    +0.002 A 
ATOM     28  C   UNL     1       3.522  12.548   2.126  0.00  0.00    +0.002 A 
ATOM     29  C   UNL     1       3.058  11.880   0.992  0.00  0.00    +0.000 A 
ENDBRANCH   8  22
ENDBRANCH  11   6
BRANCH  10  15
ATOM     15  C   UNL     1      10.181   5.317   3.291  0.00  0.00    +0.029 C 
BRANCH  15  17
ATOM     17  C   UNL     1      11.366   4.490   2.804  0.00  0.00    +0.097 C 
BRANCH  17  19
ATOM      3  O   UNL     1      10.834   5.320   0.619  0.00  0.00    -0.276 OA
ATOM      7  N   UNL     1      12.765   4.047   0.803  0.00  0.00    -0.302 N 
ATOM     19  C   UNL     1      11.617   4.665   1.312  0.00  0.00    +0.216 C 
BRANCH   7  20
ATOM     20  C   UNL     1      13.718   3.262   1.583  0.00  0.00    +0.104 C 
ATOM     23  C   UNL     1      15.148   3.656   1.273  0.00  0.00    +0.024 C 
ENDBRANCH   7  20
BRANCH   7  21
ATOM     21  C   UNL     1      13.069   4.159  -0.618  0.00  0.00    +0.104 C 
ATOM     24  C   UNL     1      12.518   2.984  -1.398  0.00  0.00    +0.024 C 
ENDBRANCH   7  21
ENDBRANCH  17  19
ENDBRANCH  15  17
ENDBRANCH  10  15
TORSDOF 7
ENDMDL
