MODEL 1
REMARK VINA RESULT:      -6.6      0.000      0.000
REMARK  Name = 38027531
REMARK  12 active torsions:
REMARK  status: ('A' for Active; 'I' for Inactive)
REMARK    1  A    between atoms: N_4  and  C_14
REMARK    2  A    between atoms: N_5  and  C_21
REMARK    3  A    between atoms: N_6  and  C_23
REMARK    4  A    between atoms: C_7  and  C_11
REMARK    5  A    between atoms: C_8  and  C_14
REMARK    6  A    between atoms: C_10  and  C_15
REMARK    7  A    between atoms: C_11  and  C_16
REMARK    8  A    between atoms: C_11  and  C_17
REMARK    9  A    between atoms: C_12  and  C_18
REMARK   10  A    between atoms: C_15  and  C_19
REMARK   11  A    between atoms: C_21  and  C_22
REMARK   12  A    between atoms: C_23  and  C_26
REMARK                            x       y       z     vdW  Elec       q    Type
REMARK                         _______ _______ _______ _____ _____    ______ ____
ROOT
ATOM      7  C   UNL     1      -5.819 -10.613  15.240  0.00  0.00    +0.000 C 
ATOM      8  C   UNL     1      -6.641 -10.585  16.553  0.00  0.00    +0.032 C 
ATOM      9  C   UNL     1      -4.876 -11.825  15.222  0.00  0.00    +0.012 C 
ATOM     10  C   UNL     1      -3.897 -11.820  16.411  0.00  0.00    +0.023 C 
ATOM     12  C   UNL     1      -4.602 -11.528  17.720  0.00  0.00    -0.073 C 
ATOM     13  C   UNL     1      -5.834 -10.990  17.764  0.00  0.00    -0.022 C 
ATOM     18  C   UNL     1      -3.878 -11.915  18.980  0.00  0.00    +0.039 C 
ENDROOT
BRANCH   7  11
ATOM     11  C   UNL     1      -6.723 -10.640  14.003  0.00  0.00    -0.013 C 
ATOM     16  C   UNL     1      -6.215  -9.661  12.951  0.00  0.00    +0.007 C 
ATOM     17  C   UNL     1      -6.802 -12.053  13.433  0.00  0.00    +0.007 C 
ENDBRANCH   7  11
BRANCH   8  14
ATOM     14  C   UNL     1      -7.258  -9.201  16.789  0.00  0.00    +0.113 C 
BRANCH  14   4
ATOM      3  O   UNL     1     -10.055  -9.877  16.571  0.00  0.00    -0.253 OA
ATOM      4  N   UNL     1      -8.217  -9.248  17.847  0.00  0.00    -0.299 N 
ATOM      6  N   UNL     1     -10.274  -9.555  18.859  0.00  0.00    -0.300 N 
ATOM     20  C   UNL     1      -9.563  -9.586  17.661  0.00  0.00    +0.300 C 
ATOM     30  H   UNL     1      -7.897  -9.093  18.799  0.00  0.00    +0.150 HD
ATOM     32  H   UNL     1      -9.786  -9.290  19.709  0.00  0.00    +0.150 HD
BRANCH   6  23
ATOM     23  C   UNL     1     -11.682  -9.864  18.942  0.00  0.00    +0.102 C 
ATOM     26  C   UNL     1     -12.150  -9.936  20.381  0.00  0.00    +0.024 C 
ENDBRANCH   6  23
ENDBRANCH  14   4
ENDBRANCH   8  14
BRANCH  10  15
ATOM     15  C   UNL     1      -2.749 -10.832  16.176  0.00  0.00    +0.103 C 
BRANCH  15  19
ATOM      2  O   UNL     1      -1.338 -12.143  14.712  0.00  0.00    -0.276 OA
ATOM      5  N   UNL     1      -2.164 -10.100  13.975  0.00  0.00    -0.311 N 
ATOM     19  C   UNL     1      -2.000 -11.125  14.895  0.00  0.00    +0.214 C 
ATOM     31  H   UNL     1      -2.741  -9.298  14.216  0.00  0.00    +0.149 HD
BRANCH   5  21
ATOM     21  C   UNL     1      -1.559 -10.112  12.663  0.00  0.00    +0.139 C 
BRANCH  21  22
ATOM      1  F   UNL     1      -5.348 -11.046   8.604  0.00  0.00    -0.205 F 
ATOM     22  C   UNL     1      -2.570 -10.360  11.581  0.00  0.00    -0.030 A 
ATOM     24  C   UNL     1      -3.235 -11.585  11.517  0.00  0.00    +0.008 A 
ATOM     25  C   UNL     1      -2.843  -9.369  10.639  0.00  0.00    +0.008 A 
ATOM     27  C   UNL     1      -4.174 -11.817  10.511  0.00  0.00    +0.038 A 
ATOM     28  C   UNL     1      -3.781  -9.600   9.634  0.00  0.00    +0.038 A 
ATOM     29  C   UNL     1      -4.446 -10.824   9.571  0.00  0.00    +0.123 A 
ENDBRANCH  21  22
ENDBRANCH   5  21
ENDBRANCH  15  19
ENDBRANCH  10  15
TORSDOF 8
ENDMDL
MODEL 2
REMARK VINA RESULT:      -6.5      3.964      7.791
REMARK  Name = 38027531
REMARK  12 active torsions:
REMARK  status: ('A' for Active; 'I' for Inactive)
REMARK    1  A    between atoms: N_4  and  C_14
REMARK    2  A    between atoms: N_5  and  C_21
REMARK    3  A    between atoms: N_6  and  C_23
REMARK    4  A    between atoms: C_7  and  C_11
REMARK    5  A    between atoms: C_8  and  C_14
REMARK    6  A    between atoms: C_10  and  C_15
REMARK    7  A    between atoms: C_11  and  C_16
REMARK    8  A    between atoms: C_11  and  C_17
REMARK    9  A    between atoms: C_12  and  C_18
REMARK   10  A    between atoms: C_15  and  C_19
REMARK   11  A    between atoms: C_21  and  C_22
REMARK   12  A    between atoms: C_23  and  C_26
REMARK                            x       y       z     vdW  Elec       q    Type
REMARK                         _______ _______ _______ _____ _____    ______ ____
ROOT
ATOM      7  C   UNL     1      -5.079 -10.685  10.958  0.00  0.00    +0.000 C 
ATOM      8  C   UNL     1      -4.599  -9.773   9.801  0.00  0.00    +0.032 C 
ATOM      9  C   UNL     1      -4.497 -10.205  12.296  0.00  0.00    +0.012 C 
ATOM     10  C   UNL     1      -2.957 -10.192  12.291  0.00  0.00    +0.023 C 
ATOM     12  C   UNL     1      -2.403  -9.542  11.039  0.00  0.00    -0.073 C 
ATOM     13  C   UNL     1      -3.155  -9.350   9.941  0.00  0.00    -0.022 C 
ATOM     18  C   UNL     1      -0.975  -9.073  11.095  0.00  0.00    +0.039 C 
ENDROOT
BRANCH   7  11
ATOM     11  C   UNL     1      -6.607 -10.736  11.045  0.00  0.00    -0.013 C 
ATOM     16  C   UNL     1      -7.044 -11.561  12.252  0.00  0.00    +0.007 C 
ATOM     17  C   UNL     1      -7.184  -9.326  11.118  0.00  0.00    +0.007 C 
ENDBRANCH   7  11
BRANCH   8  14
ATOM     14  C   UNL     1      -4.802 -10.452   8.441  0.00  0.00    +0.113 C 
BRANCH  14   4
ATOM      3  O   UNL     1      -7.548 -10.052   7.650  0.00  0.00    -0.253 OA
ATOM      4  N   UNL     1      -5.293  -9.519   7.477  0.00  0.00    -0.299 N 
ATOM      6  N   UNL     1      -6.846  -8.402   6.179  0.00  0.00    -0.300 N 
ATOM     20  C   UNL     1      -6.647  -9.384   7.146  0.00  0.00    +0.300 C 
ATOM     30  H   UNL     1      -4.637  -8.871   7.053  0.00  0.00    +0.150 HD
ATOM     32  H   UNL     1      -6.039  -7.910   5.809  0.00  0.00    +0.150 HD
BRANCH   6  23
ATOM     23  C   UNL     1      -8.152  -8.064   5.663  0.00  0.00    +0.102 C 
ATOM     26  C   UNL     1      -8.835  -7.020   6.522  0.00  0.00    +0.024 C 
ENDBRANCH   6  23
ENDBRANCH  14   4
ENDBRANCH   8  14
BRANCH  10  15
ATOM     15  C   UNL     1      -2.393 -11.605  12.470  0.00  0.00    +0.103 C 
BRANCH  15  19
ATOM      2  O   UNL     1      -2.315 -13.191  14.295  0.00  0.00    -0.276 OA
ATOM      5  N   UNL     1      -2.360 -10.914  14.759  0.00  0.00    -0.311 N 
ATOM     19  C   UNL     1      -2.351 -12.022  13.924  0.00  0.00    +0.214 C 
ATOM     31  H   UNL     1      -2.381  -9.982  14.356  0.00  0.00    +0.149 HD
BRANCH   5  21
ATOM     21  C   UNL     1      -2.328 -11.013  16.200  0.00  0.00    +0.139 C 
BRANCH  21  22
ATOM      1  F   UNL     1      -7.442 -10.378  18.468  0.00  0.00    -0.205 F 
ATOM     22  C   UNL     1      -3.692 -10.844  16.805  0.00  0.00    -0.030 A 
ATOM     24  C   UNL     1      -4.677 -10.135  16.116  0.00  0.00    +0.008 A 
ATOM     25  C   UNL     1      -3.975 -11.394  18.055  0.00  0.00    +0.008 A 
ATOM     27  C   UNL     1      -5.944  -9.978  16.678  0.00  0.00    +0.038 A 
ATOM     28  C   UNL     1      -5.241 -11.237  18.617  0.00  0.00    +0.038 A 
ATOM     29  C   UNL     1      -6.225 -10.528  17.928  0.00  0.00    +0.123 A 
ENDBRANCH  21  22
ENDBRANCH   5  21
ENDBRANCH  15  19
ENDBRANCH  10  15
TORSDOF 8
ENDMDL
MODEL 3
REMARK VINA RESULT:      -6.2     28.118     30.829
REMARK  Name = 38027531
REMARK  12 active torsions:
REMARK  status: ('A' for Active; 'I' for Inactive)
REMARK    1  A    between atoms: N_4  and  C_14
REMARK    2  A    between atoms: N_5  and  C_21
REMARK    3  A    between atoms: N_6  and  C_23
REMARK    4  A    between atoms: C_7  and  C_11
REMARK    5  A    between atoms: C_8  and  C_14
REMARK    6  A    between atoms: C_10  and  C_15
REMARK    7  A    between atoms: C_11  and  C_16
REMARK    8  A    between atoms: C_11  and  C_17
REMARK    9  A    between atoms: C_12  and  C_18
REMARK   10  A    between atoms: C_15  and  C_19
REMARK   11  A    between atoms: C_21  and  C_22
REMARK   12  A    between atoms: C_23  and  C_26
REMARK                            x       y       z     vdW  Elec       q    Type
REMARK                         _______ _______ _______ _____ _____    ______ ____
ROOT
ATOM      7  C   UNL     1      20.096   6.083  21.742  0.00  0.00    +0.000 C 
ATOM      8  C   UNL     1      20.391   7.357  22.572  0.00  0.00    +0.032 C 
ATOM      9  C   UNL     1      19.430   6.453  20.408  0.00  0.00    +0.012 C 
ATOM     10  C   UNL     1      18.111   7.222  20.609  0.00  0.00    +0.023 C 
ATOM     12  C   UNL     1      18.257   8.336  21.626  0.00  0.00    -0.073 C 
ATOM     13  C   UNL     1      19.290   8.387  22.486  0.00  0.00    -0.022 C 
ATOM     18  C   UNL     1      17.212   9.417  21.601  0.00  0.00    +0.039 C 
ENDROOT
BRANCH   7  11
ATOM     11  C   UNL     1      21.367   5.268  21.478  0.00  0.00    -0.013 C 
ATOM     16  C   UNL     1      21.014   3.911  20.878  0.00  0.00    +0.007 C 
ATOM     17  C   UNL     1      22.311   6.037  20.559  0.00  0.00    +0.007 C 
ENDBRANCH   7  11
BRANCH   8  14
ATOM     14  C   UNL     1      20.653   7.011  24.043  0.00  0.00    +0.113 C 
BRANCH  14   4
ATOM      3  O   UNL     1      20.011   6.923  26.855  0.00  0.00    -0.253 OA
ATOM      4  N   UNL     1      20.337   8.118  24.888  0.00  0.00    -0.299 N 
ATOM      6  N   UNL     1      19.768   9.230  26.834  0.00  0.00    -0.300 N 
ATOM     20  C   UNL     1      20.035   7.994  26.250  0.00  0.00    +0.300 C 
ATOM     30  H   UNL     1      20.398   9.055  24.502  0.00  0.00    +0.150 HD
ATOM     32  H   UNL     1      19.798  10.062  26.252  0.00  0.00    +0.150 HD
BRANCH   6  23
ATOM     23  C   UNL     1      19.429   9.380  28.230  0.00  0.00    +0.102 C 
ATOM     26  C   UNL     1      18.301  10.372  28.423  0.00  0.00    +0.024 C 
ENDBRANCH   6  23
ENDBRANCH  14   4
ENDBRANCH   8  14
BRANCH  10  15
ATOM     15  C   UNL     1      16.973   6.272  20.997  0.00  0.00    +0.103 C 
BRANCH  15  19
ATOM      2  O   UNL     1      15.731   6.793  18.987  0.00  0.00    -0.276 OA
ATOM      5  N   UNL     1      14.585   6.401  20.970  0.00  0.00    -0.311 N 
ATOM     19  C   UNL     1      15.722   6.521  20.184  0.00  0.00    +0.214 C 
ATOM     31  H   UNL     1      14.678   6.163  21.954  0.00  0.00    +0.149 HD
BRANCH   5  21
ATOM     21  C   UNL     1      13.247   6.588  20.457  0.00  0.00    +0.139 C 
BRANCH  21  22
ATOM      1  F   UNL     1      10.423  10.527  23.323  0.00  0.00    -0.205 F 
ATOM     22  C   UNL     1      12.495   7.639  21.223  0.00  0.00    -0.030 A 
ATOM     24  C   UNL     1      11.257   7.334  21.791  0.00  0.00    +0.008 A 
ATOM     25  C   UNL     1      13.030   8.918  21.363  0.00  0.00    +0.008 A 
ATOM     27  C   UNL     1      10.558   8.310  22.502  0.00  0.00    +0.038 A 
ATOM     28  C   UNL     1      12.331   9.894  22.072  0.00  0.00    +0.038 A 
ATOM     29  C   UNL     1      11.095   9.589  22.641  0.00  0.00    +0.123 A 
ENDBRANCH  21  22
ENDBRANCH   5  21
ENDBRANCH  15  19
ENDBRANCH  10  15
TORSDOF 8
ENDMDL
MODEL 4
REMARK VINA RESULT:      -6.1     26.410     28.921
REMARK  Name = 38027531
REMARK  12 active torsions:
REMARK  status: ('A' for Active; 'I' for Inactive)
REMARK    1  A    between atoms: N_4  and  C_14
REMARK    2  A    between atoms: N_5  and  C_21
REMARK    3  A    between atoms: N_6  and  C_23
REMARK    4  A    between atoms: C_7  and  C_11
REMARK    5  A    between atoms: C_8  and  C_14
REMARK    6  A    between atoms: C_10  and  C_15
REMARK    7  A    between atoms: C_11  and  C_16
REMARK    8  A    between atoms: C_11  and  C_17
REMARK    9  A    between atoms: C_12  and  C_18
REMARK   10  A    between atoms: C_15  and  C_19
REMARK   11  A    between atoms: C_21  and  C_22
REMARK   12  A    between atoms: C_23  and  C_26
REMARK                            x       y       z     vdW  Elec       q    Type
REMARK                         _______ _______ _______ _____ _____    ______ ____
ROOT
ATOM      7  C   UNL     1      12.915  10.051  20.527  0.00  0.00    +0.000 C 
ATOM      8  C   UNL     1      12.906   9.622  22.016  0.00  0.00    +0.032 C 
ATOM      9  C   UNL     1      11.668   9.515  19.807  0.00  0.00    +0.012 C 
ATOM     10  C   UNL     1      11.572   7.979  19.872  0.00  0.00    +0.023 C 
ATOM     12  C   UNL     1      11.822   7.458  21.273  0.00  0.00    -0.073 C 
ATOM     13  C   UNL     1      12.407   8.211  22.222  0.00  0.00    -0.022 C 
ATOM     18  C   UNL     1      11.341   6.065  21.573  0.00  0.00    +0.039 C 
ENDROOT
BRANCH   7  11
ATOM     11  C   UNL     1      12.988  11.573  20.374  0.00  0.00    -0.013 C 
ATOM     16  C   UNL     1      12.121  12.255  21.427  0.00  0.00    +0.007 C 
ATOM     17  C   UNL     1      14.434  12.049  20.474  0.00  0.00    +0.007 C 
ENDBRANCH   7  11
BRANCH   8  14
ATOM     14  C   UNL     1      14.299   9.766  22.641  0.00  0.00    +0.113 C 
BRANCH  14   4
ATOM      3  O   UNL     1      16.464   9.240  20.806  0.00  0.00    -0.253 OA
ATOM      4  N   UNL     1      15.042   8.553  22.512  0.00  0.00    -0.299 N 
ATOM      6  N   UNL     1      16.634   7.097  21.680  0.00  0.00    -0.300 N 
ATOM     20  C   UNL     1      16.083   8.373  21.593  0.00  0.00    +0.300 C 
ATOM     30  H   UNL     1      14.853   7.797  23.164  0.00  0.00    +0.150 HD
ATOM     32  H   UNL     1      16.246   6.442  22.351  0.00  0.00    +0.150 HD
BRANCH   6  23
ATOM     23  C   UNL     1      17.725   6.656  20.842  0.00  0.00    +0.102 C 
ATOM     26  C   UNL     1      17.225   6.142  19.507  0.00  0.00    +0.024 C 
ENDBRANCH   6  23
ENDBRANCH  14   4
ENDBRANCH   8  14
BRANCH  10  15
ATOM     15  C   UNL     1      12.525   7.324  18.866  0.00  0.00    +0.103 C 
BRANCH  15  19
ATOM      2  O   UNL     1      11.316   7.727  16.809  0.00  0.00    -0.276 OA
ATOM      5  N   UNL     1      13.476   8.550  17.047  0.00  0.00    -0.311 N 
ATOM     19  C   UNL     1      12.341   7.873  17.469  0.00  0.00    +0.214 C 
ATOM     31  H   UNL     1      14.276   8.626  17.670  0.00  0.00    +0.149 HD
BRANCH   5  21
ATOM     21  C   UNL     1      13.584   9.178  15.750  0.00  0.00    +0.139 C 
BRANCH  21  22
ATOM      1  F   UNL     1      17.083  13.589  15.830  0.00  0.00    -0.205 F 
ATOM     22  C   UNL     1      14.518  10.354  15.772  0.00  0.00    -0.030 A 
ATOM     24  C   UNL     1      14.427  11.297  16.796  0.00  0.00    +0.008 A 
ATOM     25  C   UNL     1      15.474  10.505  14.768  0.00  0.00    +0.008 A 
ATOM     27  C   UNL     1      15.294  12.390  16.816  0.00  0.00    +0.038 A 
ATOM     28  C   UNL     1      16.340  11.597  14.787  0.00  0.00    +0.038 A 
ATOM     29  C   UNL     1      16.250  12.540  15.812  0.00  0.00    +0.123 A 
ENDBRANCH  21  22
ENDBRANCH   5  21
ENDBRANCH  15  19
ENDBRANCH  10  15
TORSDOF 8
ENDMDL
MODEL 5
REMARK VINA RESULT:      -5.9     24.865     26.970
REMARK  Name = 38027531
REMARK  12 active torsions:
REMARK  status: ('A' for Active; 'I' for Inactive)
REMARK    1  A    between atoms: N_4  and  C_14
REMARK    2  A    between atoms: N_5  and  C_21
REMARK    3  A    between atoms: N_6  and  C_23
REMARK    4  A    between atoms: C_7  and  C_11
REMARK    5  A    between atoms: C_8  and  C_14
REMARK    6  A    between atoms: C_10  and  C_15
REMARK    7  A    between atoms: C_11  and  C_16
REMARK    8  A    between atoms: C_11  and  C_17
REMARK    9  A    between atoms: C_12  and  C_18
REMARK   10  A    between atoms: C_15  and  C_19
REMARK   11  A    between atoms: C_21  and  C_22
REMARK   12  A    between atoms: C_23  and  C_26
REMARK                            x       y       z     vdW  Elec       q    Type
REMARK                         _______ _______ _______ _____ _____    ______ ____
ROOT
ATOM      7  C   UNL     1       9.488   7.233   4.529  0.00  0.00    +0.000 C 
ATOM      8  C   UNL     1       9.471   5.904   5.325  0.00  0.00    +0.032 C 
ATOM      9  C   UNL     1       9.266   6.965   3.033  0.00  0.00    +0.012 C 
ATOM     10  C   UNL     1      10.337   6.027   2.443  0.00  0.00    +0.023 C 
ATOM     12  C   UNL     1      10.569   4.815   3.321  0.00  0.00    -0.073 C 
ATOM     13  C   UNL     1      10.163   4.772   4.603  0.00  0.00    -0.022 C 
ATOM     18  C   UNL     1      11.239   3.631   2.678  0.00  0.00    +0.039 C 
ENDROOT
BRANCH   7  11
ATOM     11  C   UNL     1       8.433   8.217   5.042  0.00  0.00    -0.013 C 
ATOM     16  C   UNL     1       9.103   9.407   5.723  0.00  0.00    +0.007 C 
ATOM     17  C   UNL     1       7.538   8.683   3.898  0.00  0.00    +0.007 C 
ENDBRANCH   7  11
BRANCH   8  14
ATOM     14  C   UNL     1      10.097   6.082   6.713  0.00  0.00    +0.113 C 
BRANCH  14   4
ATOM      3  O   UNL     1      12.127   8.134   6.676  0.00  0.00    -0.253 OA
ATOM      4  N   UNL     1      11.512   5.892   6.659  0.00  0.00    -0.299 N 
ATOM      6  N   UNL     1      13.749   6.476   6.590  0.00  0.00    -0.300 N 
ATOM     20  C   UNL     1      12.438   6.943   6.644  0.00  0.00    +0.300 C 
ATOM     30  H   UNL     1      11.876   4.945   6.700  0.00  0.00    +0.150 HD
ATOM     32  H   UNL     1      13.909   5.475   6.552  0.00  0.00    +0.150 HD
BRANCH   6  23
ATOM     23  C   UNL     1      14.893   7.357   6.565  0.00  0.00    +0.102 C 
ATOM     26  C   UNL     1      15.369   7.607   5.148  0.00  0.00    +0.024 C 
ENDBRANCH   6  23
ENDBRANCH  14   4
ENDBRANCH   8  14
BRANCH  10  15
ATOM     15  C   UNL     1      11.647   6.779   2.188  0.00  0.00    +0.103 C 
BRANCH  15  19
ATOM      2  O   UNL     1      11.797   7.757  -0.019  0.00  0.00    -0.276 OA
ATOM      5  N   UNL     1      12.618   5.613   0.340  0.00  0.00    -0.311 N 
ATOM     19  C   UNL     1      12.014   6.802   0.721  0.00  0.00    +0.214 C 
ATOM     31  H   UNL     1      12.764   4.881   1.029  0.00  0.00    +0.149 HD
BRANCH   5  21
ATOM     21  C   UNL     1      13.072   5.355  -1.008  0.00  0.00    +0.139 C 
BRANCH  21  22
ATOM      1  F   UNL     1       9.705   1.740  -3.710  0.00  0.00    -0.205 F 
ATOM     22  C   UNL     1      12.174   4.391  -1.728  0.00  0.00    -0.030 A 
ATOM     24  C   UNL     1      12.526   3.044  -1.818  0.00  0.00    +0.008 A 
ATOM     25  C   UNL     1      10.988   4.841  -2.308  0.00  0.00    +0.008 A 
ATOM     27  C   UNL     1      11.692   2.148  -2.487  0.00  0.00    +0.038 A 
ATOM     28  C   UNL     1      10.154   3.947  -2.978  0.00  0.00    +0.038 A 
ATOM     29  C   UNL     1      10.507   2.600  -3.067  0.00  0.00    +0.123 A 
ENDBRANCH  21  22
ENDBRANCH   5  21
ENDBRANCH  15  19
ENDBRANCH  10  15
TORSDOF 8
ENDMDL
MODEL 6
REMARK VINA RESULT:      -5.9      3.952      8.755
REMARK  Name = 38027531
REMARK  12 active torsions:
REMARK  status: ('A' for Active; 'I' for Inactive)
REMARK    1  A    between atoms: N_4  and  C_14
REMARK    2  A    between atoms: N_5  and  C_21
REMARK    3  A    between atoms: N_6  and  C_23
REMARK    4  A    between atoms: C_7  and  C_11
REMARK    5  A    between atoms: C_8  and  C_14
REMARK    6  A    between atoms: C_10  and  C_15
REMARK    7  A    between atoms: C_11  and  C_16
REMARK    8  A    between atoms: C_11  and  C_17
REMARK    9  A    between atoms: C_12  and  C_18
REMARK   10  A    between atoms: C_15  and  C_19
REMARK   11  A    between atoms: C_21  and  C_22
REMARK   12  A    between atoms: C_23  and  C_26
REMARK                            x       y       z     vdW  Elec       q    Type
REMARK                         _______ _______ _______ _____ _____    ______ ____
ROOT
ATOM      7  C   UNL     1      -5.812 -10.381  10.200  0.00  0.00    +0.000 C 
ATOM      8  C   UNL     1      -5.085  -9.531   9.128  0.00  0.00    +0.032 C 
ATOM      9  C   UNL     1      -5.384  -9.948  11.610  0.00  0.00    +0.012 C 
ATOM     10  C   UNL     1      -3.865 -10.085  11.825  0.00  0.00    +0.023 C 
ATOM     12  C   UNL     1      -3.076  -9.504  10.669  0.00  0.00    -0.073 C 
ATOM     13  C   UNL     1      -3.642  -9.250   9.475  0.00  0.00    -0.022 C 
ATOM     18  C   UNL     1      -1.632  -9.176  10.931  0.00  0.00    +0.039 C 
ENDROOT
BRANCH   7  11
ATOM     11  C   UNL     1      -7.335 -10.282  10.067  0.00  0.00    -0.013 C 
ATOM     16  C   UNL     1      -8.018 -11.029  11.208  0.00  0.00    +0.007 C 
ATOM     17  C   UNL     1      -7.773  -8.821  10.038  0.00  0.00    +0.007 C 
ENDBRANCH   7  11
BRANCH   8  14
ATOM     14  C   UNL     1      -5.157 -10.200   7.749  0.00  0.00    +0.113 C 
BRANCH  14   4
ATOM      3  O   UNL     1      -4.411 -11.790   5.459  0.00  0.00    -0.253 OA
ATOM      4  N   UNL     1      -4.476 -11.456   7.759  0.00  0.00    -0.299 N 
ATOM      6  N   UNL     1      -3.487 -13.360   6.897  0.00  0.00    -0.300 N 
ATOM     20  C   UNL     1      -4.147 -12.170   6.600  0.00  0.00    +0.300 C 
ATOM     30  H   UNL     1      -4.152 -11.825   8.647  0.00  0.00    +0.150 HD
ATOM     32  H   UNL     1      -3.325 -13.599   7.870  0.00  0.00    +0.150 HD
BRANCH   6  23
ATOM     23  C   UNL     1      -3.039 -14.281   5.879  0.00  0.00    +0.102 C 
ATOM     26  C   UNL     1      -1.618 -13.981   5.447  0.00  0.00    +0.024 C 
ENDBRANCH   6  23
ENDBRANCH  14   4
ENDBRANCH   8  14
BRANCH  10  15
ATOM     15  C   UNL     1      -3.473 -11.545  12.076  0.00  0.00    +0.103 C 
BRANCH  15  19
ATOM      2  O   UNL     1      -1.920 -12.551  13.635  0.00  0.00    -0.276 OA
ATOM      5  N   UNL     1      -3.347 -10.868  14.366  0.00  0.00    -0.311 N 
ATOM     19  C   UNL     1      -2.812 -11.734  13.423  0.00  0.00    +0.214 C 
ATOM     31  H   UNL     1      -4.080 -10.219  14.093  0.00  0.00    +0.149 HD
BRANCH   5  21
ATOM     21  C   UNL     1      -2.906 -10.829  15.742  0.00  0.00    +0.139 C 
BRANCH  21  22
ATOM      1  F   UNL     1      -7.232 -10.507  19.332  0.00  0.00    -0.205 F 
ATOM     22  C   UNL     1      -4.060 -10.744  16.699  0.00  0.00    -0.030 A 
ATOM     24  C   UNL     1      -5.214 -10.047  16.339  0.00  0.00    +0.008 A 
ATOM     25  C   UNL     1      -3.978 -11.360  17.948  0.00  0.00    +0.008 A 
ATOM     27  C   UNL     1      -6.286  -9.967  17.229  0.00  0.00    +0.038 A 
ATOM     28  C   UNL     1      -5.049 -11.280  18.837  0.00  0.00    +0.038 A 
ATOM     29  C   UNL     1      -6.203 -10.583  18.477  0.00  0.00    +0.123 A 
ENDBRANCH  21  22
ENDBRANCH   5  21
ENDBRANCH  15  19
ENDBRANCH  10  15
TORSDOF 8
ENDMDL
MODEL 7
REMARK VINA RESULT:      -5.8     28.201     31.177
REMARK  Name = 38027531
REMARK  12 active torsions:
REMARK  status: ('A' for Active; 'I' for Inactive)
REMARK    1  A    between atoms: N_4  and  C_14
REMARK    2  A    between atoms: N_5  and  C_21
REMARK    3  A    between atoms: N_6  and  C_23
REMARK    4  A    between atoms: C_7  and  C_11
REMARK    5  A    between atoms: C_8  and  C_14
REMARK    6  A    between atoms: C_10  and  C_15
REMARK    7  A    between atoms: C_11  and  C_16
REMARK    8  A    between atoms: C_11  and  C_17
REMARK    9  A    between atoms: C_12  and  C_18
REMARK   10  A    between atoms: C_15  and  C_19
REMARK   11  A    between atoms: C_21  and  C_22
REMARK   12  A    between atoms: C_23  and  C_26
REMARK                            x       y       z     vdW  Elec       q    Type
REMARK                         _______ _______ _______ _____ _____    ______ ____
ROOT
ATOM      7  C   UNL     1      19.564   6.281  21.523  0.00  0.00    +0.000 C 
ATOM      8  C   UNL     1      19.894   7.632  22.206  0.00  0.00    +0.032 C 
ATOM      9  C   UNL     1      18.800   6.515  20.212  0.00  0.00    +0.012 C 
ATOM     10  C   UNL     1      17.484   7.284  20.433  0.00  0.00    +0.023 C 
ATOM     12  C   UNL     1      17.681   8.491  21.327  0.00  0.00    -0.073 C 
ATOM     13  C   UNL     1      18.770   8.636  22.102  0.00  0.00    -0.022 C 
ATOM     18  C   UNL     1      16.617   9.553  21.275  0.00  0.00    +0.039 C 
ENDROOT
BRANCH   7  11
ATOM     11  C   UNL     1      20.828   5.459  21.248  0.00  0.00    -0.013 C 
ATOM     16  C   UNL     1      20.480   4.191  20.476  0.00  0.00    +0.007 C 
ATOM     17  C   UNL     1      21.849   6.295  20.483  0.00  0.00    +0.007 C 
ENDBRANCH   7  11
BRANCH   8  14
ATOM     14  C   UNL     1      20.263   7.430  23.681  0.00  0.00    +0.113 C 
BRANCH  14   4
ATOM      3  O   UNL     1      22.095   5.392  24.587  0.00  0.00    -0.253 OA
ATOM      4  N   UNL     1      21.672   7.564  23.873  0.00  0.00    -0.299 N 
ATOM      6  N   UNL     1      23.828   6.926  24.416  0.00  0.00    -0.300 N 
ATOM     20  C   UNL     1      22.498   6.523  24.318  0.00  0.00    +0.300 C 
ATOM     30  H   UNL     1      22.116   8.439  23.613  0.00  0.00    +0.150 HD
ATOM     32  H   UNL     1      24.066   7.885  24.186  0.00  0.00    +0.150 HD
BRANCH   6  23
ATOM     23  C   UNL     1      24.883   6.041  24.852  0.00  0.00    +0.102 C 
ATOM     26  C   UNL     1      25.132   6.166  26.341  0.00  0.00    +0.024 C 
ENDBRANCH   6  23
ENDBRANCH  14   4
ENDBRANCH   8  14
BRANCH  10  15
ATOM     15  C   UNL     1      16.393   6.362  20.989  0.00  0.00    +0.103 C 
BRANCH  15  19
ATOM      2  O   UNL     1      14.926   6.763  19.107  0.00  0.00    -0.276 OA
ATOM      5  N   UNL     1      14.025   6.575  21.241  0.00  0.00    -0.311 N 
ATOM     19  C   UNL     1      15.058   6.590  20.315  0.00  0.00    +0.214 C 
ATOM     31  H   UNL     1      14.233   6.414  22.223  0.00  0.00    +0.149 HD
BRANCH   5  21
ATOM     21  C   UNL     1      12.639   6.768  20.880  0.00  0.00    +0.139 C 
BRANCH  21  22
ATOM      1  F   UNL     1      10.817  11.930  22.202  0.00  0.00    -0.205 F 
ATOM     22  C   UNL     1      12.154   8.145  21.233  0.00  0.00    -0.030 A 
ATOM     24  C   UNL     1      11.241   8.317  22.274  0.00  0.00    +0.008 A 
ATOM     25  C   UNL     1      12.614   9.252  20.520  0.00  0.00    +0.008 A 
ATOM     27  C   UNL     1      10.789   9.596  22.601  0.00  0.00    +0.038 A 
ATOM     28  C   UNL     1      12.163  10.530  20.846  0.00  0.00    +0.038 A 
ATOM     29  C   UNL     1      11.250  10.701  21.888  0.00  0.00    +0.123 A 
ENDBRANCH  21  22
ENDBRANCH   5  21
ENDBRANCH  15  19
ENDBRANCH  10  15
TORSDOF 8
ENDMDL
MODEL 8
REMARK VINA RESULT:      -5.8     24.010     26.800
REMARK  Name = 38027531
REMARK  12 active torsions:
REMARK  status: ('A' for Active; 'I' for Inactive)
REMARK    1  A    between atoms: N_4  and  C_14
REMARK    2  A    between atoms: N_5  and  C_21
REMARK    3  A    between atoms: N_6  and  C_23
REMARK    4  A    between atoms: C_7  and  C_11
REMARK    5  A    between atoms: C_8  and  C_14
REMARK    6  A    between atoms: C_10  and  C_15
REMARK    7  A    between atoms: C_11  and  C_16
REMARK    8  A    between atoms: C_11  and  C_17
REMARK    9  A    between atoms: C_12  and  C_18
REMARK   10  A    between atoms: C_15  and  C_19
REMARK   11  A    between atoms: C_21  and  C_22
REMARK   12  A    between atoms: C_23  and  C_26
REMARK                            x       y       z     vdW  Elec       q    Type
REMARK                         _______ _______ _______ _____ _____    ______ ____
ROOT
ATOM      7  C   UNL     1       8.865   8.833   5.393  0.00  0.00    +0.000 C 
ATOM      8  C   UNL     1       8.801   8.953   6.937  0.00  0.00    +0.032 C 
ATOM      9  C   UNL     1       8.311   7.474   4.938  0.00  0.00    +0.012 C 
ATOM     10  C   UNL     1       9.086   6.293   5.552  0.00  0.00    +0.023 C 
ATOM     12  C   UNL     1       9.299   6.473   7.041  0.00  0.00    -0.073 C 
ATOM     13  C   UNL     1       9.154   7.666   7.645  0.00  0.00    -0.022 C 
ATOM     18  C   UNL     1       9.638   5.238   7.831  0.00  0.00    +0.039 C 
ENDROOT
BRANCH   7  11
ATOM     11  C   UNL     1       8.097   9.964   4.703  0.00  0.00    -0.013 C 
ATOM     16  C   UNL     1       9.046  10.819   3.870  0.00  0.00    +0.007 C 
ATOM     17  C   UNL     1       6.979   9.396   3.835  0.00  0.00    +0.007 C 
ENDBRANCH   7  11
BRANCH   8  14
ATOM     14  C   UNL     1       9.711  10.079   7.442  0.00  0.00    +0.113 C 
BRANCH  14   4
ATOM      3  O   UNL     1      11.998  10.425   5.715  0.00  0.00    -0.253 OA
ATOM      4  N   UNL     1      11.038   9.598   7.664  0.00  0.00    -0.299 N 
ATOM      6  N   UNL     1      13.281   9.233   7.237  0.00  0.00    -0.300 N 
ATOM     20  C   UNL     1      12.099   9.808   6.775  0.00  0.00    +0.300 C 
ATOM     30  H   UNL     1      11.245   9.136   8.544  0.00  0.00    +0.150 HD
ATOM     32  H   UNL     1      13.267   8.730   8.118  0.00  0.00    +0.150 HD
BRANCH   6  23
ATOM     23  C   UNL     1      14.525   9.306   6.506  0.00  0.00    +0.102 C 
ATOM     26  C   UNL     1      15.027   7.928   6.129  0.00  0.00    +0.024 C 
ENDBRANCH   6  23
ENDBRANCH  14   4
ENDBRANCH   8  14
BRANCH  10  15
ATOM     15  C   UNL     1      10.420   6.074   4.830  0.00  0.00    +0.103 C 
BRANCH  15  19
ATOM      2  O   UNL     1      10.143   3.671   4.903  0.00  0.00    -0.276 OA
ATOM      5  N   UNL     1      11.210   4.646   3.082  0.00  0.00    -0.311 N 
ATOM     19  C   UNL     1      10.559   4.661   4.307  0.00  0.00    +0.214 C 
ATOM     31  H   UNL     1      11.510   5.521   2.662  0.00  0.00    +0.149 HD
BRANCH   5  21
ATOM     21  C   UNL     1      11.482   3.431   2.349  0.00  0.00    +0.139 C 
BRANCH  21  22
ATOM      1  F   UNL     1      15.649   4.107  -1.378  0.00  0.00    -0.205 F 
ATOM     22  C   UNL     1      12.593   3.612   1.355  0.00  0.00    -0.030 A 
ATOM     24  C   UNL     1      12.298   3.765  -0.000  0.00  0.00    +0.008 A 
ATOM     25  C   UNL     1      13.920   3.626   1.786  0.00  0.00    +0.008 A 
ATOM     27  C   UNL     1      13.331   3.932  -0.924  0.00  0.00    +0.038 A 
ATOM     28  C   UNL     1      14.952   3.793   0.863  0.00  0.00    +0.038 A 
ATOM     29  C   UNL     1      14.657   3.946  -0.491  0.00  0.00    +0.123 A 
ENDBRANCH  21  22
ENDBRANCH   5  21
ENDBRANCH  15  19
ENDBRANCH  10  15
TORSDOF 8
ENDMDL
MODEL 9
REMARK VINA RESULT:      -5.7      2.069      2.362
REMARK  Name = 38027531
REMARK  12 active torsions:
REMARK  status: ('A' for Active; 'I' for Inactive)
REMARK    1  A    between atoms: N_4  and  C_14
REMARK    2  A    between atoms: N_5  and  C_21
REMARK    3  A    between atoms: N_6  and  C_23
REMARK    4  A    between atoms: C_7  and  C_11
REMARK    5  A    between atoms: C_8  and  C_14
REMARK    6  A    between atoms: C_10  and  C_15
REMARK    7  A    between atoms: C_11  and  C_16
REMARK    8  A    between atoms: C_11  and  C_17
REMARK    9  A    between atoms: C_12  and  C_18
REMARK   10  A    between atoms: C_15  and  C_19
REMARK   11  A    between atoms: C_21  and  C_22
REMARK   12  A    between atoms: C_23  and  C_26
REMARK                            x       y       z     vdW  Elec       q    Type
REMARK                         _______ _______ _______ _____ _____    ______ ____
ROOT
ATOM      7  C   UNL     1      -6.274 -12.277  15.494  0.00  0.00    +0.000 C 
ATOM      8  C   UNL     1      -7.549 -12.257  16.375  0.00  0.00    +0.032 C 
ATOM      9  C   UNL     1      -5.040 -12.610  16.345  0.00  0.00    +0.012 C 
ATOM     10  C   UNL     1      -4.829 -11.597  17.487  0.00  0.00    +0.023 C 
ATOM     12  C   UNL     1      -6.115 -11.320  18.239  0.00  0.00    -0.073 C 
ATOM     13  C   UNL     1      -7.320 -11.634  17.732  0.00  0.00    -0.022 C 
ATOM     18  C   UNL     1      -5.982 -10.716  19.610  0.00  0.00    +0.039 C 
ENDROOT
BRANCH   7  11
ATOM     11  C   UNL     1      -6.395 -13.278  14.341  0.00  0.00    -0.013 C 
ATOM     16  C   UNL     1      -6.376 -12.550  13.001  0.00  0.00    +0.007 C 
ATOM     17  C   UNL     1      -5.273 -14.309  14.412  0.00  0.00    +0.007 C 
ENDBRANCH   7  11
BRANCH   8  14
ATOM     14  C   UNL     1      -8.699 -11.530  15.667  0.00  0.00    +0.113 C 
BRANCH  14   4
ATOM      3  O   UNL     1     -10.617  -9.538  14.841  0.00  0.00    -0.253 OA
ATOM      4  N   UNL     1      -8.652 -10.127  15.933  0.00  0.00    -0.299 N 
ATOM      6  N   UNL     1      -9.334  -7.918  15.894  0.00  0.00    -0.300 N 
ATOM     20  C   UNL     1      -9.626  -9.220  15.496  0.00  0.00    +0.300 C 
ATOM     30  H   UNL     1      -7.909  -9.771  16.527  0.00  0.00    +0.150 HD
ATOM     32  H   UNL     1      -8.484  -7.747  16.422  0.00  0.00    +0.150 HD
BRANCH   6  23
ATOM     23  C   UNL     1     -10.181  -6.793  15.573  0.00  0.00    +0.102 C 
ATOM     26  C   UNL     1     -11.230  -6.565  16.641  0.00  0.00    +0.024 C 
ENDBRANCH   6  23
ENDBRANCH  14   4
ENDBRANCH   8  14
BRANCH  10  15
ATOM     15  C   UNL     1      -4.208 -10.298  16.965  0.00  0.00    +0.103 C 
BRANCH  15  19
ATOM      2  O   UNL     1      -1.903 -10.955  16.641  0.00  0.00    -0.276 OA
ATOM      5  N   UNL     1      -3.163 -10.264  14.814  0.00  0.00    -0.311 N 
ATOM     19  C   UNL     1      -2.955 -10.550  16.156  0.00  0.00    +0.214 C 
ATOM     31  H   UNL     1      -4.076  -9.942  14.505  0.00  0.00    +0.149 HD
BRANCH   5  21
ATOM     21  C   UNL     1      -2.137 -10.413  13.808  0.00  0.00    +0.139 C 
BRANCH  21  22
ATOM      1  F   UNL     1      -4.123 -12.796   9.109  0.00  0.00    -0.205 F 
ATOM     22  C   UNL     1      -2.667 -11.048  12.555  0.00  0.00    -0.030 A 
ATOM     24  C   UNL     1      -2.742 -12.438  12.456  0.00  0.00    +0.008 A 
ATOM     25  C   UNL     1      -3.083 -10.250  11.489  0.00  0.00    +0.008 A 
ATOM     27  C   UNL     1      -3.234 -13.028  11.292  0.00  0.00    +0.038 A 
ATOM     28  C   UNL     1      -3.575 -10.840  10.325  0.00  0.00    +0.038 A 
ATOM     29  C   UNL     1      -3.650 -12.229  10.227  0.00  0.00    +0.123 A 
ENDBRANCH  21  22
ENDBRANCH   5  21
ENDBRANCH  15  19
ENDBRANCH  10  15
TORSDOF 8
ENDMDL
MODEL 10
REMARK VINA RESULT:      -5.7     27.584     29.822
REMARK  Name = 38027531
REMARK  12 active torsions:
REMARK  status: ('A' for Active; 'I' for Inactive)
REMARK    1  A    between atoms: N_4  and  C_14
REMARK    2  A    between atoms: N_5  and  C_21
REMARK    3  A    between atoms: N_6  and  C_23
REMARK    4  A    between atoms: C_7  and  C_11
REMARK    5  A    between atoms: C_8  and  C_14
REMARK    6  A    between atoms: C_10  and  C_15
REMARK    7  A    between atoms: C_11  and  C_16
REMARK    8  A    between atoms: C_11  and  C_17
REMARK    9  A    between atoms: C_12  and  C_18
REMARK   10  A    between atoms: C_15  and  C_19
REMARK   11  A    between atoms: C_21  and  C_22
REMARK   12  A    between atoms: C_23  and  C_26
REMARK                            x       y       z     vdW  Elec       q    Type
REMARK                         _______ _______ _______ _____ _____    ______ ____
ROOT
ATOM      7  C   UNL     1      12.929  10.665  20.955  0.00  0.00    +0.000 C 
ATOM      8  C   UNL     1      11.578  10.455  21.684  0.00  0.00    +0.032 C 
ATOM      9  C   UNL     1      13.062   9.686  19.779  0.00  0.00    +0.012 C 
ATOM     10  C   UNL     1      12.975   8.216  20.233  0.00  0.00    +0.023 C 
ATOM     12  C   UNL     1      11.814   7.986  21.178  0.00  0.00    -0.073 C 
ATOM     13  C   UNL     1      11.193   8.999  21.807  0.00  0.00    -0.022 C 
ATOM     18  C   UNL     1      11.351   6.565  21.348  0.00  0.00    +0.039 C 
ENDROOT
BRANCH   7  11
ATOM     11  C   UNL     1      13.085  12.104  20.452  0.00  0.00    -0.013 C 
ATOM     16  C   UNL     1      14.277  12.776  21.126  0.00  0.00    +0.007 C 
ATOM     17  C   UNL     1      13.240  12.123  18.935  0.00  0.00    +0.007 C 
ENDBRANCH   7  11
BRANCH   8  14
ATOM     14  C   UNL     1      11.595  11.097  23.076  0.00  0.00    +0.113 C 
BRANCH  14   4
ATOM      3  O   UNL     1      13.166  12.858  24.738  0.00  0.00    -0.253 OA
ATOM      4  N   UNL     1      12.803  10.777  23.768  0.00  0.00    -0.299 N 
ATOM      6  N   UNL     1      14.650  11.115  25.117  0.00  0.00    -0.300 N 
ATOM     20  C   UNL     1      13.511  11.690  24.559  0.00  0.00    +0.300 C 
ATOM     30  H   UNL     1      13.136   9.818  23.743  0.00  0.00    +0.150 HD
ATOM     32  H   UNL     1      14.864  10.146  24.902  0.00  0.00    +0.150 HD
BRANCH   6  23
ATOM     23  C   UNL     1      15.556  11.844  25.975  0.00  0.00    +0.102 C 
ATOM     26  C   UNL     1      16.575  12.624  25.170  0.00  0.00    +0.024 C 
ENDBRANCH   6  23
ENDBRANCH  14   4
ENDBRANCH   8  14
BRANCH  10  15
ATOM     15  C   UNL     1      14.294   7.754  20.862  0.00  0.00    +0.103 C 
BRANCH  15  19
ATOM      2  O   UNL     1      14.965   7.049  18.647  0.00  0.00    -0.276 OA
ATOM      5  N   UNL     1      16.466   6.860  20.412  0.00  0.00    -0.311 N 
ATOM     19  C   UNL     1      15.249   7.190  19.833  0.00  0.00    +0.214 C 
ATOM     31  H   UNL     1      16.610   7.023  21.405  0.00  0.00    +0.149 HD
BRANCH   5  21
ATOM     21  C   UNL     1      17.568   6.298  19.665  0.00  0.00    +0.139 C 
BRANCH  21  22
ATOM      1  F   UNL     1      22.102   5.477  22.902  0.00  0.00    -0.205 F 
ATOM     22  C   UNL     1      18.777   6.080  20.528  0.00  0.00    -0.030 A 
ATOM     24  C   UNL     1      19.764   5.177  20.130  0.00  0.00    +0.008 A 
ATOM     25  C   UNL     1      18.914   6.778  21.728  0.00  0.00    +0.008 A 
ATOM     27  C   UNL     1      20.887   4.974  20.932  0.00  0.00    +0.038 A 
ATOM     28  C   UNL     1      20.036   6.574  22.530  0.00  0.00    +0.038 A 
ATOM     29  C   UNL     1      21.023   5.672  22.131  0.00  0.00    +0.123 A 
ENDBRANCH  21  22
ENDBRANCH   5  21
ENDBRANCH  15  19
ENDBRANCH  10  15
TORSDOF 8
ENDMDL
