MODEL 1
REMARK VINA RESULT:      -5.8      0.000      0.000
REMARK  Name = 40779638
REMARK  7 active torsions:
REMARK  status: ('A' for Active; 'I' for Inactive)
REMARK    1  A    between atoms: O_2  and  C_20
REMARK    2  A    between atoms: O_2  and  C_21
REMARK    3  A    between atoms: N_4  and  C_13
REMARK    4  A    between atoms: N_5  and  C_14
REMARK    5  A    between atoms: C_7  and  C_13
REMARK    6  A    between atoms: C_9  and  C_14
REMARK    7  A    between atoms: C_19  and  C_20
REMARK                            x       y       z     vdW  Elec       q    Type
REMARK                         _______ _______ _______ _____ _____    ______ ____
ROOT
ATOM      3  N   UNL     1      11.133   8.146  20.167  0.00  0.00    -0.298 NA
ATOM      6  C   UNL     1      13.483   9.150  19.683  0.00  0.00    -0.003 C 
ATOM      7  C   UNL     1      13.592   7.667  20.105  0.00  0.00    +0.020 C 
ATOM      8  C   UNL     1      12.759   9.941  20.787  0.00  0.00    +0.024 C 
ATOM      9  C   UNL     1      11.318   9.404  20.939  0.00  0.00    +0.074 C 
ATOM     10  C   UNL     1      12.190   7.166  20.516  0.00  0.00    +0.089 C 
ATOM     11  C   UNL     1      12.589   9.194  18.428  0.00  0.00    +0.019 C 
ATOM     12  C   UNL     1      11.263   8.471  18.725  0.00  0.00    +0.085 C 
ENDROOT
BRANCH   7  13
ATOM     13  C   UNL     1      14.623   7.429  21.207  0.00  0.00    +0.089 C 
BRANCH  13   4
ATOM      4  N   UNL     1      15.690   6.556  20.740  0.00  0.00    -0.302 NA
ATOM     15  C   UNL     1      15.773   6.508  19.281  0.00  0.00    +0.084 C 
ATOM     16  C   UNL     1      17.010   7.004  21.182  0.00  0.00    +0.084 C 
ATOM     17  C   UNL     1      17.142   5.890  19.038  0.00  0.00    +0.017 C 
ATOM     18  C   UNL     1      17.954   6.212  20.288  0.00  0.00    +0.017 C 
ENDBRANCH  13   4
ENDBRANCH   7  13
BRANCH   9  14
ATOM     14  C   UNL     1      10.920   9.250  22.409  0.00  0.00    +0.123 C 
BRANCH  14   5
ATOM      1  O   UNL     1      10.254  11.517  24.077  0.00  0.00    -0.273 OA
ATOM      5  N   UNL     1      11.820  10.002  23.267  0.00  0.00    -0.312 N 
ATOM     19  C   UNL     1      11.398  11.076  24.028  0.00  0.00    +0.239 C 
ATOM     22  H   UNL     1      12.795   9.719  23.298  0.00  0.00    +0.149 HD
BRANCH  19  20
ATOM     20  C   UNL     1      12.540  11.669  24.826  0.00  0.00    +0.255 C 
BRANCH  20   2
ATOM      2  O   UNL     1      13.318  12.527  24.019  0.00  0.00    -0.374 OA
ATOM     21  C   UNL     1      14.680  12.110  23.960  0.00  0.00    +0.194 C 
ENDBRANCH  20   2
ENDBRANCH  19  20
ENDBRANCH  14   5
ENDBRANCH   9  14
TORSDOF 6
ENDMDL
MODEL 2
REMARK VINA RESULT:      -5.6      1.707      2.397
REMARK  Name = 40779638
REMARK  7 active torsions:
REMARK  status: ('A' for Active; 'I' for Inactive)
REMARK    1  A    between atoms: O_2  and  C_20
REMARK    2  A    between atoms: O_2  and  C_21
REMARK    3  A    between atoms: N_4  and  C_13
REMARK    4  A    between atoms: N_5  and  C_14
REMARK    5  A    between atoms: C_7  and  C_13
REMARK    6  A    between atoms: C_9  and  C_14
REMARK    7  A    between atoms: C_19  and  C_20
REMARK                            x       y       z     vdW  Elec       q    Type
REMARK                         _______ _______ _______ _____ _____    ______ ____
ROOT
ATOM      3  N   UNL     1      12.434   7.417  18.505  0.00  0.00    -0.298 NA
ATOM      6  C   UNL     1      14.240   9.287  18.430  0.00  0.00    -0.003 C 
ATOM      7  C   UNL     1      14.747   8.061  19.222  0.00  0.00    +0.020 C 
ATOM      8  C   UNL     1      12.936   9.801  19.066  0.00  0.00    +0.024 C 
ATOM      9  C   UNL     1      11.850   8.708  18.958  0.00  0.00    +0.074 C 
ATOM     10  C   UNL     1      13.590   7.047  19.357  0.00  0.00    +0.089 C 
ATOM     11  C   UNL     1      13.892   8.791  17.012  0.00  0.00    +0.019 C 
ATOM     12  C   UNL     1      12.924   7.599  17.116  0.00  0.00    +0.085 C 
ENDROOT
BRANCH   7  13
ATOM     13  C   UNL     1      15.339   8.427  20.582  0.00  0.00    +0.089 C 
BRANCH  13   4
ATOM      4  N   UNL     1      16.758   8.108  20.634  0.00  0.00    -0.302 NA
ATOM     15  C   UNL     1      17.488   8.963  21.569  0.00  0.00    +0.084 C 
ATOM     16  C   UNL     1      17.006   6.742  21.093  0.00  0.00    +0.084 C 
ATOM     17  C   UNL     1      18.804   8.222  21.752  0.00  0.00    +0.017 C 
ATOM     18  C   UNL     1      18.490   6.763  21.436  0.00  0.00    +0.017 C 
ENDBRANCH  13   4
ENDBRANCH   7  13
BRANCH   9  14
ATOM     14  C   UNL     1      11.055   8.564  20.259  0.00  0.00    +0.123 C 
BRANCH  14   5
ATOM      1  O   UNL     1      10.807   8.664  23.139  0.00  0.00    -0.273 OA
ATOM      5  N   UNL     1      11.262   9.718  21.118  0.00  0.00    -0.312 N 
ATOM     19  C   UNL     1      11.117   9.660  22.491  0.00  0.00    +0.239 C 
ATOM     22  H   UNL     1      11.520  10.597  20.678  0.00  0.00    +0.149 HD
BRANCH  19  20
ATOM     20  C   UNL     1      11.394  11.002  23.133  0.00  0.00    +0.255 C 
BRANCH  20   2
ATOM      2  O   UNL     1      10.468  11.260  24.167  0.00  0.00    -0.374 OA
ATOM     21  C   UNL     1      11.062  11.979  25.244  0.00  0.00    +0.194 C 
ENDBRANCH  20   2
ENDBRANCH  19  20
ENDBRANCH  14   5
ENDBRANCH   9  14
TORSDOF 6
ENDMDL
MODEL 3
REMARK VINA RESULT:      -5.5      3.522      5.216
REMARK  Name = 40779638
REMARK  7 active torsions:
REMARK  status: ('A' for Active; 'I' for Inactive)
REMARK    1  A    between atoms: O_2  and  C_20
REMARK    2  A    between atoms: O_2  and  C_21
REMARK    3  A    between atoms: N_4  and  C_13
REMARK    4  A    between atoms: N_5  and  C_14
REMARK    5  A    between atoms: C_7  and  C_13
REMARK    6  A    between atoms: C_9  and  C_14
REMARK    7  A    between atoms: C_19  and  C_20
REMARK                            x       y       z     vdW  Elec       q    Type
REMARK                         _______ _______ _______ _____ _____    ______ ____
ROOT
ATOM      3  N   UNL     1      12.946  10.581  20.033  0.00  0.00    -0.298 NA
ATOM      6  C   UNL     1      12.067   8.917  21.829  0.00  0.00    -0.003 C 
ATOM      7  C   UNL     1      13.597   9.103  21.950  0.00  0.00    +0.020 C 
ATOM      8  C   UNL     1      11.723   8.433  20.409  0.00  0.00    +0.024 C 
ATOM      9  C   UNL     1      12.133   9.516  19.386  0.00  0.00    +0.074 C 
ATOM     10  C   UNL     1      14.082   9.982  20.776  0.00  0.00    +0.089 C 
ATOM     11  C   UNL     1      11.432  10.311  22.002  0.00  0.00    +0.019 C 
ATOM     12  C   UNL     1      12.080  11.290  21.007  0.00  0.00    +0.085 C 
ENDROOT
BRANCH   7  13
ATOM     13  C   UNL     1      14.360   7.781  22.018  0.00  0.00    +0.089 C 
BRANCH  13   4
ATOM      4  N   UNL     1      15.281   7.656  20.898  0.00  0.00    -0.302 NA
ATOM     15  C   UNL     1      16.655   7.402  21.332  0.00  0.00    +0.084 C 
ATOM     16  C   UNL     1      14.946   6.534  20.023  0.00  0.00    +0.084 C 
ATOM     17  C   UNL     1      17.333   6.927  20.056  0.00  0.00    +0.017 C 
ATOM     18  C   UNL     1      16.210   6.360  19.193  0.00  0.00    +0.017 C 
ENDBRANCH  13   4
ENDBRANCH   7  13
BRANCH   9  14
ATOM     14  C   UNL     1      12.829   8.912  18.164  0.00  0.00    +0.123 C 
BRANCH  14   5
ATOM      1  O   UNL     1      13.154   8.670  15.300  0.00  0.00    -0.273 OA
ATOM      5  N   UNL     1      13.236   9.953  17.236  0.00  0.00    -0.312 N 
ATOM     19  C   UNL     1      13.361   9.733  15.878  0.00  0.00    +0.239 C 
ATOM     22  H   UNL     1      13.436  10.875  17.614  0.00  0.00    +0.149 HD
BRANCH  19  20
ATOM     20  C   UNL     1      13.795  10.989  15.153  0.00  0.00    +0.255 C 
BRANCH  20   2
ATOM      2  O   UNL     1      15.023  11.461  15.666  0.00  0.00    -0.374 OA
ATOM     21  C   UNL     1      16.108  11.189  14.782  0.00  0.00    +0.194 C 
ENDBRANCH  20   2
ENDBRANCH  19  20
ENDBRANCH  14   5
ENDBRANCH   9  14
TORSDOF 6
ENDMDL
MODEL 4
REMARK VINA RESULT:      -5.3      4.122      5.900
REMARK  Name = 40779638
REMARK  7 active torsions:
REMARK  status: ('A' for Active; 'I' for Inactive)
REMARK    1  A    between atoms: O_2  and  C_20
REMARK    2  A    between atoms: O_2  and  C_21
REMARK    3  A    between atoms: N_4  and  C_13
REMARK    4  A    between atoms: N_5  and  C_14
REMARK    5  A    between atoms: C_7  and  C_13
REMARK    6  A    between atoms: C_9  and  C_14
REMARK    7  A    between atoms: C_19  and  C_20
REMARK                            x       y       z     vdW  Elec       q    Type
REMARK                         _______ _______ _______ _____ _____    ______ ____
ROOT
ATOM      3  N   UNL     1      13.217   9.817  18.694  0.00  0.00    -0.298 NA
ATOM      6  C   UNL     1      12.813   7.378  19.503  0.00  0.00    -0.003 C 
ATOM      7  C   UNL     1      14.296   7.778  19.673  0.00  0.00    +0.020 C 
ATOM      8  C   UNL     1      12.406   7.548  18.028  0.00  0.00    +0.024 C 
ATOM      9  C   UNL     1      12.524   9.037  17.633  0.00  0.00    +0.074 C 
ATOM     10  C   UNL     1      14.506   9.175  19.048  0.00  0.00    +0.089 C 
ATOM     11  C   UNL     1      11.981   8.383  20.325  0.00  0.00    +0.019 C 
ATOM     12  C   UNL     1      12.354   9.815  19.901  0.00  0.00    +0.085 C 
ENDROOT
BRANCH   7  13
ATOM     13  C   UNL     1      15.267   6.749  19.096  0.00  0.00    +0.089 C 
BRANCH  13   4
ATOM      4  N   UNL     1      16.604   6.935  19.640  0.00  0.00    -0.302 NA
ATOM     15  C   UNL     1      16.629   6.854  21.100  0.00  0.00    +0.084 C 
ATOM     16  C   UNL     1      17.538   5.907  19.185  0.00  0.00    +0.084 C 
ATOM     17  C   UNL     1      18.109   6.680  21.406  0.00  0.00    +0.017 C 
ATOM     18  C   UNL     1      18.708   6.062  20.147  0.00  0.00    +0.017 C 
ENDBRANCH  13   4
ENDBRANCH   7  13
BRANCH   9  14
ATOM     14  C   UNL     1      13.177   9.211  16.260  0.00  0.00    +0.123 C 
BRANCH  14   5
ATOM      1  O   UNL     1      15.004  10.422  14.372  0.00  0.00    -0.273 OA
ATOM      5  N   UNL     1      13.273  10.618  15.911  0.00  0.00    -0.312 N 
ATOM     19  C   UNL     1      14.185  11.097  14.990  0.00  0.00    +0.239 C 
ATOM     22  H   UNL     1      12.639  11.266  16.370  0.00  0.00    +0.149 HD
BRANCH  19  20
ATOM     20  C   UNL     1      14.062  12.596  14.819  0.00  0.00    +0.255 C 
BRANCH  20   2
ATOM      2  O   UNL     1      13.088  12.907  13.846  0.00  0.00    -0.374 OA
ATOM     21  C   UNL     1      13.666  13.108  12.559  0.00  0.00    +0.194 C 
ENDBRANCH  20   2
ENDBRANCH  19  20
ENDBRANCH  14   5
ENDBRANCH   9  14
TORSDOF 6
ENDMDL
MODEL 5
REMARK VINA RESULT:      -5.2      3.640      5.249
REMARK  Name = 40779638
REMARK  7 active torsions:
REMARK  status: ('A' for Active; 'I' for Inactive)
REMARK    1  A    between atoms: O_2  and  C_20
REMARK    2  A    between atoms: O_2  and  C_21
REMARK    3  A    between atoms: N_4  and  C_13
REMARK    4  A    between atoms: N_5  and  C_14
REMARK    5  A    between atoms: C_7  and  C_13
REMARK    6  A    between atoms: C_9  and  C_14
REMARK    7  A    between atoms: C_19  and  C_20
REMARK                            x       y       z     vdW  Elec       q    Type
REMARK                         _______ _______ _______ _____ _____    ______ ____
ROOT
ATOM      3  N   UNL     1      13.862   9.228  19.835  0.00  0.00    -0.298 NA
ATOM      6  C   UNL     1      14.720   7.671  21.733  0.00  0.00    -0.003 C 
ATOM      7  C   UNL     1      15.833   7.942  20.696  0.00  0.00    +0.020 C 
ATOM      8  C   UNL     1      13.500   7.058  21.023  0.00  0.00    +0.024 C 
ATOM      9  C   UNL     1      12.937   8.076  20.006  0.00  0.00    +0.074 C 
ATOM     10  C   UNL     1      15.231   8.748  19.524  0.00  0.00    +0.089 C 
ATOM     11  C   UNL     1      14.284   9.041  22.290  0.00  0.00    +0.019 C 
ATOM     12  C   UNL     1      13.913   9.969  21.119  0.00  0.00    +0.085 C 
ENDROOT
BRANCH   7  13
ATOM     13  C   UNL     1      16.525   6.670  20.209  0.00  0.00    +0.089 C 
BRANCH  13   4
ATOM      4  N   UNL     1      17.774   6.451  20.924  0.00  0.00    -0.302 NA
ATOM     15  C   UNL     1      18.773   5.767  20.105  0.00  0.00    +0.084 C 
ATOM     16  C   UNL     1      18.409   7.703  21.333  0.00  0.00    +0.084 C 
ATOM     17  C   UNL     1      20.063   5.997  20.879  0.00  0.00    +0.017 C 
ATOM     18  C   UNL     1      19.823   7.266  21.689  0.00  0.00    +0.017 C 
ENDBRANCH  13   4
ENDBRANCH   7  13
BRANCH   9  14
ATOM     14  C   UNL     1      12.580   7.411  18.674  0.00  0.00    +0.123 C 
BRANCH  14   5
ATOM      1  O   UNL     1      14.012   7.930  16.215  0.00  0.00    -0.273 OA
ATOM      5  N   UNL     1      12.263   8.411  17.668  0.00  0.00    -0.312 N 
ATOM     19  C   UNL     1      13.016   8.579  16.522  0.00  0.00    +0.239 C 
ATOM     22  H   UNL     1      11.455   9.007  17.828  0.00  0.00    +0.149 HD
BRANCH  19  20
ATOM     20  C   UNL     1      12.459   9.686  15.653  0.00  0.00    +0.255 C 
BRANCH  20   2
ATOM      2  O   UNL     1      13.483  10.275  14.880  0.00  0.00    -0.374 OA
ATOM     21  C   UNL     1      14.128  11.339  15.574  0.00  0.00    +0.194 C 
ENDBRANCH  20   2
ENDBRANCH  19  20
ENDBRANCH  14   5
ENDBRANCH   9  14
TORSDOF 6
ENDMDL
MODEL 6
REMARK VINA RESULT:      -5.2     26.200     28.207
REMARK  Name = 40779638
REMARK  7 active torsions:
REMARK  status: ('A' for Active; 'I' for Inactive)
REMARK    1  A    between atoms: O_2  and  C_20
REMARK    2  A    between atoms: O_2  and  C_21
REMARK    3  A    between atoms: N_4  and  C_13
REMARK    4  A    between atoms: N_5  and  C_14
REMARK    5  A    between atoms: C_7  and  C_13
REMARK    6  A    between atoms: C_9  and  C_14
REMARK    7  A    between atoms: C_19  and  C_20
REMARK                            x       y       z     vdW  Elec       q    Type
REMARK                         _______ _______ _______ _____ _____    ______ ____
ROOT
ATOM      3  N   UNL     1      -6.958 -10.178  18.386  0.00  0.00    -0.298 NA
ATOM      6  C   UNL     1      -5.464 -12.296  18.169  0.00  0.00    -0.003 C 
ATOM      7  C   UNL     1      -4.992 -11.186  17.203  0.00  0.00    +0.020 C 
ATOM      8  C   UNL     1      -6.939 -12.627  17.883  0.00  0.00    +0.024 C 
ATOM      9  C   UNL     1      -7.806 -11.379  18.165  0.00  0.00    +0.074 C 
ATOM     10  C   UNL     1      -5.995 -10.014  17.270  0.00  0.00    +0.089 C 
ATOM     11  C   UNL     1      -5.395 -11.709  19.593  0.00  0.00    +0.019 C 
ATOM     12  C   UNL     1      -6.184 -10.388  19.635  0.00  0.00    +0.085 C 
ENDROOT
BRANCH   7  13
ATOM     13  C   UNL     1      -4.794 -11.679  15.771  0.00  0.00    +0.089 C 
BRANCH  13   4
ATOM      4  N   UNL     1      -3.413 -11.504  15.347  0.00  0.00    -0.302 NA
ATOM     15  C   UNL     1      -3.299 -10.686  14.140  0.00  0.00    +0.084 C 
ATOM     16  C   UNL     1      -2.604 -10.815  16.351  0.00  0.00    +0.084 C 
ATOM     17  C   UNL     1      -1.823 -10.318  14.116  0.00  0.00    +0.017 C 
ATOM     18  C   UNL     1      -1.365 -10.407  15.568  0.00  0.00    +0.017 C 
ENDBRANCH  13   4
ENDBRANCH   7  13
BRANCH   9  14
ATOM     14  C   UNL     1      -8.857 -11.159  17.073  0.00  0.00    +0.123 C 
BRANCH  14   5
ATOM      1  O   UNL     1      -9.089  -9.055  15.101  0.00  0.00    -0.273 OA
ATOM      5  N   UNL     1      -9.506  -9.869  17.238  0.00  0.00    -0.312 N 
ATOM     19  C   UNL     1      -9.563  -8.929  16.227  0.00  0.00    +0.239 C 
ATOM     22  H   UNL     1      -9.930  -9.662  18.138  0.00  0.00    +0.149 HD
BRANCH  19  20
ATOM     20  C   UNL     1     -10.299  -7.683  16.671  0.00  0.00    +0.255 C 
BRANCH  20   2
ATOM      2  O   UNL     1     -10.083  -6.626  15.761  0.00  0.00    -0.374 OA
ATOM     21  C   UNL     1     -11.297  -5.963  15.420  0.00  0.00    +0.194 C 
ENDBRANCH  20   2
ENDBRANCH  19  20
ENDBRANCH  14   5
ENDBRANCH   9  14
TORSDOF 6
ENDMDL
MODEL 7
REMARK VINA RESULT:      -5.1      3.022      6.798
REMARK  Name = 40779638
REMARK  7 active torsions:
REMARK  status: ('A' for Active; 'I' for Inactive)
REMARK    1  A    between atoms: O_2  and  C_20
REMARK    2  A    between atoms: O_2  and  C_21
REMARK    3  A    between atoms: N_4  and  C_13
REMARK    4  A    between atoms: N_5  and  C_14
REMARK    5  A    between atoms: C_7  and  C_13
REMARK    6  A    between atoms: C_9  and  C_14
REMARK    7  A    between atoms: C_19  and  C_20
REMARK                            x       y       z     vdW  Elec       q    Type
REMARK                         _______ _______ _______ _____ _____    ______ ____
ROOT
ATOM      3  N   UNL     1      14.344  10.353  21.653  0.00  0.00    -0.298 NA
ATOM      6  C   UNL     1      11.897  10.889  20.952  0.00  0.00    -0.003 C 
ATOM      7  C   UNL     1      12.155  11.305  22.417  0.00  0.00    +0.020 C 
ATOM      8  C   UNL     1      12.205   9.390  20.785  0.00  0.00    +0.024 C 
ATOM      9  C   UNL     1      13.703   9.142  21.072  0.00  0.00    +0.074 C 
ATOM     10  C   UNL     1      13.570  10.835  22.822  0.00  0.00    +0.089 C 
ATOM     11  C   UNL     1      12.909  11.663  20.082  0.00  0.00    +0.019 C 
ATOM     12  C   UNL     1      14.330  11.418  20.620  0.00  0.00    +0.085 C 
ENDROOT
BRANCH   7  13
ATOM     13  C   UNL     1      11.091  10.792  23.385  0.00  0.00    +0.089 C 
BRANCH  13   4
ATOM      4  N   UNL     1      10.465  11.893  24.102  0.00  0.00    -0.302 NA
ATOM     15  C   UNL     1      11.094  12.143  25.398  0.00  0.00    +0.084 C 
ATOM     16  C   UNL     1      10.567  13.159  23.378  0.00  0.00    +0.084 C 
ATOM     17  C   UNL     1      10.569  13.522  25.770  0.00  0.00    +0.017 C 
ATOM     18  C   UNL     1      10.219  14.189  24.444  0.00  0.00    +0.017 C 
ENDBRANCH  13   4
ENDBRANCH   7  13
BRANCH   9  14
ATOM     14  C   UNL     1      13.918   7.897  21.936  0.00  0.00    +0.123 C 
BRANCH  14   5
ATOM      1  O   UNL     1      15.336   6.295  19.990  0.00  0.00    -0.273 OA
ATOM      5  N   UNL     1      15.323   7.525  21.962  0.00  0.00    -0.312 N 
ATOM     19  C   UNL     1      15.906   6.751  20.977  0.00  0.00    +0.239 C 
ATOM     22  H   UNL     1      15.886   7.851  22.742  0.00  0.00    +0.149 HD
BRANCH  19  20
ATOM     20  C   UNL     1      17.376   6.521  21.254  0.00  0.00    +0.255 C 
BRANCH  20   2
ATOM      2  O   UNL     1      17.999   7.719  21.665  0.00  0.00    -0.374 OA
ATOM     21  C   UNL     1      19.358   7.510  22.040  0.00  0.00    +0.194 C 
ENDBRANCH  20   2
ENDBRANCH  19  20
ENDBRANCH  14   5
ENDBRANCH   9  14
TORSDOF 6
ENDMDL
MODEL 8
REMARK VINA RESULT:      -5.0     15.562     18.287
REMARK  Name = 40779638
REMARK  7 active torsions:
REMARK  status: ('A' for Active; 'I' for Inactive)
REMARK    1  A    between atoms: O_2  and  C_20
REMARK    2  A    between atoms: O_2  and  C_21
REMARK    3  A    between atoms: N_4  and  C_13
REMARK    4  A    between atoms: N_5  and  C_14
REMARK    5  A    between atoms: C_7  and  C_13
REMARK    6  A    between atoms: C_9  and  C_14
REMARK    7  A    between atoms: C_19  and  C_20
REMARK                            x       y       z     vdW  Elec       q    Type
REMARK                         _______ _______ _______ _____ _____    ______ ____
ROOT
ATOM      3  N   UNL     1       9.931   5.403   6.034  0.00  0.00    -0.298 NA
ATOM      6  C   UNL     1       9.709   7.395   7.692  0.00  0.00    -0.003 C 
ATOM      7  C   UNL     1       8.509   7.349   6.719  0.00  0.00    +0.020 C 
ATOM      8  C   UNL     1      11.016   7.489   6.884  0.00  0.00    +0.024 C 
ATOM      9  C   UNL     1      11.177   6.217   6.022  0.00  0.00    +0.074 C 
ATOM     10  C   UNL     1       8.763   6.242   5.673  0.00  0.00    +0.089 C 
ATOM     11  C   UNL     1       9.731   6.047   8.440  0.00  0.00    +0.019 C 
ATOM     12  C   UNL     1       9.728   4.899   7.415  0.00  0.00    +0.085 C 
ENDROOT
BRANCH   7  13
ATOM     13  C   UNL     1       8.219   8.695   6.058  0.00  0.00    +0.089 C 
BRANCH  13   4
ATOM      4  N   UNL     1       8.436   8.626   4.621  0.00  0.00    -0.302 NA
ATOM     15  C   UNL     1       7.268   9.064   3.858  0.00  0.00    +0.084 C 
ATOM     16  C   UNL     1       9.527   9.493   4.179  0.00  0.00    +0.084 C 
ATOM     17  C   UNL     1       7.835   9.281   2.463  0.00  0.00    +0.017 C 
ATOM     18  C   UNL     1       9.320   9.560   2.673  0.00  0.00    +0.017 C 
ENDBRANCH  13   4
ENDBRANCH   7  13
BRANCH   9  14
ATOM     14  C   UNL     1      11.644   6.546   4.602  0.00  0.00    +0.123 C 
BRANCH  14   5
ATOM      1  O   UNL     1      10.141   6.176   2.159  0.00  0.00    -0.273 OA
ATOM      5  N   UNL     1      11.614   5.361   3.762  0.00  0.00    -0.312 N 
ATOM     19  C   UNL     1      10.858   5.286   2.608  0.00  0.00    +0.239 C 
ATOM     22  H   UNL     1      12.173   4.562   4.047  0.00  0.00    +0.149 HD
BRANCH  19  20
ATOM     20  C   UNL     1      11.016   3.941   1.931  0.00  0.00    +0.255 C 
BRANCH  20   2
ATOM      2  O   UNL     1      12.326   3.446   2.109  0.00  0.00    -0.374 OA
ATOM     21  C   UNL     1      12.992   3.247   0.864  0.00  0.00    +0.194 C 
ENDBRANCH  20   2
ENDBRANCH  19  20
ENDBRANCH  14   5
ENDBRANCH   9  14
TORSDOF 6
ENDMDL
MODEL 9
REMARK VINA RESULT:      -5.0     26.449     28.852
REMARK  Name = 40779638
REMARK  7 active torsions:
REMARK  status: ('A' for Active; 'I' for Inactive)
REMARK    1  A    between atoms: O_2  and  C_20
REMARK    2  A    between atoms: O_2  and  C_21
REMARK    3  A    between atoms: N_4  and  C_13
REMARK    4  A    between atoms: N_5  and  C_14
REMARK    5  A    between atoms: C_7  and  C_13
REMARK    6  A    between atoms: C_9  and  C_14
REMARK    7  A    between atoms: C_19  and  C_20
REMARK                            x       y       z     vdW  Elec       q    Type
REMARK                         _______ _______ _______ _____ _____    ______ ____
ROOT
ATOM      3  N   UNL     1      -5.679 -12.343  16.794  0.00  0.00    -0.298 NA
ATOM      6  C   UNL     1      -6.813 -11.008  18.717  0.00  0.00    -0.003 C 
ATOM      7  C   UNL     1      -7.512 -10.732  17.367  0.00  0.00    +0.020 C 
ATOM      8  C   UNL     1      -5.320 -10.653  18.601  0.00  0.00    +0.024 C 
ATOM      9  C   UNL     1      -4.657 -11.570  17.549  0.00  0.00    +0.074 C 
ATOM     10  C   UNL     1      -6.713 -11.432  16.245  0.00  0.00    +0.089 C 
ATOM     11  C   UNL     1      -6.903 -12.527  18.965  0.00  0.00    +0.019 C 
ATOM     12  C   UNL     1      -6.341 -13.274  17.742  0.00  0.00    +0.085 C 
ENDROOT
BRANCH   7  13
ATOM     13  C   UNL     1      -7.700  -9.243  17.080  0.00  0.00    +0.089 C 
BRANCH  13   4
ATOM      4  N   UNL     1      -9.019  -8.796  17.503  0.00  0.00    -0.302 NA
ATOM     15  C   UNL     1      -9.595  -7.813  16.586  0.00  0.00    +0.084 C 
ATOM     16  C   UNL     1      -9.990  -9.888  17.549  0.00  0.00    +0.084 C 
ATOM     17  C   UNL     1     -11.063  -7.793  16.986  0.00  0.00    +0.017 C 
ATOM     18  C   UNL     1     -11.322  -9.155  17.622  0.00  0.00    +0.017 C 
ENDBRANCH  13   4
ENDBRANCH   7  13
BRANCH   9  14
ATOM     14  C   UNL     1      -3.716 -10.791  16.627  0.00  0.00    +0.123 C 
BRANCH  14   5
ATOM      1  O   UNL     1      -1.049 -10.672  15.513  0.00  0.00    -0.273 OA
ATOM      5  N   UNL     1      -3.149 -11.664  15.614  0.00  0.00    -0.312 N 
ATOM     19  C   UNL     1      -1.856 -11.522  15.147  0.00  0.00    +0.239 C 
ATOM     22  H   UNL     1      -3.737 -12.403  15.240  0.00  0.00    +0.149 HD
BRANCH  19  20
ATOM     20  C   UNL     1      -1.529 -12.566  14.100  0.00  0.00    +0.255 C 
BRANCH  20   2
ATOM      2  O   UNL     1      -2.376 -12.429  12.980  0.00  0.00    -0.374 OA
ATOM     21  C   UNL     1      -2.038 -11.290  12.194  0.00  0.00    +0.194 C 
ENDBRANCH  20   2
ENDBRANCH  19  20
ENDBRANCH  14   5
ENDBRANCH   9  14
TORSDOF 6
ENDMDL
MODEL 10
REMARK VINA RESULT:      -4.9      3.098      4.775
REMARK  Name = 40779638
REMARK  7 active torsions:
REMARK  status: ('A' for Active; 'I' for Inactive)
REMARK    1  A    between atoms: O_2  and  C_20
REMARK    2  A    between atoms: O_2  and  C_21
REMARK    3  A    between atoms: N_4  and  C_13
REMARK    4  A    between atoms: N_5  and  C_14
REMARK    5  A    between atoms: C_7  and  C_13
REMARK    6  A    between atoms: C_9  and  C_14
REMARK    7  A    between atoms: C_19  and  C_20
REMARK                            x       y       z     vdW  Elec       q    Type
REMARK                         _______ _______ _______ _____ _____    ______ ____
ROOT
ATOM      3  N   UNL     1      14.006  10.608  19.969  0.00  0.00    -0.298 NA
ATOM      6  C   UNL     1      15.348  10.315  22.178  0.00  0.00    -0.003 C 
ATOM      7  C   UNL     1      15.975   9.482  21.037  0.00  0.00    +0.020 C 
ATOM      8  C   UNL     1      13.878   9.900  22.364  0.00  0.00    +0.024 C 
ATOM      9  C   UNL     1      13.089  10.226  21.076  0.00  0.00    +0.074 C 
ATOM     10  C   UNL     1      15.060   9.579  19.796  0.00  0.00    +0.089 C 
ATOM     11  C   UNL     1      15.353  11.785  21.714  0.00  0.00    +0.019 C 
ATOM     12  C   UNL     1      14.665  11.885  20.341  0.00  0.00    +0.085 C 
ENDROOT
BRANCH   7  13
ATOM     13  C   UNL     1      16.242   8.030  21.429  0.00  0.00    +0.089 C 
BRANCH  13   4
ATOM      4  N   UNL     1      17.222   7.424  20.540  0.00  0.00    -0.302 NA
ATOM     15  C   UNL     1      18.282   6.728  21.269  0.00  0.00    +0.084 C 
ATOM     16  C   UNL     1      16.632   6.412  19.667  0.00  0.00    +0.084 C 
ATOM     17  C   UNL     1      18.932   5.874  20.191  0.00  0.00    +0.017 C 
ATOM     18  C   UNL     1      17.850   5.669  19.136  0.00  0.00    +0.017 C 
ENDBRANCH  13   4
ENDBRANCH   7  13
BRANCH   9  14
ATOM     14  C   UNL     1      12.144   9.087  20.684  0.00  0.00    +0.123 C 
BRANCH  14   5
ATOM      1  O   UNL     1      12.210   7.037  18.645  0.00  0.00    -0.273 OA
ATOM      5  N   UNL     1      11.731   9.216  19.297  0.00  0.00    -0.312 N 
ATOM     19  C   UNL     1      11.803   8.168  18.399  0.00  0.00    +0.239 C 
ATOM     22  H   UNL     1      11.379  10.117  18.988  0.00  0.00    +0.149 HD
BRANCH  19  20
ATOM     20  C   UNL     1      11.307   8.580  17.029  0.00  0.00    +0.255 C 
BRANCH  20   2
ATOM      2  O   UNL     1      12.342   8.481  16.074  0.00  0.00    -0.374 OA
ATOM     21  C   UNL     1      12.796   9.763  15.649  0.00  0.00    +0.194 C 
ENDBRANCH  20   2
ENDBRANCH  19  20
ENDBRANCH  14   5
ENDBRANCH   9  14
TORSDOF 6
ENDMDL
