MODEL 1
REMARK VINA RESULT:      -7.9      0.000      0.000
REMARK  Name = 40778175
REMARK  10 active torsions:
REMARK  status: ('A' for Active; 'I' for Inactive)
REMARK    1  A    between atoms: S_1  and  N_10
REMARK    2  A    between atoms: S_1  and  C_23
REMARK    3  A    between atoms: O_3  and  C_12
REMARK    4  A    between atoms: O_4  and  C_13
REMARK    5  A    between atoms: N_9  and  C_22
REMARK    6  A    between atoms: N_10  and  C_16
REMARK    7  A    between atoms: C_11  and  C_15
REMARK    8  A    between atoms: C_14  and  C_16
REMARK    9  A    between atoms: C_15  and  C_17
REMARK   10  A    between atoms: C_33  and  C_34
REMARK                            x       y       z     vdW  Elec       q    Type
REMARK                         _______ _______ _______ _____ _____    ______ ____
ROOT
ATOM      2  O   UNL     1      10.958   8.859  20.048  0.00  0.00    -0.366 OA
ATOM     11  C   UNL     1      11.672   7.619  19.896  0.00  0.00    +0.158 C 
ATOM     12  C   UNL     1      12.113   7.224  21.295  0.00  0.00    +0.175 C 
ATOM     13  C   UNL     1      10.943   7.706  22.128  0.00  0.00    +0.175 C 
ATOM     14  C   UNL     1      10.575   9.011  21.434  0.00  0.00    +0.165 C 
ENDROOT
BRANCH  12   3
ATOM      3  O   UNL     1      12.345   5.836  21.406  0.00  0.00    -0.387 OA
ATOM     35  H   UNL     1      11.988   5.549  22.264  0.00  0.00    +0.210 HD
ENDBRANCH  12   3
BRANCH  13   4
ATOM      4  O   UNL     1       9.840   6.809  22.000  0.00  0.00    -0.387 OA
ATOM     36  H   UNL     1      10.043   6.022  22.533  0.00  0.00    +0.210 HD
ENDBRANCH  13   4
BRANCH  11  15
ATOM     15  C   UNL     1      12.829   7.810  18.931  0.00  0.00    +0.130 C 
BRANCH  15  17
ATOM      5  O   UNL     1      13.619   9.864  19.824  0.00  0.00    -0.276 OA
ATOM      8  N   UNL     1      15.121   8.089  19.799  0.00  0.00    -0.298 N 
ATOM      9  N   UNL     1      17.651   6.894  20.539  0.00  0.00    -0.327 N 
ATOM     17  C   UNL     1      13.883   8.688  19.559  0.00  0.00    +0.218 C 
ATOM     18  C   UNL     1      16.195   8.874  20.401  0.00  0.00    +0.126 C 
ATOM     19  C   UNL     1      15.428   6.690  19.494  0.00  0.00    +0.126 C 
ATOM     20  C   UNL     1      17.095   8.021  21.291  0.00  0.00    +0.124 C 
ATOM     21  C   UNL     1      16.928   6.432  19.350  0.00  0.00    +0.124 C 
BRANCH   9  22
ATOM     22  C   UNL     1      18.852   6.304  20.924  0.00  0.00    +0.030 A 
ATOM     24  C   UNL     1      19.489   6.718  22.093  0.00  0.00    +0.023 A 
ATOM     25  C   UNL     1      19.418   5.298  20.140  0.00  0.00    +0.023 A 
ATOM     28  C   UNL     1      20.693   6.127  22.479  0.00  0.00    +0.002 A 
ATOM     29  C   UNL     1      20.621   4.707  20.526  0.00  0.00    +0.002 A 
ATOM     30  C   UNL     1      21.258   5.122  21.695  0.00  0.00    +0.000 A 
ENDBRANCH   9  22
ENDBRANCH  15  17
ENDBRANCH  11  15
BRANCH  14  16
ATOM     16  C   UNL     1      11.320  10.216  21.993  0.00  0.00    +0.140 C 
BRANCH  16  10
ATOM     10  N   UNL     1      10.608  10.802  23.090  0.00  0.00    -0.187 NA
ATOM     37  H   UNL     1       9.700  10.380  23.325  0.00  0.00    +0.148 HD
BRANCH  10   1
ATOM      1  S   UNL     1      10.856  12.446  23.541  0.00  0.00    +0.058 S 
ATOM      6  O   UNL     1      10.221  12.675  24.824  0.00  0.00    -0.153 OA
ATOM      7  O   UNL     1      10.570  13.321  22.419  0.00  0.00    -0.153 OA
BRANCH   1  23
ATOM     23  C   UNL     1      12.606  12.476  23.786  0.00  0.00    +0.105 A 
ATOM     26  C   UNL     1      13.165  11.850  24.900  0.00  0.00    +0.029 A 
ATOM     27  C   UNL     1      13.429  13.125  22.866  0.00  0.00    +0.029 A 
ATOM     31  C   UNL     1      14.546  11.874  25.094  0.00  0.00    +0.005 A 
ATOM     32  C   UNL     1      14.810  13.149  23.059  0.00  0.00    +0.005 A 
ATOM     33  C   UNL     1      15.368  12.523  24.173  0.00  0.00    -0.050 A 
ATOM     34  C   UNL     1      16.845  12.547  24.381  0.00  0.00    +0.044 C 
ENDBRANCH   1  23
ENDBRANCH  10   1
ENDBRANCH  16  10
ENDBRANCH  14  16
TORSDOF 9
ENDMDL
MODEL 2
REMARK VINA RESULT:      -7.8     27.303     30.789
REMARK  Name = 40778175
REMARK  10 active torsions:
REMARK  status: ('A' for Active; 'I' for Inactive)
REMARK    1  A    between atoms: S_1  and  N_10
REMARK    2  A    between atoms: S_1  and  C_23
REMARK    3  A    between atoms: O_3  and  C_12
REMARK    4  A    between atoms: O_4  and  C_13
REMARK    5  A    between atoms: N_9  and  C_22
REMARK    6  A    between atoms: N_10  and  C_16
REMARK    7  A    between atoms: C_11  and  C_15
REMARK    8  A    between atoms: C_14  and  C_16
REMARK    9  A    between atoms: C_15  and  C_17
REMARK   10  A    between atoms: C_33  and  C_34
REMARK                            x       y       z     vdW  Elec       q    Type
REMARK                         _______ _______ _______ _____ _____    ______ ____
ROOT
ATOM      2  O   UNL     1     -16.987   3.098  27.013  0.00  0.00    -0.366 OA
ATOM     11  C   UNL     1     -16.886   2.426  25.746  0.00  0.00    +0.158 C 
ATOM     12  C   UNL     1     -16.651   0.961  26.076  0.00  0.00    +0.175 C 
ATOM     13  C   UNL     1     -17.487   0.794  27.327  0.00  0.00    +0.175 C 
ATOM     14  C   UNL     1     -17.255   2.119  28.043  0.00  0.00    +0.165 C 
ENDROOT
BRANCH  12   3
ATOM      3  O   UNL     1     -17.046   0.111  25.021  0.00  0.00    -0.387 OA
ATOM     35  H   UNL     1     -16.555   0.386  24.227  0.00  0.00    +0.210 HD
ENDBRANCH  12   3
BRANCH  13   4
ATOM      4  O   UNL     1     -18.872   0.709  26.990  0.00  0.00    -0.387 OA
ATOM     36  H   UNL     1     -19.056   1.409  26.343  0.00  0.00    +0.210 HD
ENDBRANCH  13   4
BRANCH  11  15
ATOM     15  C   UNL     1     -15.768   3.046  24.926  0.00  0.00    +0.130 C 
BRANCH  15  17
ATOM      5  O   UNL     1     -17.556   3.803  23.559  0.00  0.00    -0.276 OA
ATOM      8  N   UNL     1     -15.454   4.691  23.114  0.00  0.00    -0.298 N 
ATOM      9  N   UNL     1     -13.729   6.573  21.751  0.00  0.00    -0.327 N 
ATOM     17  C   UNL     1     -16.350   3.877  23.809  0.00  0.00    +0.218 C 
ATOM     18  C   UNL     1     -15.939   5.522  22.016  0.00  0.00    +0.126 C 
ATOM     19  C   UNL     1     -14.025   4.784  23.420  0.00  0.00    +0.126 C 
ATOM     20  C   UNL     1     -15.162   6.832  21.906  0.00  0.00    +0.124 C 
ATOM     21  C   UNL     1     -13.199   5.297  22.239  0.00  0.00    +0.124 C 
BRANCH   9  22
ATOM     22  C   UNL     1     -12.901   7.502  21.124  0.00  0.00    +0.030 A 
ATOM     24  C   UNL     1     -13.108   8.866  21.324  0.00  0.00    +0.023 A 
ATOM     25  C   UNL     1     -11.866   7.067  20.297  0.00  0.00    +0.023 A 
ATOM     28  C   UNL     1     -12.279   9.797  20.696  0.00  0.00    +0.002 A 
ATOM     29  C   UNL     1     -11.039   7.997  19.669  0.00  0.00    +0.002 A 
ATOM     30  C   UNL     1     -11.245   9.362  19.868  0.00  0.00    +0.000 A 
ENDBRANCH   9  22
ENDBRANCH  15  17
ENDBRANCH  11  15
BRANCH  14  16
ATOM     16  C   UNL     1     -16.055   2.089  28.980  0.00  0.00    +0.140 C 
BRANCH  16  10
ATOM     10  N   UNL     1     -16.001   0.857  29.713  0.00  0.00    -0.187 NA
ATOM     37  H   UNL     1     -16.903   0.430  29.957  0.00  0.00    +0.148 HD
BRANCH  10   1
ATOM      1  S   UNL     1     -14.646   0.464  30.701  0.00  0.00    +0.058 S 
ATOM      6  O   UNL     1     -13.479   0.323  29.852  0.00  0.00    -0.153 OA
ATOM      7  O   UNL     1     -14.997  -0.589  31.637  0.00  0.00    -0.153 OA
BRANCH   1  23
ATOM     23  C   UNL     1     -14.461   1.950  31.640  0.00  0.00    +0.105 A 
ATOM     26  C   UNL     1     -13.487   2.882  31.285  0.00  0.00    +0.029 A 
ATOM     27  C   UNL     1     -15.289   2.190  32.736  0.00  0.00    +0.029 A 
ATOM     31  C   UNL     1     -13.340   4.054  32.026  0.00  0.00    +0.005 A 
ATOM     32  C   UNL     1     -15.144   3.362  33.477  0.00  0.00    +0.005 A 
ATOM     33  C   UNL     1     -14.169   4.295  33.122  0.00  0.00    -0.050 A 
ATOM     34  C   UNL     1     -14.013   5.549  33.914  0.00  0.00    +0.044 C 
ENDBRANCH   1  23
ENDBRANCH  10   1
ENDBRANCH  16  10
ENDBRANCH  14  16
TORSDOF 9
ENDMDL
MODEL 3
REMARK VINA RESULT:      -7.7      1.524      2.223
REMARK  Name = 40778175
REMARK  10 active torsions:
REMARK  status: ('A' for Active; 'I' for Inactive)
REMARK    1  A    between atoms: S_1  and  N_10
REMARK    2  A    between atoms: S_1  and  C_23
REMARK    3  A    between atoms: O_3  and  C_12
REMARK    4  A    between atoms: O_4  and  C_13
REMARK    5  A    between atoms: N_9  and  C_22
REMARK    6  A    between atoms: N_10  and  C_16
REMARK    7  A    between atoms: C_11  and  C_15
REMARK    8  A    between atoms: C_14  and  C_16
REMARK    9  A    between atoms: C_15  and  C_17
REMARK   10  A    between atoms: C_33  and  C_34
REMARK                            x       y       z     vdW  Elec       q    Type
REMARK                         _______ _______ _______ _____ _____    ______ ____
ROOT
ATOM      2  O   UNL     1      11.279   9.517  20.811  0.00  0.00    -0.366 OA
ATOM     11  C   UNL     1      12.080   8.393  20.403  0.00  0.00    +0.158 C 
ATOM     12  C   UNL     1      12.209   7.513  21.636  0.00  0.00    +0.175 C 
ATOM     13  C   UNL     1      10.854   7.700  22.285  0.00  0.00    +0.175 C 
ATOM     14  C   UNL     1      10.579   9.177  22.029  0.00  0.00    +0.165 C 
ENDROOT
BRANCH  12   3
ATOM      3  O   UNL     1      12.490   6.172  21.300  0.00  0.00    -0.387 OA
ATOM     35  H   UNL     1      13.091   6.183  20.535  0.00  0.00    +0.210 HD
ENDBRANCH  12   3
BRANCH  13   4
ATOM      4  O   UNL     1       9.864   6.939  21.593  0.00  0.00    -0.387 OA
ATOM     36  H   UNL     1      10.238   6.057  21.429  0.00  0.00    +0.210 HD
ENDBRANCH  13   4
BRANCH  11  15
ATOM     15  C   UNL     1      13.414   8.883  19.869  0.00  0.00    +0.130 C 
BRANCH  15  17
ATOM      5  O   UNL     1      13.602   7.334  18.079  0.00  0.00    -0.276 OA
ATOM      8  N   UNL     1      15.299   7.305  19.668  0.00  0.00    -0.298 N 
ATOM      9  N   UNL     1      17.888   6.408  20.602  0.00  0.00    -0.327 N 
ATOM     17  C   UNL     1      14.106   7.774  19.117  0.00  0.00    +0.218 C 
ATOM     18  C   UNL     1      16.026   6.228  19.001  0.00  0.00    +0.126 C 
ATOM     19  C   UNL     1      15.900   7.836  20.894  0.00  0.00    +0.126 C 
ATOM     20  C   UNL     1      17.537   6.363  19.181  0.00  0.00    +0.124 C 
ATOM     21  C   UNL     1      16.865   6.850  21.554  0.00  0.00    +0.124 C 
BRANCH   9  22
ATOM     22  C   UNL     1      19.149   6.007  21.037  0.00  0.00    +0.030 A 
ATOM     24  C   UNL     1      19.679   6.532  22.215  0.00  0.00    +0.023 A 
ATOM     25  C   UNL     1      19.881   5.081  20.294  0.00  0.00    +0.023 A 
ATOM     28  C   UNL     1      20.942   6.130  22.652  0.00  0.00    +0.002 A 
ATOM     29  C   UNL     1      21.144   4.680  20.730  0.00  0.00    +0.002 A 
ATOM     30  C   UNL     1      21.674   5.205  21.908  0.00  0.00    +0.000 A 
ENDBRANCH   9  22
ENDBRANCH  15  17
ENDBRANCH  11  15
BRANCH  14  16
ATOM     16  C   UNL     1      11.105  10.081  23.136  0.00  0.00    +0.140 C 
BRANCH  16  10
ATOM     10  N   UNL     1      10.521  11.388  23.059  0.00  0.00    -0.187 NA
ATOM     37  H   UNL     1       9.664  11.474  22.497  0.00  0.00    +0.148 HD
BRANCH  10   1
ATOM      1  S   UNL     1      11.474  12.808  23.270  0.00  0.00    +0.058 S 
ATOM      6  O   UNL     1      12.216  12.686  24.510  0.00  0.00    -0.153 OA
ATOM      7  O   UNL     1      10.673  13.991  23.012  0.00  0.00    -0.153 OA
BRANCH   1  23
ATOM     23  C   UNL     1      12.618  12.657  21.932  0.00  0.00    +0.105 A 
ATOM     26  C   UNL     1      12.200  12.909  20.625  0.00  0.00    +0.029 A 
ATOM     27  C   UNL     1      13.939  12.285  22.182  0.00  0.00    +0.029 A 
ATOM     31  C   UNL     1      13.102  12.788  19.569  0.00  0.00    +0.005 A 
ATOM     32  C   UNL     1      14.842  12.165  21.126  0.00  0.00    +0.005 A 
ATOM     33  C   UNL     1      14.424  12.418  19.819  0.00  0.00    -0.050 A 
ATOM     34  C   UNL     1      15.389  12.290  18.689  0.00  0.00    +0.044 C 
ENDBRANCH   1  23
ENDBRANCH  10   1
ENDBRANCH  16  10
ENDBRANCH  14  16
TORSDOF 9
ENDMDL
MODEL 4
REMARK VINA RESULT:      -7.5      3.092      5.377
REMARK  Name = 40778175
REMARK  10 active torsions:
REMARK  status: ('A' for Active; 'I' for Inactive)
REMARK    1  A    between atoms: S_1  and  N_10
REMARK    2  A    between atoms: S_1  and  C_23
REMARK    3  A    between atoms: O_3  and  C_12
REMARK    4  A    between atoms: O_4  and  C_13
REMARK    5  A    between atoms: N_9  and  C_22
REMARK    6  A    between atoms: N_10  and  C_16
REMARK    7  A    between atoms: C_11  and  C_15
REMARK    8  A    between atoms: C_14  and  C_16
REMARK    9  A    between atoms: C_15  and  C_17
REMARK   10  A    between atoms: C_33  and  C_34
REMARK                            x       y       z     vdW  Elec       q    Type
REMARK                         _______ _______ _______ _____ _____    ______ ____
ROOT
ATOM      2  O   UNL     1      16.135   8.778  21.073  0.00  0.00    -0.366 OA
ATOM     11  C   UNL     1      17.248   7.963  20.664  0.00  0.00    +0.158 C 
ATOM     12  C   UNL     1      16.667   6.590  20.371  0.00  0.00    +0.175 C 
ATOM     13  C   UNL     1      15.317   6.952  19.788  0.00  0.00    +0.175 C 
ATOM     14  C   UNL     1      14.909   8.143  20.646  0.00  0.00    +0.165 C 
ENDROOT
BRANCH  12   3
ATOM      3  O   UNL     1      17.479   5.849  19.487  0.00  0.00    -0.387 OA
ATOM     35  H   UNL     1      17.217   6.089  18.581  0.00  0.00    +0.210 HD
ENDBRANCH  12   3
BRANCH  13   4
ATOM      4  O   UNL     1      15.463   7.404  18.442  0.00  0.00    -0.387 OA
ATOM     36  H   UNL     1      14.581   7.661  18.125  0.00  0.00    +0.210 HD
ENDBRANCH  13   4
BRANCH  11  15
ATOM     15  C   UNL     1      18.302   7.951  21.758  0.00  0.00    +0.130 C 
BRANCH  15  17
ATOM      5  O   UNL     1      19.924   9.436  20.862  0.00  0.00    -0.276 OA
ATOM      8  N   UNL     1      20.530   7.197  21.017  0.00  0.00    -0.298 N 
ATOM      9  N   UNL     1      22.500   5.083  20.849  0.00  0.00    -0.327 N 
ATOM     17  C   UNL     1      19.655   8.272  21.173  0.00  0.00    +0.218 C 
ATOM     18  C   UNL     1      21.858   7.426  20.452  0.00  0.00    +0.126 C 
ATOM     19  C   UNL     1      20.213   5.819  21.397  0.00  0.00    +0.126 C 
ATOM     20  C   UNL     1      22.900   6.479  21.043  0.00  0.00    +0.124 C 
ATOM     21  C   UNL     1      21.076   4.790  20.666  0.00  0.00    +0.124 C 
BRANCH   9  22
ATOM     22  C   UNL     1      23.454   4.069  20.805  0.00  0.00    +0.030 A 
ATOM     24  C   UNL     1      23.093   2.758  21.116  0.00  0.00    +0.023 A 
ATOM     25  C   UNL     1      24.770   4.364  20.449  0.00  0.00    +0.023 A 
ATOM     28  C   UNL     1      24.047   1.742  21.072  0.00  0.00    +0.002 A 
ATOM     29  C   UNL     1      25.724   3.348  20.406  0.00  0.00    +0.002 A 
ATOM     30  C   UNL     1      25.363   2.037  20.717  0.00  0.00    +0.000 A 
ENDBRANCH   9  22
ENDBRANCH  15  17
ENDBRANCH  11  15
BRANCH  14  16
ATOM     16  C   UNL     1      14.133   7.743  21.894  0.00  0.00    +0.140 C 
BRANCH  16  10
ATOM     10  N   UNL     1      13.126   6.769  21.588  0.00  0.00    -0.187 NA
ATOM     37  H   UNL     1      13.455   5.814  21.400  0.00  0.00    +0.148 HD
BRANCH  10   1
ATOM      1  S   UNL     1      11.611   7.233  20.909  0.00  0.00    +0.058 S 
ATOM      6  O   UNL     1      10.567   6.434  21.521  0.00  0.00    -0.153 OA
ATOM      7  O   UNL     1      11.715   7.315  19.464  0.00  0.00    -0.153 OA
BRANCH   1  23
ATOM     23  C   UNL     1      11.456   8.887  21.511  0.00  0.00    +0.105 A 
ATOM     26  C   UNL     1      10.970   9.118  22.798  0.00  0.00    +0.029 A 
ATOM     27  C   UNL     1      11.819   9.962  20.700  0.00  0.00    +0.029 A 
ATOM     31  C   UNL     1      10.846  10.423  23.273  0.00  0.00    +0.005 A 
ATOM     32  C   UNL     1      11.696  11.267  21.175  0.00  0.00    +0.005 A 
ATOM     33  C   UNL     1      11.210  11.498  22.462  0.00  0.00    -0.050 A 
ATOM     34  C   UNL     1      11.078  12.894  22.971  0.00  0.00    +0.044 C 
ENDBRANCH   1  23
ENDBRANCH  10   1
ENDBRANCH  16  10
ENDBRANCH  14  16
TORSDOF 9
ENDMDL
MODEL 5
REMARK VINA RESULT:      -7.4      2.621      6.712
REMARK  Name = 40778175
REMARK  10 active torsions:
REMARK  status: ('A' for Active; 'I' for Inactive)
REMARK    1  A    between atoms: S_1  and  N_10
REMARK    2  A    between atoms: S_1  and  C_23
REMARK    3  A    between atoms: O_3  and  C_12
REMARK    4  A    between atoms: O_4  and  C_13
REMARK    5  A    between atoms: N_9  and  C_22
REMARK    6  A    between atoms: N_10  and  C_16
REMARK    7  A    between atoms: C_11  and  C_15
REMARK    8  A    between atoms: C_14  and  C_16
REMARK    9  A    between atoms: C_15  and  C_17
REMARK   10  A    between atoms: C_33  and  C_34
REMARK                            x       y       z     vdW  Elec       q    Type
REMARK                         _______ _______ _______ _____ _____    ______ ____
ROOT
ATOM      2  O   UNL     1      12.854  11.980  24.038  0.00  0.00    -0.366 OA
ATOM     11  C   UNL     1      12.485  13.361  24.200  0.00  0.00    +0.158 C 
ATOM     12  C   UNL     1      10.979  13.410  24.003  0.00  0.00    +0.175 C 
ATOM     13  C   UNL     1      10.550  12.094  24.619  0.00  0.00    +0.175 C 
ATOM     14  C   UNL     1      11.672  11.159  24.184  0.00  0.00    +0.165 C 
ENDROOT
BRANCH  12   3
ATOM      3  O   UNL     1      10.399  14.535  24.627  0.00  0.00    -0.387 OA
ATOM     35  H   UNL     1      10.690  14.535  25.555  0.00  0.00    +0.210 HD
ENDBRANCH  12   3
BRANCH  13   4
ATOM      4  O   UNL     1      10.574  12.182  26.043  0.00  0.00    -0.387 OA
ATOM     36  H   UNL     1      11.500  12.298  26.311  0.00  0.00    +0.210 HD
ENDBRANCH  13   4
BRANCH  11  15
ATOM     15  C   UNL     1      13.251  14.215  23.205  0.00  0.00    +0.130 C 
BRANCH  15  17
ATOM      5  O   UNL     1      15.476  13.397  23.332  0.00  0.00    -0.276 OA
ATOM      8  N   UNL     1      14.264  12.833  21.430  0.00  0.00    -0.298 N 
ATOM      9  N   UNL     1      13.950  11.344  18.968  0.00  0.00    -0.327 N 
ATOM     17  C   UNL     1      14.435  13.447  22.672  0.00  0.00    +0.218 C 
ATOM     18  C   UNL     1      15.366  12.075  20.844  0.00  0.00    +0.126 C 
ATOM     19  C   UNL     1      13.023  12.886  20.653  0.00  0.00    +0.126 C 
ATOM     20  C   UNL     1      14.868  10.893  20.016  0.00  0.00    +0.124 C 
ATOM     21  C   UNL     1      13.246  12.614  19.165  0.00  0.00    +0.124 C 
BRANCH   9  22
ATOM     22  C   UNL     1      13.780  10.601  17.803  0.00  0.00    +0.030 A 
ATOM     24  C   UNL     1      14.750  10.642  16.802  0.00  0.00    +0.023 A 
ATOM     25  C   UNL     1      12.638   9.817  17.635  0.00  0.00    +0.023 A 
ATOM     28  C   UNL     1      14.581   9.898  15.634  0.00  0.00    +0.002 A 
ATOM     29  C   UNL     1      12.468   9.074  16.467  0.00  0.00    +0.002 A 
ATOM     30  C   UNL     1      13.439   9.115  15.467  0.00  0.00    +0.000 A 
ENDBRANCH   9  22
ENDBRANCH  15  17
ENDBRANCH  11  15
BRANCH  14  16
ATOM     16  C   UNL     1      11.403  10.487  22.844  0.00  0.00    +0.140 C 
BRANCH  16  10
ATOM     10  N   UNL     1      11.879   9.135  22.838  0.00  0.00    -0.187 NA
ATOM     37  H   UNL     1      12.717   8.942  23.400  0.00  0.00    +0.148 HD
BRANCH  10   1
ATOM      1  S   UNL     1      11.552   8.078  21.517  0.00  0.00    +0.058 S 
ATOM      6  O   UNL     1      10.945   8.848  20.448  0.00  0.00    -0.153 OA
ATOM      7  O   UNL     1      10.917   6.863  21.993  0.00  0.00    -0.153 OA
BRANCH   1  23
ATOM     23  C   UNL     1      13.189   7.642  21.012  0.00  0.00    +0.105 A 
ATOM     26  C   UNL     1      13.424   7.215  19.705  0.00  0.00    +0.029 A 
ATOM     27  C   UNL     1      14.244   7.724  21.920  0.00  0.00    +0.029 A 
ATOM     31  C   UNL     1      14.716   6.870  19.306  0.00  0.00    +0.005 A 
ATOM     32  C   UNL     1      15.536   7.379  21.522  0.00  0.00    +0.005 A 
ATOM     33  C   UNL     1      15.771   6.952  20.214  0.00  0.00    -0.050 A 
ATOM     34  C   UNL     1      17.152   6.583  19.788  0.00  0.00    +0.044 C 
ENDBRANCH   1  23
ENDBRANCH  10   1
ENDBRANCH  16  10
ENDBRANCH  14  16
TORSDOF 9
ENDMDL
MODEL 6
REMARK VINA RESULT:      -7.3     28.136     30.187
REMARK  Name = 40778175
REMARK  10 active torsions:
REMARK  status: ('A' for Active; 'I' for Inactive)
REMARK    1  A    between atoms: S_1  and  N_10
REMARK    2  A    between atoms: S_1  and  C_23
REMARK    3  A    between atoms: O_3  and  C_12
REMARK    4  A    between atoms: O_4  and  C_13
REMARK    5  A    between atoms: N_9  and  C_22
REMARK    6  A    between atoms: N_10  and  C_16
REMARK    7  A    between atoms: C_11  and  C_15
REMARK    8  A    between atoms: C_14  and  C_16
REMARK    9  A    between atoms: C_15  and  C_17
REMARK   10  A    between atoms: C_33  and  C_34
REMARK                            x       y       z     vdW  Elec       q    Type
REMARK                         _______ _______ _______ _____ _____    ______ ____
ROOT
ATOM      2  O   UNL     1      -6.281 -11.709  17.235  0.00  0.00    -0.366 OA
ATOM     11  C   UNL     1      -4.996 -11.502  16.622  0.00  0.00    +0.158 C 
ATOM     12  C   UNL     1      -4.038 -11.208  17.764  0.00  0.00    +0.175 C 
ATOM     13  C   UNL     1      -4.586 -12.103  18.856  0.00  0.00    +0.175 C 
ATOM     14  C   UNL     1      -6.090 -11.982  18.642  0.00  0.00    +0.165 C 
ENDROOT
BRANCH  12   3
ATOM      3  O   UNL     1      -2.700 -11.497  17.421  0.00  0.00    -0.387 OA
ATOM     35  H   UNL     1      -2.139 -11.182  18.149  0.00  0.00    +0.210 HD
ENDBRANCH  12   3
BRANCH  13   4
ATOM      4  O   UNL     1      -4.212 -13.460  18.619  0.00  0.00    -0.387 OA
ATOM     36  H   UNL     1      -4.443 -13.668  17.699  0.00  0.00    +0.210 HD
ENDBRANCH  13   4
BRANCH  11  15
ATOM     15  C   UNL     1      -5.090 -10.375  15.608  0.00  0.00    +0.130 C 
BRANCH  15  17
ATOM      5  O   UNL     1      -3.071 -11.175  14.648  0.00  0.00    -0.276 OA
ATOM      8  N   UNL     1      -4.640 -10.281  13.184  0.00  0.00    -0.298 N 
ATOM      9  N   UNL     1      -5.602  -9.751  10.506  0.00  0.00    -0.327 N 
ATOM     17  C   UNL     1      -4.170 -10.652  14.445  0.00  0.00    +0.218 C 
ATOM     18  C   UNL     1      -3.805 -10.511  12.008  0.00  0.00    +0.126 C 
ATOM     19  C   UNL     1      -5.949  -9.670  12.945  0.00  0.00    +0.126 C 
ATOM     20  C   UNL     1      -4.640 -10.824  10.769  0.00  0.00    +0.124 C 
ATOM     21  C   UNL     1      -6.009  -8.898  11.626  0.00  0.00    +0.124 C 
BRANCH   9  22
ATOM     22  C   UNL     1      -6.085  -9.526   9.219  0.00  0.00    +0.030 A 
ATOM     24  C   UNL     1      -5.435 -10.091   8.123  0.00  0.00    +0.023 A 
ATOM     25  C   UNL     1      -7.218  -8.737   9.027  0.00  0.00    +0.023 A 
ATOM     28  C   UNL     1      -5.918  -9.867   6.833  0.00  0.00    +0.002 A 
ATOM     29  C   UNL     1      -7.701  -8.512   7.738  0.00  0.00    +0.002 A 
ATOM     30  C   UNL     1      -7.051  -9.077   6.641  0.00  0.00    +0.000 A 
ENDBRANCH   9  22
ENDBRANCH  15  17
ENDBRANCH  11  15
BRANCH  14  16
ATOM     16  C   UNL     1      -6.714 -10.837  19.427  0.00  0.00    +0.140 C 
BRANCH  16  10
ATOM     10  N   UNL     1      -7.779 -10.223  18.690  0.00  0.00    -0.187 NA
ATOM     37  H   UNL     1      -7.622  -9.256  18.377  0.00  0.00    +0.148 HD
BRANCH  10   1
ATOM      1  S   UNL     1      -9.413 -10.734  18.884  0.00  0.00    +0.058 S 
ATOM      6  O   UNL     1      -9.776 -10.601  20.282  0.00  0.00    -0.153 OA
ATOM      7  O   UNL     1      -9.630 -11.990  18.191  0.00  0.00    -0.153 OA
BRANCH   1  23
ATOM     23  C   UNL     1     -10.275  -9.487  17.976  0.00  0.00    +0.105 A 
ATOM     26  C   UNL     1     -11.654  -9.588  17.790  0.00  0.00    +0.029 A 
ATOM     27  C   UNL     1      -9.578  -8.402  17.445  0.00  0.00    +0.029 A 
ATOM     31  C   UNL     1     -12.334  -8.605  17.072  0.00  0.00    +0.005 A 
ATOM     32  C   UNL     1     -10.258  -7.418  16.728  0.00  0.00    +0.005 A 
ATOM     33  C   UNL     1     -11.636  -7.519  16.542  0.00  0.00    -0.050 A 
ATOM     34  C   UNL     1     -12.364  -6.468  15.775  0.00  0.00    +0.044 C 
ENDBRANCH   1  23
ENDBRANCH  10   1
ENDBRANCH  16  10
ENDBRANCH  14  16
TORSDOF 9
ENDMDL
MODEL 7
REMARK VINA RESULT:      -7.3     27.409     30.795
REMARK  Name = 40778175
REMARK  10 active torsions:
REMARK  status: ('A' for Active; 'I' for Inactive)
REMARK    1  A    between atoms: S_1  and  N_10
REMARK    2  A    between atoms: S_1  and  C_23
REMARK    3  A    between atoms: O_3  and  C_12
REMARK    4  A    between atoms: O_4  and  C_13
REMARK    5  A    between atoms: N_9  and  C_22
REMARK    6  A    between atoms: N_10  and  C_16
REMARK    7  A    between atoms: C_11  and  C_15
REMARK    8  A    between atoms: C_14  and  C_16
REMARK    9  A    between atoms: C_15  and  C_17
REMARK   10  A    between atoms: C_33  and  C_34
REMARK                            x       y       z     vdW  Elec       q    Type
REMARK                         _______ _______ _______ _____ _____    ______ ____
ROOT
ATOM      2  O   UNL     1      -6.600  -9.432  17.123  0.00  0.00    -0.366 OA
ATOM     11  C   UNL     1      -7.881  -9.799  17.666  0.00  0.00    +0.158 C 
ATOM     12  C   UNL     1      -7.704 -11.201  18.224  0.00  0.00    +0.175 C 
ATOM     13  C   UNL     1      -6.283 -11.143  18.744  0.00  0.00    +0.175 C 
ATOM     14  C   UNL     1      -5.589 -10.303  17.679  0.00  0.00    +0.165 C 
ENDROOT
BRANCH  12   3
ATOM      3  O   UNL     1      -8.656 -11.496  19.223  0.00  0.00    -0.387 OA
ATOM     35  H   UNL     1      -8.916 -12.427  19.111  0.00  0.00    +0.210 HD
ENDBRANCH  12   3
BRANCH  13   4
ATOM      4  O   UNL     1      -6.235 -10.425  19.976  0.00  0.00    -0.387 OA
ATOM     36  H   UNL     1      -7.145 -10.161  20.194  0.00  0.00    +0.210 HD
ENDBRANCH  13   4
BRANCH  11  15
ATOM     15  C   UNL     1      -8.940  -9.710  16.581  0.00  0.00    +0.130 C 
BRANCH  15  17
ATOM      5  O   UNL     1     -10.509  -9.215  18.293  0.00  0.00    -0.276 OA
ATOM      8  N   UNL     1     -10.869  -8.214  16.226  0.00  0.00    -0.298 N 
ATOM      9  N   UNL     1     -12.265  -6.336  14.523  0.00  0.00    -0.327 N 
ATOM     17  C   UNL     1     -10.173  -9.028  17.120  0.00  0.00    +0.218 C 
ATOM     18  C   UNL     1     -12.077  -7.524  16.671  0.00  0.00    +0.126 C 
ATOM     19  C   UNL     1     -10.462  -7.986  14.837  0.00  0.00    +0.126 C 
ATOM     20  C   UNL     1     -12.249  -6.174  15.979  0.00  0.00    +0.124 C 
ATOM     21  C   UNL     1     -11.618  -7.520  13.951  0.00  0.00    +0.124 C 
BRANCH   9  22
ATOM     22  C   UNL     1     -12.911  -5.407  13.710  0.00  0.00    +0.030 A 
ATOM     24  C   UNL     1     -14.304  -5.375  13.658  0.00  0.00    +0.023 A 
ATOM     25  C   UNL     1     -12.164  -4.509  12.948  0.00  0.00    +0.023 A 
ATOM     28  C   UNL     1     -14.951  -4.445  12.844  0.00  0.00    +0.002 A 
ATOM     29  C   UNL     1     -12.811  -3.580  12.133  0.00  0.00    +0.002 A 
ATOM     30  C   UNL     1     -14.204  -3.548  12.081  0.00  0.00    +0.000 A 
ENDBRANCH   9  22
ENDBRANCH  15  17
ENDBRANCH  11  15
BRANCH  14  16
ATOM     16  C   UNL     1      -5.016 -11.137  16.541  0.00  0.00    +0.140 C 
BRANCH  16  10
ATOM     10  N   UNL     1      -3.956 -10.442  15.871  0.00  0.00    -0.187 NA
ATOM     37  H   UNL     1      -4.136  -9.459  15.628  0.00  0.00    +0.148 HD
BRANCH  10   1
ATOM      1  S   UNL     1      -2.785 -11.287  14.932  0.00  0.00    +0.058 S 
ATOM      6  O   UNL     1      -3.126 -12.696  14.926  0.00  0.00    -0.153 OA
ATOM      7  O   UNL     1      -1.447 -10.862  15.301  0.00  0.00    -0.153 OA
BRANCH   1  23
ATOM     23  C   UNL     1      -3.105 -10.641  13.318  0.00  0.00    +0.105 A 
ATOM     26  C   UNL     1      -4.417 -10.386  12.918  0.00  0.00    +0.029 A 
ATOM     27  C   UNL     1      -2.048 -10.386  12.446  0.00  0.00    +0.029 A 
ATOM     31  C   UNL     1      -4.671  -9.877  11.644  0.00  0.00    +0.005 A 
ATOM     32  C   UNL     1      -2.301  -9.877  11.172  0.00  0.00    +0.005 A 
ATOM     33  C   UNL     1      -3.613  -9.622  10.772  0.00  0.00    -0.050 A 
ATOM     34  C   UNL     1      -3.885  -9.077   9.411  0.00  0.00    +0.044 C 
ENDBRANCH   1  23
ENDBRANCH  10   1
ENDBRANCH  16  10
ENDBRANCH  14  16
TORSDOF 9
ENDMDL
MODEL 8
REMARK VINA RESULT:      -7.2     26.960     30.470
REMARK  Name = 40778175
REMARK  10 active torsions:
REMARK  status: ('A' for Active; 'I' for Inactive)
REMARK    1  A    between atoms: S_1  and  N_10
REMARK    2  A    between atoms: S_1  and  C_23
REMARK    3  A    between atoms: O_3  and  C_12
REMARK    4  A    between atoms: O_4  and  C_13
REMARK    5  A    between atoms: N_9  and  C_22
REMARK    6  A    between atoms: N_10  and  C_16
REMARK    7  A    between atoms: C_11  and  C_15
REMARK    8  A    between atoms: C_14  and  C_16
REMARK    9  A    between atoms: C_15  and  C_17
REMARK   10  A    between atoms: C_33  and  C_34
REMARK                            x       y       z     vdW  Elec       q    Type
REMARK                         _______ _______ _______ _____ _____    ______ ____
ROOT
ATOM      2  O   UNL     1     -17.844   4.164  25.533  0.00  0.00    -0.366 OA
ATOM     11  C   UNL     1     -17.259   4.244  24.221  0.00  0.00    +0.158 C 
ATOM     12  C   UNL     1     -15.859   3.670  24.360  0.00  0.00    +0.175 C 
ATOM     13  C   UNL     1     -16.081   2.575  25.382  0.00  0.00    +0.175 C 
ATOM     14  C   UNL     1     -17.088   3.220  26.326  0.00  0.00    +0.165 C 
ENDROOT
BRANCH  12   3
ATOM      3  O   UNL     1     -15.357   3.195  23.130  0.00  0.00    -0.387 OA
ATOM     35  H   UNL     1     -16.098   3.180  22.499  0.00  0.00    +0.210 HD
ENDBRANCH  12   3
BRANCH  13   4
ATOM      4  O   UNL     1     -16.706   1.446  24.771  0.00  0.00    -0.387 OA
ATOM     36  H   UNL     1     -16.913   1.690  23.854  0.00  0.00    +0.210 HD
ENDBRANCH  13   4
BRANCH  11  15
ATOM     15  C   UNL     1     -17.274   5.685  23.742  0.00  0.00    +0.130 C 
BRANCH  15  17
ATOM      5  O   UNL     1     -18.338   5.373  21.642  0.00  0.00    -0.276 OA
ATOM      8  N   UNL     1     -16.155   6.169  21.598  0.00  0.00    -0.298 N 
ATOM      9  N   UNL     1     -13.884   7.274  20.184  0.00  0.00    -0.327 N 
ATOM     17  C   UNL     1     -17.315   5.726  22.235  0.00  0.00    +0.218 C 
ATOM     18  C   UNL     1     -16.113   6.232  20.139  0.00  0.00    +0.126 C 
ATOM     19  C   UNL     1     -14.945   6.597  22.303  0.00  0.00    +0.126 C 
ATOM     20  C   UNL     1     -15.240   7.381  19.642  0.00  0.00    +0.124 C 
ATOM     21  C   UNL     1     -13.693   6.523  21.428  0.00  0.00    +0.124 C 
BRANCH   9  22
ATOM     22  C   UNL     1     -12.802   7.840  19.513  0.00  0.00    +0.030 A 
ATOM     24  C   UNL     1     -12.856   8.020  18.131  0.00  0.00    +0.023 A 
ATOM     25  C   UNL     1     -11.665   8.225  20.223  0.00  0.00    +0.023 A 
ATOM     28  C   UNL     1     -11.773   8.587  17.458  0.00  0.00    +0.002 A 
ATOM     29  C   UNL     1     -10.582   8.791  19.550  0.00  0.00    +0.002 A 
ATOM     30  C   UNL     1     -10.636   8.972  18.168  0.00  0.00    +0.000 A 
ENDBRANCH   9  22
ENDBRANCH  15  17
ENDBRANCH  11  15
BRANCH  14  16
ATOM     16  C   UNL     1     -16.431   3.990  27.464  0.00  0.00    +0.140 C 
BRANCH  16  10
ATOM     10  N   UNL     1     -15.322   3.263  28.009  0.00  0.00    -0.187 NA
ATOM     37  H   UNL     1     -14.614   2.938  27.338  0.00  0.00    +0.148 HD
BRANCH  10   1
ATOM      1  S   UNL     1     -15.461   2.398  29.493  0.00  0.00    +0.058 S 
ATOM      6  O   UNL     1     -14.451   1.359  29.518  0.00  0.00    -0.153 OA
ATOM      7  O   UNL     1     -16.851   2.072  29.753  0.00  0.00    -0.153 OA
BRANCH   1  23
ATOM     23  C   UNL     1     -14.994   3.641  30.660  0.00  0.00    +0.105 A 
ATOM     26  C   UNL     1     -13.863   3.459  31.456  0.00  0.00    +0.029 A 
ATOM     27  C   UNL     1     -15.756   4.802  30.785  0.00  0.00    +0.029 A 
ATOM     31  C   UNL     1     -13.495   4.439  32.378  0.00  0.00    +0.005 A 
ATOM     32  C   UNL     1     -15.388   5.782  31.706  0.00  0.00    +0.005 A 
ATOM     33  C   UNL     1     -14.257   5.601  32.503  0.00  0.00    -0.050 A 
ATOM     34  C   UNL     1     -13.862   6.648  33.488  0.00  0.00    +0.044 C 
ENDBRANCH   1  23
ENDBRANCH  10   1
ENDBRANCH  16  10
ENDBRANCH  14  16
TORSDOF 9
ENDMDL
MODEL 9
REMARK VINA RESULT:      -7.1     27.201     30.401
REMARK  Name = 40778175
REMARK  10 active torsions:
REMARK  status: ('A' for Active; 'I' for Inactive)
REMARK    1  A    between atoms: S_1  and  N_10
REMARK    2  A    between atoms: S_1  and  C_23
REMARK    3  A    between atoms: O_3  and  C_12
REMARK    4  A    between atoms: O_4  and  C_13
REMARK    5  A    between atoms: N_9  and  C_22
REMARK    6  A    between atoms: N_10  and  C_16
REMARK    7  A    between atoms: C_11  and  C_15
REMARK    8  A    between atoms: C_14  and  C_16
REMARK    9  A    between atoms: C_15  and  C_17
REMARK   10  A    between atoms: C_33  and  C_34
REMARK                            x       y       z     vdW  Elec       q    Type
REMARK                         _______ _______ _______ _____ _____    ______ ____
ROOT
ATOM      2  O   UNL     1      -4.090 -11.454  18.595  0.00  0.00    -0.366 OA
ATOM     11  C   UNL     1      -5.424 -11.955  18.793  0.00  0.00    +0.158 C 
ATOM     12  C   UNL     1      -5.954 -12.273  17.405  0.00  0.00    +0.175 C 
ATOM     13  C   UNL     1      -4.703 -12.769  16.710  0.00  0.00    +0.175 C 
ATOM     14  C   UNL     1      -3.635 -11.842  17.279  0.00  0.00    +0.165 C 
ENDROOT
BRANCH  12   3
ATOM      3  O   UNL     1      -6.991 -13.230  17.440  0.00  0.00    -0.387 OA
ATOM     35  H   UNL     1      -7.217 -13.448  16.520  0.00  0.00    +0.210 HD
ENDBRANCH  12   3
BRANCH  13   4
ATOM      4  O   UNL     1      -4.400 -14.101  17.124  0.00  0.00    -0.387 OA
ATOM     36  H   UNL     1      -4.341 -14.096  18.094  0.00  0.00    +0.210 HD
ENDBRANCH  13   4
BRANCH  11  15
ATOM     15  C   UNL     1      -6.254 -10.920  19.532  0.00  0.00    +0.130 C 
BRANCH  15  17
ATOM      5  O   UNL     1      -8.115 -12.275  20.111  0.00  0.00    -0.276 OA
ATOM      8  N   UNL     1      -8.530 -10.487  18.686  0.00  0.00    -0.298 N 
ATOM      9  N   UNL     1     -10.350  -8.754  17.249  0.00  0.00    -0.327 N 
ATOM     17  C   UNL     1      -7.714 -11.296  19.477  0.00  0.00    +0.218 C 
ATOM     18  C   UNL     1      -9.955 -10.789  18.577  0.00  0.00    +0.126 C 
ATOM     19  C   UNL     1      -8.053  -9.319  17.942  0.00  0.00    +0.126 C 
ATOM     20  C   UNL     1     -10.795  -9.525  18.412  0.00  0.00    +0.124 C 
ATOM     21  C   UNL     1      -8.973  -8.940  16.781  0.00  0.00    +0.124 C 
BRANCH   9  22
ATOM     22  C   UNL     1     -11.224  -7.897  16.586  0.00  0.00    +0.030 A 
ATOM     24  C   UNL     1     -10.743  -6.728  15.998  0.00  0.00    +0.023 A 
ATOM     25  C   UNL     1     -12.582  -8.207  16.510  0.00  0.00    +0.023 A 
ATOM     28  C   UNL     1     -11.618  -5.868  15.334  0.00  0.00    +0.002 A 
ATOM     29  C   UNL     1     -13.458  -7.347  15.847  0.00  0.00    +0.002 A 
ATOM     30  C   UNL     1     -12.976  -6.178  15.259  0.00  0.00    +0.000 A 
ENDBRANCH   9  22
ENDBRANCH  15  17
ENDBRANCH  11  15
BRANCH  14  16
ATOM     16  C   UNL     1      -3.449 -10.572  16.458  0.00  0.00    +0.140 C 
BRANCH  16  10
ATOM     10  N   UNL     1      -3.572 -10.839  15.055  0.00  0.00    -0.187 NA
ATOM     37  H   UNL     1      -4.368 -11.422  14.768  0.00  0.00    +0.148 HD
BRANCH  10   1
ATOM      1  S   UNL     1      -2.198 -10.810  14.015  0.00  0.00    +0.058 S 
ATOM      6  O   UNL     1      -1.718 -12.167  13.845  0.00  0.00    -0.153 OA
ATOM      7  O   UNL     1      -1.284  -9.759  14.423  0.00  0.00    -0.153 OA
BRANCH   1  23
ATOM     23  C   UNL     1      -2.931 -10.295  12.491  0.00  0.00    +0.105 A 
ATOM     26  C   UNL     1      -2.125  -9.817  11.457  0.00  0.00    +0.029 A 
ATOM     27  C   UNL     1      -4.313 -10.367  12.322  0.00  0.00    +0.029 A 
ATOM     31  C   UNL     1      -2.703  -9.410  10.255  0.00  0.00    +0.005 A 
ATOM     32  C   UNL     1      -4.891  -9.960  11.120  0.00  0.00    +0.005 A 
ATOM     33  C   UNL     1      -4.085  -9.482  10.086  0.00  0.00    -0.050 A 
ATOM     34  C   UNL     1      -4.703  -9.048   8.800  0.00  0.00    +0.044 C 
ENDBRANCH   1  23
ENDBRANCH  10   1
ENDBRANCH  16  10
ENDBRANCH  14  16
TORSDOF 9
ENDMDL
MODEL 10
REMARK VINA RESULT:      -7.1     27.263     29.943
REMARK  Name = 40778175
REMARK  10 active torsions:
REMARK  status: ('A' for Active; 'I' for Inactive)
REMARK    1  A    between atoms: S_1  and  N_10
REMARK    2  A    between atoms: S_1  and  C_23
REMARK    3  A    between atoms: O_3  and  C_12
REMARK    4  A    between atoms: O_4  and  C_13
REMARK    5  A    between atoms: N_9  and  C_22
REMARK    6  A    between atoms: N_10  and  C_16
REMARK    7  A    between atoms: C_11  and  C_15
REMARK    8  A    between atoms: C_14  and  C_16
REMARK    9  A    between atoms: C_15  and  C_17
REMARK   10  A    between atoms: C_33  and  C_34
REMARK                            x       y       z     vdW  Elec       q    Type
REMARK                         _______ _______ _______ _____ _____    ______ ____
ROOT
ATOM      2  O   UNL     1      -4.320 -11.577  14.676  0.00  0.00    -0.366 OA
ATOM     11  C   UNL     1      -2.898 -11.628  14.886  0.00  0.00    +0.158 C 
ATOM     12  C   UNL     1      -2.623 -10.702  16.060  0.00  0.00    +0.175 C 
ATOM     13  C   UNL     1      -3.854 -10.924  16.915  0.00  0.00    +0.175 C 
ATOM     14  C   UNL     1      -4.951 -11.049  15.865  0.00  0.00    +0.165 C 
ENDROOT
BRANCH  12   3
ATOM      3  O   UNL     1      -1.418 -11.027  16.719  0.00  0.00    -0.387 OA
ATOM     35  H   UNL     1      -0.981 -10.190  16.954  0.00  0.00    +0.210 HD
ENDBRANCH  12   3
BRANCH  13   4
ATOM      4  O   UNL     1      -3.759 -12.168  17.608  0.00  0.00    -0.387 OA
ATOM     36  H   UNL     1      -2.816 -12.398  17.663  0.00  0.00    +0.210 HD
ENDBRANCH  13   4
BRANCH  11  15
ATOM     15  C   UNL     1      -2.178 -11.217  13.614  0.00  0.00    +0.130 C 
BRANCH  15  17
ATOM      5  O   UNL     1      -2.278 -13.332  12.539  0.00  0.00    -0.276 OA
ATOM      8  N   UNL     1      -3.252 -11.545  11.417  0.00  0.00    -0.298 N 
ATOM      9  N   UNL     1      -4.857 -10.471   9.261  0.00  0.00    -0.327 N 
ATOM     17  C   UNL     1      -2.570 -12.135  12.482  0.00  0.00    +0.218 C 
ATOM     18  C   UNL     1      -3.661 -12.366  10.281  0.00  0.00    +0.126 C 
ATOM     19  C   UNL     1      -3.608 -10.125  11.357  0.00  0.00    +0.126 C 
ATOM     20  C   UNL     1      -4.969 -11.874   9.664  0.00  0.00    +0.124 C 
ATOM     21  C   UNL     1      -3.854  -9.637   9.929  0.00  0.00    +0.124 C 
BRANCH   9  22
ATOM     22  C   UNL     1      -5.659  -9.955   8.246  0.00  0.00    +0.030 A 
ATOM     24  C   UNL     1      -5.453 -10.353   6.925  0.00  0.00    +0.023 A 
ATOM     25  C   UNL     1      -6.668  -9.041   8.549  0.00  0.00    +0.023 A 
ATOM     28  C   UNL     1      -6.256  -9.837   5.907  0.00  0.00    +0.002 A 
ATOM     29  C   UNL     1      -7.470  -8.525   7.532  0.00  0.00    +0.002 A 
ATOM     30  C   UNL     1      -7.264  -8.922   6.211  0.00  0.00    +0.000 A 
ENDBRANCH   9  22
ENDBRANCH  15  17
ENDBRANCH  11  15
BRANCH  14  16
ATOM     16  C   UNL     1      -5.585  -9.713  15.502  0.00  0.00    +0.140 C 
BRANCH  16  10
ATOM     10  N   UNL     1      -7.005  -9.838  15.349  0.00  0.00    -0.187 NA
ATOM     37  H   UNL     1      -7.412  -9.424  14.500  0.00  0.00    +0.148 HD
BRANCH  10   1
ATOM      1  S   UNL     1      -8.040 -10.019  16.714  0.00  0.00    +0.058 S 
ATOM      6  O   UNL     1      -7.355  -9.506  17.885  0.00  0.00    -0.153 OA
ATOM      7  O   UNL     1      -8.617 -11.350  16.732  0.00  0.00    -0.153 OA
BRANCH   1  23
ATOM     23  C   UNL     1      -9.344  -8.897  16.309  0.00  0.00    +0.105 A 
ATOM     26  C   UNL     1      -9.799  -7.984  17.262  0.00  0.00    +0.029 A 
ATOM     27  C   UNL     1      -9.919  -8.923  15.039  0.00  0.00    +0.029 A 
ATOM     31  C   UNL     1     -10.828  -7.099  16.943  0.00  0.00    +0.005 A 
ATOM     32  C   UNL     1     -10.948  -8.038  14.720  0.00  0.00    +0.005 A 
ATOM     33  C   UNL     1     -11.402  -7.125  15.672  0.00  0.00    -0.050 A 
ATOM     34  C   UNL     1     -12.503  -6.178  15.331  0.00  0.00    +0.044 C 
ENDBRANCH   1  23
ENDBRANCH  10   1
ENDBRANCH  16  10
ENDBRANCH  14  16
TORSDOF 9
ENDMDL
