MODEL 1
REMARK VINA RESULT:      -6.3      0.000      0.000
REMARK  Name = 28991037
REMARK  6 active torsions:
REMARK  status: ('A' for Active; 'I' for Inactive)
REMARK    1  A    between atoms: S_1  and  N_8
REMARK    2  A    between atoms: S_1  and  C_22
REMARK    3  A    between atoms: N_7  and  C_16
REMARK    4  A    between atoms: N_8  and  C_17
REMARK    5  A    between atoms: C_10  and  C_16
REMARK    6  A    between atoms: C_11  and  C_17
REMARK                            x       y       z     vdW  Elec       q    Type
REMARK                         _______ _______ _______ _____ _____    ______ ____
ROOT
ATOM      6  N   UNL     1      11.378   8.224  20.247  0.00  0.00    -0.298 NA
ATOM      9  C   UNL     1      13.559   9.428  19.495  0.00  0.00    -0.003 C 
ATOM     10  C   UNL     1      13.858   7.985  19.962  0.00  0.00    +0.020 C 
ATOM     11  C   UNL     1      11.507   9.531  20.947  0.00  0.00    +0.072 C 
ATOM     12  C   UNL     1      12.864  10.198  20.634  0.00  0.00    +0.024 C 
ATOM     13  C   UNL     1      12.559   7.372  20.530  0.00  0.00    +0.089 C 
ATOM     14  C   UNL     1      12.551   9.323  18.335  0.00  0.00    +0.019 C 
ATOM     15  C   UNL     1      11.340   8.489  18.789  0.00  0.00    +0.085 C 
ENDROOT
BRANCH  10  16
ATOM     16  C   UNL     1      15.006   7.902  20.966  0.00  0.00    +0.089 C 
BRANCH  16   7
ATOM      3  O   UNL     1      18.334   5.615  19.825  0.00  0.00    -0.377 OA
ATOM      7  N   UNL     1      16.243   7.484  20.311  0.00  0.00    -0.298 NA
ATOM     18  C   UNL     1      16.023   6.278  19.501  0.00  0.00    +0.112 C 
ATOM     19  C   UNL     1      17.300   7.238  21.302  0.00  0.00    +0.112 C 
ATOM     20  C   UNL     1      17.330   5.853  18.839  0.00  0.00    +0.175 C 
ATOM     21  C   UNL     1      18.578   6.792  20.595  0.00  0.00    +0.175 C 
ENDBRANCH  16   7
ENDBRANCH  10  16
BRANCH  11  17
ATOM     17  C   UNL     1      11.268   9.410  22.454  0.00  0.00    +0.124 C 
BRANCH  17   8
ATOM      8  N   UNL     1      10.437  10.504  22.933  0.00  0.00    -0.188 NA
ATOM     26  H   UNL     1       9.664  10.750  22.302  0.00  0.00    +0.148 HD
BRANCH   8   1
ATOM      1  S   UNL     1      11.136  11.849  23.730  0.00  0.00    +0.065 S 
ATOM      4  O   UNL     1      12.567  11.640  23.840  0.00  0.00    -0.153 OA
ATOM      5  O   UNL     1      10.355  12.177  24.907  0.00  0.00    -0.153 OA
BRANCH   1  22
ATOM      2  S   UNL     1       9.803  14.377  23.077  0.00  0.00    -0.077 S 
ATOM     22  C   UNL     1      10.862  13.138  22.552  0.00  0.00    +0.142 A 
ATOM     23  C   UNL     1      11.328  13.364  21.275  0.00  0.00    +0.036 A 
ATOM     24  C   UNL     1      10.808  14.570  20.722  0.00  0.00    +0.010 A 
ATOM     25  C   UNL     1       9.965  15.219  21.595  0.00  0.00    +0.047 A 
ENDBRANCH   1  22
ENDBRANCH   8   1
ENDBRANCH  17   8
ENDBRANCH  11  17
TORSDOF 6
ENDMDL
MODEL 2
REMARK VINA RESULT:      -5.9     27.144     29.191
REMARK  Name = 28991037
REMARK  6 active torsions:
REMARK  status: ('A' for Active; 'I' for Inactive)
REMARK    1  A    between atoms: S_1  and  N_8
REMARK    2  A    between atoms: S_1  and  C_22
REMARK    3  A    between atoms: N_7  and  C_16
REMARK    4  A    between atoms: N_8  and  C_17
REMARK    5  A    between atoms: C_10  and  C_16
REMARK    6  A    between atoms: C_11  and  C_17
REMARK                            x       y       z     vdW  Elec       q    Type
REMARK                         _______ _______ _______ _____ _____    ______ ____
ROOT
ATOM      6  N   UNL     1      -5.128 -12.840  16.855  0.00  0.00    -0.298 NA
ATOM      9  C   UNL     1      -5.195 -10.440  17.860  0.00  0.00    -0.003 C 
ATOM     10  C   UNL     1      -6.608 -10.899  17.433  0.00  0.00    +0.020 C 
ATOM     11  C   UNL     1      -4.127 -11.973  16.176  0.00  0.00    +0.072 C 
ATOM     12  C   UNL     1      -4.248 -10.508  16.648  0.00  0.00    +0.024 C 
ATOM     13  C   UNL     1      -6.487 -12.262  16.714  0.00  0.00    +0.089 C 
ATOM     14  C   UNL     1      -4.687 -11.464  18.893  0.00  0.00    +0.019 C 
ATOM     15  C   UNL     1      -4.792 -12.880  18.299  0.00  0.00    +0.085 C 
ENDROOT
BRANCH  10  16
ATOM     16  C   UNL     1      -7.340  -9.872  16.571  0.00  0.00    +0.089 C 
BRANCH  16   7
ATOM      3  O   UNL     1     -11.224  -8.773  17.719  0.00  0.00    -0.377 OA
ATOM      7  N   UNL     1      -8.452  -9.274  17.305  0.00  0.00    -0.298 NA
ATOM     18  C   UNL     1      -9.352 -10.312  17.827  0.00  0.00    +0.112 C 
ATOM     19  C   UNL     1      -9.202  -8.344  16.449  0.00  0.00    +0.112 C 
ATOM     20  C   UNL     1     -10.512  -9.664  18.577  0.00  0.00    +0.175 C 
ATOM     21  C   UNL     1     -10.365  -7.741  17.233  0.00  0.00    +0.175 C 
ENDBRANCH  16   7
ENDBRANCH  10  16
BRANCH  11  17
ATOM     17  C   UNL     1      -4.198 -12.086  14.651  0.00  0.00    +0.124 C 
BRANCH  17   8
ATOM      8  N   UNL     1      -3.746 -10.856  14.022  0.00  0.00    -0.188 NA
ATOM     26  H   UNL     1      -4.506 -10.231  13.728  0.00  0.00    +0.148 HD
BRANCH   8   1
ATOM      1  S   UNL     1      -2.403 -10.861  12.958  0.00  0.00    +0.065 S 
ATOM      4  O   UNL     1      -1.971 -12.229  12.750  0.00  0.00    -0.153 OA
ATOM      5  O   UNL     1      -1.449  -9.850  13.373  0.00  0.00    -0.153 OA
BRANCH   1  22
ATOM      2  S   UNL     1      -4.567 -11.118  10.996  0.00  0.00    -0.077 S 
ATOM     22  C   UNL     1      -3.142 -10.287  11.457  0.00  0.00    +0.142 A 
ATOM     23  C   UNL     1      -2.809  -9.295  10.561  0.00  0.00    +0.036 A 
ATOM     24  C   UNL     1      -3.736  -9.217   9.482  0.00  0.00    +0.010 A 
ATOM     25  C   UNL     1      -4.742 -10.150   9.594  0.00  0.00    +0.047 A 
ENDBRANCH   1  22
ENDBRANCH   8   1
ENDBRANCH  17   8
ENDBRANCH  11  17
TORSDOF 6
ENDMDL
MODEL 3
REMARK VINA RESULT:      -5.6      3.788      6.781
REMARK  Name = 28991037
REMARK  6 active torsions:
REMARK  status: ('A' for Active; 'I' for Inactive)
REMARK    1  A    between atoms: S_1  and  N_8
REMARK    2  A    between atoms: S_1  and  C_22
REMARK    3  A    between atoms: N_7  and  C_16
REMARK    4  A    between atoms: N_8  and  C_17
REMARK    5  A    between atoms: C_10  and  C_16
REMARK    6  A    between atoms: C_11  and  C_17
REMARK                            x       y       z     vdW  Elec       q    Type
REMARK                         _______ _______ _______ _____ _____    ______ ____
ROOT
ATOM      6  N   UNL     1      15.674  11.583  18.758  0.00  0.00    -0.298 NA
ATOM      9  C   UNL     1      13.838  12.931  20.017  0.00  0.00    -0.003 C 
ATOM     10  C   UNL     1      14.415  11.812  20.914  0.00  0.00    +0.020 C 
ATOM     11  C   UNL     1      14.433  11.646  17.938  0.00  0.00    +0.072 C 
ATOM     12  C   UNL     1      13.281  12.310  18.723  0.00  0.00    +0.024 C 
ATOM     13  C   UNL     1      15.389  10.958  20.072  0.00  0.00    +0.089 C 
ATOM     14  C   UNL     1      15.019  13.836  19.617  0.00  0.00    +0.019 C 
ATOM     15  C   UNL     1      16.133  12.973  18.997  0.00  0.00    +0.085 C 
ENDROOT
BRANCH  10  16
ATOM     16  C   UNL     1      13.337  10.953  21.572  0.00  0.00    +0.089 C 
BRANCH  16   7
ATOM      3  O   UNL     1      11.753  11.586  25.406  0.00  0.00    -0.377 OA
ATOM      7  N   UNL     1      12.796  11.612  22.758  0.00  0.00    -0.298 NA
ATOM     18  C   UNL     1      13.662  11.386  23.923  0.00  0.00    +0.112 C 
ATOM     19  C   UNL     1      11.435  11.138  23.043  0.00  0.00    +0.112 C 
ATOM     20  C   UNL     1      13.070  12.072  25.151  0.00  0.00    +0.175 C 
ATOM     21  C   UNL     1      10.896  11.833  24.292  0.00  0.00    +0.175 C 
ENDBRANCH  16   7
ENDBRANCH  10  16
BRANCH  11  17
ATOM     17  C   UNL     1      14.029  10.277  17.386  0.00  0.00    +0.124 C 
BRANCH  17   8
ATOM      8  N   UNL     1      12.617  10.023  17.622  0.00  0.00    -0.188 NA
ATOM     26  H   UNL     1      12.197  10.625  18.341  0.00  0.00    +0.148 HD
BRANCH   8   1
ATOM      1  S   UNL     1      12.004   8.424  17.615  0.00  0.00    +0.065 S 
ATOM      4  O   UNL     1      12.981   7.546  17.000  0.00  0.00    -0.153 OA
ATOM      5  O   UNL     1      10.632   8.431  17.143  0.00  0.00    -0.153 OA
BRANCH   1  22
ATOM      2  S   UNL     1      13.373   7.327  19.964  0.00  0.00    -0.077 S 
ATOM     22  C   UNL     1      11.953   8.057  19.344  0.00  0.00    +0.142 A 
ATOM     23  C   UNL     1      10.996   8.238  20.318  0.00  0.00    +0.036 A 
ATOM     24  C   UNL     1      11.435   7.770  21.591  0.00  0.00    +0.010 A 
ATOM     25  C   UNL     1      12.709   7.251  21.541  0.00  0.00    +0.047 A 
ENDBRANCH   1  22
ENDBRANCH   8   1
ENDBRANCH  17   8
ENDBRANCH  11  17
TORSDOF 6
ENDMDL
MODEL 4
REMARK VINA RESULT:      -5.5      2.166      2.611
REMARK  Name = 28991037
REMARK  6 active torsions:
REMARK  status: ('A' for Active; 'I' for Inactive)
REMARK    1  A    between atoms: S_1  and  N_8
REMARK    2  A    between atoms: S_1  and  C_22
REMARK    3  A    between atoms: N_7  and  C_16
REMARK    4  A    between atoms: N_8  and  C_17
REMARK    5  A    between atoms: C_10  and  C_16
REMARK    6  A    between atoms: C_11  and  C_17
REMARK                            x       y       z     vdW  Elec       q    Type
REMARK                         _______ _______ _______ _____ _____    ______ ____
ROOT
ATOM      6  N   UNL     1      12.393   7.832  19.593  0.00  0.00    -0.298 NA
ATOM      9  C   UNL     1      14.608   8.756  18.587  0.00  0.00    -0.003 C 
ATOM     10  C   UNL     1      14.895   7.761  19.734  0.00  0.00    +0.020 C 
ATOM     11  C   UNL     1      12.360   9.320  19.565  0.00  0.00    +0.072 C 
ATOM     12  C   UNL     1      13.718   9.898  19.113  0.00  0.00    +0.024 C 
ATOM     13  C   UNL     1      13.554   7.359  20.386  0.00  0.00    +0.089 C 
ATOM     14  C   UNL     1      13.790   7.992  17.528  0.00  0.00    +0.019 C 
ATOM     15  C   UNL     1      12.561   7.354  18.199  0.00  0.00    +0.085 C 
ENDROOT
BRANCH  10  16
ATOM     16  C   UNL     1      15.883   8.302  20.766  0.00  0.00    +0.089 C 
BRANCH  16   7
ATOM      3  O   UNL     1      19.606   6.389  20.469  0.00  0.00    -0.377 OA
ATOM      7  N   UNL     1      16.981   7.362  20.980  0.00  0.00    -0.298 NA
ATOM     18  C   UNL     1      18.171   8.056  21.491  0.00  0.00    +0.112 C 
ATOM     19  C   UNL     1      17.308   6.651  19.736  0.00  0.00    +0.112 C 
ATOM     20  C   UNL     1      19.306   7.057  21.694  0.00  0.00    +0.175 C 
ATOM     21  C   UNL     1      18.464   5.684  19.982  0.00  0.00    +0.175 C 
ENDBRANCH  16   7
ENDBRANCH  10  16
BRANCH  11  17
ATOM     17  C   UNL     1      11.904   9.917  20.898  0.00  0.00    +0.124 C 
BRANCH  17   8
ATOM      8  N   UNL     1      12.474  11.240  21.091  0.00  0.00    -0.188 NA
ATOM     26  H   UNL     1      12.749  11.710  20.220  0.00  0.00    +0.148 HD
BRANCH   8   1
ATOM      1  S   UNL     1      13.522  11.557  22.409  0.00  0.00    +0.065 S 
ATOM      4  O   UNL     1      14.365  12.690  22.079  0.00  0.00    -0.153 OA
ATOM      5  O   UNL     1      14.115  10.316  22.868  0.00  0.00    -0.153 OA
BRANCH   1  22
ATOM      2  S   UNL     1      12.316  13.765  23.914  0.00  0.00    -0.077 S 
ATOM     22  C   UNL     1      12.377  12.074  23.653  0.00  0.00    +0.142 A 
ATOM     23  C   UNL     1      11.506  11.392  24.474  0.00  0.00    +0.036 A 
ATOM     24  C   UNL     1      10.779  12.271  25.329  0.00  0.00    +0.010 A 
ATOM     25  C   UNL     1      11.121  13.590  25.128  0.00  0.00    +0.047 A 
ENDBRANCH   1  22
ENDBRANCH   8   1
ENDBRANCH  17   8
ENDBRANCH  11  17
TORSDOF 6
ENDMDL
MODEL 5
REMARK VINA RESULT:      -5.4     27.608     30.181
REMARK  Name = 28991037
REMARK  6 active torsions:
REMARK  status: ('A' for Active; 'I' for Inactive)
REMARK    1  A    between atoms: S_1  and  N_8
REMARK    2  A    between atoms: S_1  and  C_22
REMARK    3  A    between atoms: N_7  and  C_16
REMARK    4  A    between atoms: N_8  and  C_17
REMARK    5  A    between atoms: C_10  and  C_16
REMARK    6  A    between atoms: C_11  and  C_17
REMARK                            x       y       z     vdW  Elec       q    Type
REMARK                         _______ _______ _______ _____ _____    ______ ____
ROOT
ATOM      6  N   UNL     1     -15.227   5.602  34.366  0.00  0.00    -0.298 NA
ATOM      9  C   UNL     1     -16.288   4.176  32.464  0.00  0.00    -0.003 C 
ATOM     10  C   UNL     1     -15.290   3.337  33.293  0.00  0.00    +0.020 C 
ATOM     11  C   UNL     1     -15.079   6.301  33.060  0.00  0.00    +0.072 C 
ATOM     12  C   UNL     1     -15.565   5.411  31.895  0.00  0.00    +0.024 C 
ATOM     13  C   UNL     1     -14.587   4.266  34.308  0.00  0.00    +0.089 C 
ATOM     14  C   UNL     1     -17.362   4.688  33.443  0.00  0.00    +0.019 C 
ATOM     15  C   UNL     1     -16.676   5.409  34.618  0.00  0.00    +0.085 C 
ENDROOT
BRANCH  10  16
ATOM     16  C   UNL     1     -14.281   2.578  32.433  0.00  0.00    +0.089 C 
BRANCH  16   7
ATOM      3  O   UNL     1     -14.980  -0.341  29.500  0.00  0.00    -0.377 OA
ATOM      7  N   UNL     1     -14.961   1.701  31.483  0.00  0.00    -0.298 NA
ATOM     18  C   UNL     1     -14.751   0.289  31.831  0.00  0.00    +0.112 C 
ATOM     19  C   UNL     1     -14.495   1.956  30.112  0.00  0.00    +0.112 C 
ATOM     20  C   UNL     1     -15.458  -0.606  30.818  0.00  0.00    +0.175 C 
ATOM     21  C   UNL     1     -15.211   1.021  29.140  0.00  0.00    +0.175 C 
ENDBRANCH  16   7
ENDBRANCH  10  16
BRANCH  11  17
ATOM     17  C   UNL     1     -13.654   6.810  32.830  0.00  0.00    +0.124 C 
BRANCH  17   8
ATOM      8  N   UNL     1     -13.551   8.222  33.162  0.00  0.00    -0.188 NA
ATOM     26  H   UNL     1     -13.242   8.814  32.382  0.00  0.00    +0.148 HD
BRANCH   8   1
ATOM      1  S   UNL     1     -12.955   8.720  34.688  0.00  0.00    +0.065 S 
ATOM      4  O   UNL     1     -12.753   7.550  35.520  0.00  0.00    -0.153 OA
ATOM      5  O   UNL     1     -13.741   9.836  35.178  0.00  0.00    -0.153 OA
BRANCH   1  22
ATOM      2  S   UNL     1     -10.313   9.628  35.577  0.00  0.00    -0.077 S 
ATOM     22  C   UNL     1     -11.365   9.360  34.253  0.00  0.00    +0.142 A 
ATOM     23  C   UNL     1     -10.780   9.696  33.052  0.00  0.00    +0.036 A 
ATOM     24  C   UNL     1      -9.451  10.180  33.221  0.00  0.00    +0.010 A 
ATOM     25  C   UNL     1      -9.070  10.195  34.545  0.00  0.00    +0.047 A 
ENDBRANCH   1  22
ENDBRANCH   8   1
ENDBRANCH  17   8
ENDBRANCH  11  17
TORSDOF 6
ENDMDL
MODEL 6
REMARK VINA RESULT:      -5.3     27.295     29.335
REMARK  Name = 28991037
REMARK  6 active torsions:
REMARK  status: ('A' for Active; 'I' for Inactive)
REMARK    1  A    between atoms: S_1  and  N_8
REMARK    2  A    between atoms: S_1  and  C_22
REMARK    3  A    between atoms: N_7  and  C_16
REMARK    4  A    between atoms: N_8  and  C_17
REMARK    5  A    between atoms: C_10  and  C_16
REMARK    6  A    between atoms: C_11  and  C_17
REMARK                            x       y       z     vdW  Elec       q    Type
REMARK                         _______ _______ _______ _____ _____    ______ ____
ROOT
ATOM      6  N   UNL     1      -5.321 -10.112  11.329  0.00  0.00    -0.298 NA
ATOM      9  C   UNL     1      -4.406  -9.198   9.072  0.00  0.00    -0.003 C 
ATOM     10  C   UNL     1      -5.096 -10.566   8.874  0.00  0.00    +0.020 C 
ATOM     11  C   UNL     1      -3.886  -9.744  11.472  0.00  0.00    +0.072 C 
ATOM     12  C   UNL     1      -3.279  -9.341  10.110  0.00  0.00    +0.024 C 
ATOM     13  C   UNL     1      -5.488 -11.125  10.260  0.00  0.00    +0.089 C 
ATOM     14  C   UNL     1      -5.461  -8.248   9.672  0.00  0.00    +0.019 C 
ATOM     15  C   UNL     1      -6.067  -8.893  10.931  0.00  0.00    +0.085 C 
ENDROOT
BRANCH  10  16
ATOM     16  C   UNL     1      -4.246 -11.561   8.086  0.00  0.00    +0.089 C 
BRANCH  16   7
ATOM      3  O   UNL     1      -5.232 -11.909   4.022  0.00  0.00    -0.377 OA
ATOM      7  N   UNL     1      -4.918 -11.957   6.850  0.00  0.00    -0.298 NA
ATOM     18  C   UNL     1      -3.995 -12.677   5.962  0.00  0.00    +0.112 C 
ATOM     19  C   UNL     1      -5.470 -10.784   6.158  0.00  0.00    +0.112 C 
ATOM     20  C   UNL     1      -4.715 -13.068   4.675  0.00  0.00    +0.175 C 
ATOM     21  C   UNL     1      -6.156 -11.221   4.866  0.00  0.00    +0.175 C 
ENDBRANCH  16   7
ENDBRANCH  10  16
BRANCH  11  17
ATOM     17  C   UNL     1      -3.069 -10.843  12.155  0.00  0.00    +0.124 C 
BRANCH  17   8
ATOM      8  N   UNL     1      -2.657 -10.426  13.486  0.00  0.00    -0.188 NA
ATOM     26  H   UNL     1      -1.961  -9.671  13.492  0.00  0.00    +0.148 HD
BRANCH   8   1
ATOM      1  S   UNL     1      -2.439 -11.579  14.734  0.00  0.00    +0.065 S 
ATOM      4  O   UNL     1      -1.147 -11.364  15.354  0.00  0.00    -0.153 OA
ATOM      5  O   UNL     1      -2.805 -12.896  14.250  0.00  0.00    -0.153 OA
BRANCH   1  22
ATOM      2  S   UNL     1      -5.085 -10.399  15.181  0.00  0.00    -0.077 S 
ATOM     22  C   UNL     1      -3.686 -11.089  15.888  0.00  0.00    +0.142 A 
ATOM     23  C   UNL     1      -3.774 -11.144  17.262  0.00  0.00    +0.036 A 
ATOM     24  C   UNL     1      -5.007 -10.613  17.740  0.00  0.00    +0.010 A 
ATOM     25  C   UNL     1      -5.814 -10.172  16.715  0.00  0.00    +0.047 A 
ENDBRANCH   1  22
ENDBRANCH   8   1
ENDBRANCH  17   8
ENDBRANCH  11  17
TORSDOF 6
ENDMDL
MODEL 7
REMARK VINA RESULT:      -5.3     16.386     18.066
REMARK  Name = 28991037
REMARK  6 active torsions:
REMARK  status: ('A' for Active; 'I' for Inactive)
REMARK    1  A    between atoms: S_1  and  N_8
REMARK    2  A    between atoms: S_1  and  C_22
REMARK    3  A    between atoms: N_7  and  C_16
REMARK    4  A    between atoms: N_8  and  C_17
REMARK    5  A    between atoms: C_10  and  C_16
REMARK    6  A    between atoms: C_11  and  C_17
REMARK                            x       y       z     vdW  Elec       q    Type
REMARK                         _______ _______ _______ _____ _____    ______ ____
ROOT
ATOM      6  N   UNL     1      10.208   7.258   7.227  0.00  0.00    -0.298 NA
ATOM      9  C   UNL     1       9.565   5.223   5.738  0.00  0.00    -0.003 C 
ATOM     10  C   UNL     1      10.852   5.902   5.218  0.00  0.00    +0.020 C 
ATOM     11  C   UNL     1       8.790   7.373   6.791  0.00  0.00    +0.072 C 
ATOM     12  C   UNL     1       8.426   6.259   5.786  0.00  0.00    +0.024 C 
ATOM     13  C   UNL     1      11.104   7.182   6.047  0.00  0.00    +0.089 C 
ATOM     14  C   UNL     1       9.844   4.787   7.189  0.00  0.00    +0.019 C 
ATOM     15  C   UNL     1      10.349   5.997   7.995  0.00  0.00    +0.085 C 
ENDROOT
BRANCH  10  16
ATOM     16  C   UNL     1      10.813   6.201   3.721  0.00  0.00    +0.089 C 
BRANCH  16   7
ATOM      3  O   UNL     1      12.941   4.195   0.711  0.00  0.00    -0.377 OA
ATOM      7  N   UNL     1      11.864   5.471   3.016  0.00  0.00    -0.298 NA
ATOM     18  C   UNL     1      12.359   6.245   1.869  0.00  0.00    +0.112 C 
ATOM     19  C   UNL     1      11.377   4.160   2.566  0.00  0.00    +0.112 C 
ATOM     20  C   UNL     1      13.445   5.459   1.142  0.00  0.00    +0.175 C 
ATOM     21  C   UNL     1      12.489   3.422   1.823  0.00  0.00    +0.175 C 
ENDBRANCH  16   7
ENDBRANCH  10  16
BRANCH  11  17
ATOM     17  C   UNL     1       8.460   8.763   6.243  0.00  0.00    +0.124 C 
BRANCH  17   8
ATOM      8  N   UNL     1       7.555   8.667   5.109  0.00  0.00    -0.188 NA
ATOM     26  H   UNL     1       7.668   7.811   4.553  0.00  0.00    +0.148 HD
BRANCH   8   1
ATOM      1  S   UNL     1       7.173  10.053   4.176  0.00  0.00    +0.065 S 
ATOM      4  O   UNL     1       7.951  11.176   4.660  0.00  0.00    -0.153 OA
ATOM      5  O   UNL     1       5.734  10.166   4.040  0.00  0.00    -0.153 OA
BRANCH   1  22
ATOM      2  S   UNL     1       7.396  10.665   1.318  0.00  0.00    -0.077 S 
ATOM     22  C   UNL     1       7.807   9.594   2.590  0.00  0.00    +0.142 A 
ATOM     23  C   UNL     1       8.575   8.539   2.150  0.00  0.00    +0.036 A 
ATOM     24  C   UNL     1       8.830   8.610   0.750  0.00  0.00    +0.010 A 
ATOM     25  C   UNL     1       8.247   9.717   0.173  0.00  0.00    +0.047 A 
ENDBRANCH   1  22
ENDBRANCH   8   1
ENDBRANCH  17   8
ENDBRANCH  11  17
TORSDOF 6
ENDMDL
MODEL 8
REMARK VINA RESULT:      -5.3     27.281     29.075
REMARK  Name = 28991037
REMARK  6 active torsions:
REMARK  status: ('A' for Active; 'I' for Inactive)
REMARK    1  A    between atoms: S_1  and  N_8
REMARK    2  A    between atoms: S_1  and  C_22
REMARK    3  A    between atoms: N_7  and  C_16
REMARK    4  A    between atoms: N_8  and  C_17
REMARK    5  A    between atoms: C_10  and  C_16
REMARK    6  A    between atoms: C_11  and  C_17
REMARK                            x       y       z     vdW  Elec       q    Type
REMARK                         _______ _______ _______ _____ _____    ______ ____
ROOT
ATOM      6  N   UNL     1      -3.947 -12.429  13.178  0.00  0.00    -0.298 NA
ATOM      9  C   UNL     1      -1.960 -11.481  14.564  0.00  0.00    -0.003 C 
ATOM     10  C   UNL     1      -3.161 -11.811  15.477  0.00  0.00    +0.020 C 
ATOM     11  C   UNL     1      -3.482 -11.143  12.590  0.00  0.00    +0.072 C 
ATOM     12  C   UNL     1      -2.404 -10.484  13.478  0.00  0.00    +0.024 C 
ATOM     13  C   UNL     1      -4.355 -12.230  14.590  0.00  0.00    +0.089 C 
ATOM     14  C   UNL     1      -1.568 -12.788  13.849  0.00  0.00    +0.019 C 
ATOM     15  C   UNL     1      -2.809 -13.378  13.156  0.00  0.00    +0.085 C 
ENDROOT
BRANCH  10  16
ATOM     16  C   UNL     1      -3.534 -10.668  16.419  0.00  0.00    +0.089 C 
BRANCH  16   7
ATOM      3  O   UNL     1      -7.282  -9.674  18.025  0.00  0.00    -0.377 OA
ATOM      7  N   UNL     1      -4.953 -10.716  16.762  0.00  0.00    -0.298 NA
ATOM     18  C   UNL     1      -5.660  -9.545  16.226  0.00  0.00    +0.112 C 
ATOM     19  C   UNL     1      -5.137 -10.791  18.218  0.00  0.00    +0.112 C 
ATOM     20  C   UNL     1      -7.136  -9.610  16.607  0.00  0.00    +0.175 C 
ATOM     21  C   UNL     1      -6.626 -10.829  18.551  0.00  0.00    +0.175 C 
ENDBRANCH  16   7
ENDBRANCH  10  16
BRANCH  11  17
ATOM     17  C   UNL     1      -4.639 -10.185  12.296  0.00  0.00    +0.124 C 
BRANCH  17   8
ATOM      8  N   UNL     1      -5.117 -10.357  10.933  0.00  0.00    -0.188 NA
ATOM     26  H   UNL     1      -5.184 -11.338  10.633  0.00  0.00    +0.148 HD
BRANCH   8   1
ATOM      1  S   UNL     1      -4.623  -9.285   9.692  0.00  0.00    +0.065 S 
ATOM      4  O   UNL     1      -3.193  -9.071   9.795  0.00  0.00    -0.153 OA
ATOM      5  O   UNL     1      -5.527  -8.153   9.637  0.00  0.00    -0.153 OA
BRANCH   1  22
ATOM      2  S   UNL     1      -4.518 -11.914   8.399  0.00  0.00    -0.077 S 
ATOM     22  C   UNL     1      -4.925 -10.258   8.246  0.00  0.00    +0.142 A 
ATOM     23  C   UNL     1      -5.428  -9.961   6.999  0.00  0.00    +0.036 A 
ATOM     24  C   UNL     1      -5.480 -11.110   6.157  0.00  0.00    +0.010 A 
ATOM     25  C   UNL     1      -5.016 -12.240   6.792  0.00  0.00    +0.047 A 
ENDBRANCH   1  22
ENDBRANCH   8   1
ENDBRANCH  17   8
ENDBRANCH  11  17
TORSDOF 6
ENDMDL
MODEL 9
REMARK VINA RESULT:      -5.2     28.230     29.814
REMARK  Name = 28991037
REMARK  6 active torsions:
REMARK  status: ('A' for Active; 'I' for Inactive)
REMARK    1  A    between atoms: S_1  and  N_8
REMARK    2  A    between atoms: S_1  and  C_22
REMARK    3  A    between atoms: N_7  and  C_16
REMARK    4  A    between atoms: N_8  and  C_17
REMARK    5  A    between atoms: C_10  and  C_16
REMARK    6  A    between atoms: C_11  and  C_17
REMARK                            x       y       z     vdW  Elec       q    Type
REMARK                         _______ _______ _______ _____ _____    ______ ____
ROOT
ATOM      6  N   UNL     1      -6.937 -10.690  17.127  0.00  0.00    -0.298 NA
ATOM      9  C   UNL     1      -4.469 -11.408  17.535  0.00  0.00    -0.003 C 
ATOM     10  C   UNL     1      -5.220 -12.466  16.694  0.00  0.00    +0.020 C 
ATOM     11  C   UNL     1      -6.622 -10.630  18.580  0.00  0.00    +0.072 C 
ATOM     12  C   UNL     1      -5.213 -11.194  18.866  0.00  0.00    +0.024 C 
ATOM     13  C   UNL     1      -6.708 -12.061  16.608  0.00  0.00    +0.089 C 
ATOM     14  C   UNL     1      -4.543 -10.082  16.754  0.00  0.00    +0.019 C 
ATOM     15  C   UNL     1      -6.013  -9.770  16.421  0.00  0.00    +0.085 C 
ENDROOT
BRANCH  10  16
ATOM     16  C   UNL     1      -5.054 -13.887  17.228  0.00  0.00    +0.089 C 
BRANCH  16   7
ATOM      3  O   UNL     1      -3.208 -16.414  14.431  0.00  0.00    -0.377 OA
ATOM      7  N   UNL     1      -4.854 -14.835  16.134  0.00  0.00    -0.298 NA
ATOM     18  C   UNL     1      -4.201 -16.060  16.616  0.00  0.00    +0.112 C 
ATOM     19  C   UNL     1      -4.057 -14.229  15.058  0.00  0.00    +0.112 C 
ATOM     20  C   UNL     1      -3.991 -17.027  15.455  0.00  0.00    +0.175 C 
ATOM     21  C   UNL     1      -3.852 -15.241  13.933  0.00  0.00    +0.175 C 
ENDBRANCH  16   7
ENDBRANCH  10  16
BRANCH  11  17
ATOM     17  C   UNL     1      -7.691 -11.313  19.436  0.00  0.00    +0.124 C 
BRANCH  17   8
ATOM      8  N   UNL     1      -8.753 -10.379  19.775  0.00  0.00    -0.188 NA
ATOM     26  H   UNL     1      -8.717 -10.037  20.743  0.00  0.00    +0.148 HD
BRANCH   8   1
ATOM      1  S   UNL     1     -10.343 -10.610  19.180  0.00  0.00    +0.065 S 
ATOM      4  O   UNL     1     -11.287 -10.378  20.256  0.00  0.00    -0.153 OA
ATOM      5  O   UNL     1     -10.401 -11.838  18.411  0.00  0.00    -0.153 OA
BRANCH   1  22
ATOM      2  S   UNL     1     -12.060  -9.038  17.399  0.00  0.00    -0.077 S 
ATOM     22  C   UNL     1     -10.486  -9.274  18.031  0.00  0.00    +0.142 A 
ATOM     23  C   UNL     1      -9.584  -8.364  17.526  0.00  0.00    +0.036 A 
ATOM     24  C   UNL     1     -10.193  -7.461  16.607  0.00  0.00    +0.010 A 
ATOM     25  C   UNL     1     -11.537  -7.715  16.445  0.00  0.00    +0.047 A 
ENDBRANCH   1  22
ENDBRANCH   8   1
ENDBRANCH  17   8
ENDBRANCH  11  17
TORSDOF 6
ENDMDL
MODEL 10
REMARK VINA RESULT:      -5.2     13.482     15.605
REMARK  Name = 28991037
REMARK  6 active torsions:
REMARK  status: ('A' for Active; 'I' for Inactive)
REMARK    1  A    between atoms: S_1  and  N_8
REMARK    2  A    between atoms: S_1  and  C_22
REMARK    3  A    between atoms: N_7  and  C_16
REMARK    4  A    between atoms: N_8  and  C_17
REMARK    5  A    between atoms: C_10  and  C_16
REMARK    6  A    between atoms: C_11  and  C_17
REMARK                            x       y       z     vdW  Elec       q    Type
REMARK                         _______ _______ _______ _____ _____    ______ ____
ROOT
ATOM      6  N   UNL     1      16.381  -1.975  24.382  0.00  0.00    -0.298 NA
ATOM      9  C   UNL     1      18.333  -3.051  23.040  0.00  0.00    -0.003 C 
ATOM     10  C   UNL     1      17.181  -4.060  23.243  0.00  0.00    +0.020 C 
ATOM     11  C   UNL     1      17.665  -1.788  25.111  0.00  0.00    +0.072 C 
ATOM     12  C   UNL     1      18.816  -2.545  24.413  0.00  0.00    +0.024 C 
ATOM     13  C   UNL     1      16.120  -3.419  24.165  0.00  0.00    +0.089 C 
ATOM     14  C   UNL     1      17.742  -1.841  22.292  0.00  0.00    +0.019 C 
ATOM     15  C   UNL     1      16.510  -1.324  23.056  0.00  0.00    +0.085 C 
ENDROOT
BRANCH  10  16
ATOM     16  C   UNL     1      17.650  -5.411  23.781  0.00  0.00    +0.089 C 
BRANCH  16   7
ATOM      3  O   UNL     1      20.816  -7.711  22.264  0.00  0.00    -0.377 OA
ATOM      7  N   UNL     1      18.933  -5.788  23.194  0.00  0.00    -0.298 NA
ATOM     18  C   UNL     1      18.738  -6.505  21.926  0.00  0.00    +0.112 C 
ATOM     19  C   UNL     1      19.710  -6.618  24.126  0.00  0.00    +0.112 C 
ATOM     20  C   UNL     1      20.089  -6.901  21.340  0.00  0.00    +0.175 C 
ATOM     21  C   UNL     1      21.040  -7.009  23.487  0.00  0.00    +0.175 C 
ENDBRANCH  16   7
ENDBRANCH  10  16
BRANCH  11  17
ATOM     17  C   UNL     1      17.555  -2.162  26.591  0.00  0.00    +0.124 C 
BRANCH  17   8
ATOM      8  N   UNL     1      18.532  -3.181  26.939  0.00  0.00    -0.188 NA
ATOM     26  H   UNL     1      18.880  -3.719  26.136  0.00  0.00    +0.148 HD
BRANCH   8   1
ATOM      1  S   UNL     1      18.360  -4.105  28.371  0.00  0.00    +0.065 S 
ATOM      4  O   UNL     1      19.668  -4.562  28.797  0.00  0.00    -0.153 OA
ATOM      5  O   UNL     1      17.273  -5.051  28.212  0.00  0.00    -0.153 OA
BRANCH   1  22
ATOM      2  S   UNL     1      19.029  -1.792  30.044  0.00  0.00    -0.077 S 
ATOM     22  C   UNL     1      17.812  -2.877  29.519  0.00  0.00    +0.142 A 
ATOM     23  C   UNL     1      16.590  -2.601  30.092  0.00  0.00    +0.036 A 
ATOM     24  C   UNL     1      16.655  -1.483  30.975  0.00  0.00    +0.010 A 
ATOM     25  C   UNL     1      17.922  -0.948  31.042  0.00  0.00    +0.047 A 
ENDBRANCH   1  22
ENDBRANCH   8   1
ENDBRANCH  17   8
ENDBRANCH  11  17
TORSDOF 6
ENDMDL
