MODEL 1
REMARK VINA RESULT:      -7.3      0.000      0.000
REMARK  Name = 45784187
REMARK  4 active torsions:
REMARK  status: ('A' for Active; 'I' for Inactive)
REMARK    1  A    between atoms: N_4  and  C_10
REMARK    2  A    between atoms: C_6  and  C_11
REMARK    3  A    between atoms: C_10  and  C_12
REMARK    4  A    between atoms: C_19  and  C_24
REMARK                            x       y       z     vdW  Elec       q    Type
REMARK                         _______ _______ _______ _____ _____    ______ ____
ROOT
ATOM      4  N   UNL     1      11.708   9.668  21.477  0.00  0.00    -0.297 NA
ATOM      6  C   UNL     1      13.552   9.105  20.142  0.00  0.00    +0.090 C 
ATOM      7  C   UNL     1      12.326   8.286  19.700  0.00  0.00    +0.029 C 
ATOM      8  C   UNL     1      13.171   9.658  21.522  0.00  0.00    +0.097 C 
ATOM      9  C   UNL     1      11.340   8.396  20.856  0.00  0.00    +0.085 C 
ENDROOT
BRANCH   6  11
ATOM      3  O   UNL     1      14.972   7.351  19.224  0.00  0.00    -0.439 OA
ATOM      5  N   UNL     1      15.896   8.509  20.940  0.00  0.00    -0.213 NA
ATOM     11  C   UNL     1      14.856   8.342  20.151  0.00  0.00    +0.201 A 
ATOM     13  C   UNL     1      16.779   7.552  20.504  0.00  0.00    +0.110 A 
ATOM     14  C   UNL     1      16.218   6.840  19.454  0.00  0.00    +0.155 A 
ATOM     17  C   UNL     1      18.070   7.216  20.936  0.00  0.00    +0.035 A 
ATOM     18  C   UNL     1      16.843   5.800  18.778  0.00  0.00    +0.049 A 
ATOM     19  C   UNL     1      18.733   6.169  20.279  0.00  0.00    -0.048 A 
ATOM     20  C   UNL     1      18.130   5.477  19.222  0.00  0.00    +0.007 A 
ATOM     24  C   UNL     1      20.109   5.787  20.716  0.00  0.00    +0.044 C 
ENDBRANCH   6  11
BRANCH   4  10
ATOM     10  C   UNL     1      11.113   9.833  22.795  0.00  0.00    +0.119 C 
BRANCH  10  12
ATOM      1  F   UNL     1      10.353  13.371  26.071  0.00  0.00    -0.202 F 
ATOM      2  F   UNL     1      10.373  15.265  24.100  0.00  0.00    -0.202 F 
ATOM     12  C   UNL     1      10.915  11.285  23.143  0.00  0.00    -0.030 A 
ATOM     15  C   UNL     1      10.722  11.663  24.471  0.00  0.00    +0.046 A 
ATOM     16  C   UNL     1      10.927  12.252  22.137  0.00  0.00    +0.008 A 
ATOM     21  C   UNL     1      10.538  13.008  24.795  0.00  0.00    +0.159 A 
ATOM     22  C   UNL     1      10.743  13.597  22.461  0.00  0.00    +0.041 A 
ATOM     23  C   UNL     1      10.549  13.975  23.789  0.00  0.00    +0.158 A 
ENDBRANCH  10  12
ENDBRANCH   4  10
TORSDOF 3
ENDMDL
MODEL 2
REMARK VINA RESULT:      -7.2      4.198      6.031
REMARK  Name = 45784187
REMARK  4 active torsions:
REMARK  status: ('A' for Active; 'I' for Inactive)
REMARK    1  A    between atoms: N_4  and  C_10
REMARK    2  A    between atoms: C_6  and  C_11
REMARK    3  A    between atoms: C_10  and  C_12
REMARK    4  A    between atoms: C_19  and  C_24
REMARK                            x       y       z     vdW  Elec       q    Type
REMARK                         _______ _______ _______ _____ _____    ______ ____
ROOT
ATOM      4  N   UNL     1      16.526   7.565  20.666  0.00  0.00    -0.297 NA
ATOM      6  C   UNL     1      18.657   6.718  20.173  0.00  0.00    +0.090 C 
ATOM      7  C   UNL     1      17.605   5.999  19.310  0.00  0.00    +0.029 C 
ATOM      8  C   UNL     1      17.846   7.408  21.278  0.00  0.00    +0.097 C 
ATOM      9  C   UNL     1      16.272   6.294  19.987  0.00  0.00    +0.085 C 
ENDROOT
BRANCH   6  11
ATOM      3  O   UNL     1      20.340   6.242  21.869  0.00  0.00    -0.439 OA
ATOM      5  N   UNL     1      20.214   4.703  20.210  0.00  0.00    -0.213 NA
ATOM     11  C   UNL     1      19.753   5.828  20.712  0.00  0.00    +0.201 A 
ATOM     13  C   UNL     1      21.189   4.335  21.103  0.00  0.00    +0.110 A 
ATOM     14  C   UNL     1      21.270   5.274  22.121  0.00  0.00    +0.155 A 
ATOM     17  C   UNL     1      22.051   3.229  21.133  0.00  0.00    +0.035 A 
ATOM     18  C   UNL     1      22.153   5.208  23.193  0.00  0.00    +0.049 A 
ATOM     19  C   UNL     1      22.958   3.128  22.199  0.00  0.00    -0.048 A 
ATOM     20  C   UNL     1      23.006   4.099  23.207  0.00  0.00    +0.007 A 
ATOM     24  C   UNL     1      23.889   1.962  22.258  0.00  0.00    +0.044 C 
ENDBRANCH   6  11
BRANCH   4  10
ATOM     10  C   UNL     1      15.496   7.887  21.642  0.00  0.00    +0.119 C 
BRANCH  10  12
ATOM      1  F   UNL     1      10.777   6.729  21.185  0.00  0.00    -0.202 F 
ATOM      2  F   UNL     1      10.459   8.602  19.219  0.00  0.00    -0.202 F 
ATOM     12  C   UNL     1      14.150   8.078  20.993  0.00  0.00    -0.030 A 
ATOM     15  C   UNL     1      13.066   7.300  21.397  0.00  0.00    +0.046 A 
ATOM     16  C   UNL     1      13.988   9.035  19.991  0.00  0.00    +0.008 A 
ATOM     21  C   UNL     1      11.818   7.476  20.797  0.00  0.00    +0.159 A 
ATOM     22  C   UNL     1      12.741   9.211  19.391  0.00  0.00    +0.041 A 
ATOM     23  C   UNL     1      11.656   8.432  19.794  0.00  0.00    +0.158 A 
ENDBRANCH  10  12
ENDBRANCH   4  10
TORSDOF 3
ENDMDL
MODEL 3
REMARK VINA RESULT:      -7.1     27.606     29.795
REMARK  Name = 45784187
REMARK  4 active torsions:
REMARK  status: ('A' for Active; 'I' for Inactive)
REMARK    1  A    between atoms: N_4  and  C_10
REMARK    2  A    between atoms: C_6  and  C_11
REMARK    3  A    between atoms: C_10  and  C_12
REMARK    4  A    between atoms: C_19  and  C_24
REMARK                            x       y       z     vdW  Elec       q    Type
REMARK                         _______ _______ _______ _____ _____    ______ ____
ROOT
ATOM      4  N   UNL     1      -4.017 -10.844  14.733  0.00  0.00    -0.297 NA
ATOM      6  C   UNL     1      -5.349  -9.808  16.362  0.00  0.00    +0.090 C 
ATOM      7  C   UNL     1      -4.253 -10.643  17.048  0.00  0.00    +0.029 C 
ATOM      8  C   UNL     1      -5.368 -10.310  14.912  0.00  0.00    +0.097 C 
ATOM      9  C   UNL     1      -3.738 -11.583  15.965  0.00  0.00    +0.085 C 
ENDROOT
BRANCH   6  11
ATOM      3  O   UNL     1      -6.810 -10.724  18.084  0.00  0.00    -0.439 OA
ATOM      5  N   UNL     1      -7.799  -9.211  16.716  0.00  0.00    -0.213 NA
ATOM     11  C   UNL     1      -6.705  -9.872  17.026  0.00  0.00    +0.201 A 
ATOM     13  C   UNL     1      -8.711  -9.657  17.641  0.00  0.00    +0.110 A 
ATOM     14  C   UNL     1      -8.110 -10.584  18.481  0.00  0.00    +0.155 A 
ATOM     17  C   UNL     1     -10.060  -9.336  17.845  0.00  0.00    +0.035 A 
ATOM     18  C   UNL     1      -8.748 -11.234  19.530  0.00  0.00    +0.049 A 
ATOM     19  C   UNL     1     -10.739  -9.972  18.894  0.00  0.00    -0.048 A 
ATOM     20  C   UNL     1     -10.094 -10.902  19.719  0.00  0.00    +0.007 A 
ATOM     24  C   UNL     1     -12.177  -9.651  19.136  0.00  0.00    +0.044 C 
ENDBRANCH   6  11
BRANCH   4  10
ATOM     10  C   UNL     1      -3.903 -11.680  13.548  0.00  0.00    +0.119 C 
BRANCH  10  12
ATOM      1  F   UNL     1      -1.371  -8.882  10.452  0.00  0.00    -0.202 F 
ATOM      2  F   UNL     1      -3.561  -8.607   8.837  0.00  0.00    -0.202 F 
ATOM     12  C   UNL     1      -3.812 -10.858  12.289  0.00  0.00    -0.030 A 
ATOM     15  C   UNL     1      -2.611 -10.238  11.947  0.00  0.00    +0.046 A 
ATOM     16  C   UNL     1      -4.929 -10.719  11.464  0.00  0.00    +0.008 A 
ATOM     21  C   UNL     1      -2.525  -9.477  10.781  0.00  0.00    +0.159 A 
ATOM     22  C   UNL     1      -4.843  -9.958  10.298  0.00  0.00    +0.041 A 
ATOM     23  C   UNL     1      -3.642  -9.337   9.956  0.00  0.00    +0.158 A 
ENDBRANCH  10  12
ENDBRANCH   4  10
TORSDOF 3
ENDMDL
MODEL 4
REMARK VINA RESULT:      -7.0     27.194     29.335
REMARK  Name = 45784187
REMARK  4 active torsions:
REMARK  status: ('A' for Active; 'I' for Inactive)
REMARK    1  A    between atoms: N_4  and  C_10
REMARK    2  A    between atoms: C_6  and  C_11
REMARK    3  A    between atoms: C_10  and  C_12
REMARK    4  A    between atoms: C_19  and  C_24
REMARK                            x       y       z     vdW  Elec       q    Type
REMARK                         _______ _______ _______ _____ _____    ______ ____
ROOT
ATOM      4  N   UNL     1      -2.175 -11.108  13.560  0.00  0.00    -0.297 NA
ATOM      6  C   UNL     1      -3.217 -10.233  15.471  0.00  0.00    +0.090 C 
ATOM      7  C   UNL     1      -1.907 -10.935  15.873  0.00  0.00    +0.029 C 
ATOM      8  C   UNL     1      -3.503 -10.735  14.049  0.00  0.00    +0.097 C 
ATOM      9  C   UNL     1      -1.544 -11.809  14.679  0.00  0.00    +0.085 C 
ENDROOT
BRANCH   6  11
ATOM      3  O   UNL     1      -4.079 -11.123  17.569  0.00  0.00    -0.439 OA
ATOM      5  N   UNL     1      -5.627 -10.085  16.278  0.00  0.00    -0.213 NA
ATOM     11  C   UNL     1      -4.372 -10.455  16.418  0.00  0.00    +0.201 A 
ATOM     13  C   UNL     1      -6.222 -10.544  17.428  0.00  0.00    +0.110 A 
ATOM     14  C   UNL     1      -5.278 -11.180  18.221  0.00  0.00    +0.155 A 
ATOM     17  C   UNL     1      -7.547 -10.468  17.881  0.00  0.00    +0.035 A 
ATOM     18  C   UNL     1      -5.542 -11.760  19.456  0.00  0.00    +0.049 A 
ATOM     19  C   UNL     1      -7.852 -11.043  19.124  0.00  0.00    -0.048 A 
ATOM     20  C   UNL     1      -6.868 -11.675  19.894  0.00  0.00    +0.007 A 
ATOM     24  C   UNL     1      -9.254 -10.979  19.634  0.00  0.00    +0.044 C 
ENDBRANCH   6  11
BRANCH   4  10
ATOM     10  C   UNL     1      -2.235 -11.926  12.358  0.00  0.00    +0.119 C 
BRANCH  10  12
ATOM      1  F   UNL     1      -5.285 -11.869   8.548  0.00  0.00    -0.202 F 
ATOM      2  F   UNL     1      -4.753  -9.224   8.103  0.00  0.00    -0.202 F 
ATOM     12  C   UNL     1      -2.908 -11.204  11.221  0.00  0.00    -0.030 A 
ATOM     15  C   UNL     1      -3.802 -11.884  10.395  0.00  0.00    +0.046 A 
ATOM     16  C   UNL     1      -2.637  -9.854  10.995  0.00  0.00    +0.008 A 
ATOM     21  C   UNL     1      -4.426 -11.216   9.341  0.00  0.00    +0.159 A 
ATOM     22  C   UNL     1      -3.261  -9.185   9.941  0.00  0.00    +0.041 A 
ATOM     23  C   UNL     1      -4.155  -9.866   9.114  0.00  0.00    +0.158 A 
ENDBRANCH  10  12
ENDBRANCH   4  10
TORSDOF 3
ENDMDL
MODEL 5
REMARK VINA RESULT:      -6.9     27.391     30.132
REMARK  Name = 45784187
REMARK  4 active torsions:
REMARK  status: ('A' for Active; 'I' for Inactive)
REMARK    1  A    between atoms: N_4  and  C_10
REMARK    2  A    between atoms: C_6  and  C_11
REMARK    3  A    between atoms: C_10  and  C_12
REMARK    4  A    between atoms: C_19  and  C_24
REMARK                            x       y       z     vdW  Elec       q    Type
REMARK                         _______ _______ _______ _____ _____    ______ ____
ROOT
ATOM      4  N   UNL     1      -4.611 -11.864  17.021  0.00  0.00    -0.297 NA
ATOM      6  C   UNL     1      -6.132 -10.682  18.359  0.00  0.00    +0.090 C 
ATOM      7  C   UNL     1      -5.393 -11.725  19.217  0.00  0.00    +0.029 C 
ATOM      8  C   UNL     1      -5.860 -11.110  16.910  0.00  0.00    +0.097 C 
ATOM      9  C   UNL     1      -4.775 -12.693  18.215  0.00  0.00    +0.085 C 
ENDROOT
BRANCH   6  11
ATOM      3  O   UNL     1      -8.334  -9.830  17.756  0.00  0.00    -0.439 OA
ATOM      5  N   UNL     1      -8.276 -11.004  19.695  0.00  0.00    -0.213 NA
ATOM     11  C   UNL     1      -7.604 -10.536  18.664  0.00  0.00    +0.201 A 
ATOM     13  C   UNL     1      -9.559 -10.575  19.457  0.00  0.00    +0.110 A 
ATOM     14  C   UNL     1      -9.599  -9.856  18.271  0.00  0.00    +0.155 A 
ATOM     17  C   UNL     1     -10.744 -10.746  20.185  0.00  0.00    +0.035 A 
ATOM     18  C   UNL     1     -10.742  -9.279  17.732  0.00  0.00    +0.049 A 
ATOM     19  C   UNL     1     -11.920 -10.177  19.674  0.00  0.00    -0.048 A 
ATOM     20  C   UNL     1     -11.917  -9.459  18.471  0.00  0.00    +0.007 A 
ATOM     24  C   UNL     1     -13.199 -10.342  20.426  0.00  0.00    +0.044 C 
ENDBRANCH   6  11
BRANCH   4  10
ATOM     10  C   UNL     1      -4.332 -12.656  15.832  0.00  0.00    +0.119 C 
BRANCH  10  12
ATOM      1  F   UNL     1      -0.897  -9.370  14.726  0.00  0.00    -0.202 F 
ATOM      2  F   UNL     1      -1.308  -9.771  12.053  0.00  0.00    -0.202 F 
ATOM     12  C   UNL     1      -3.524 -11.885  14.821  0.00  0.00    -0.030 A 
ATOM     15  C   UNL     1      -2.566 -10.967  15.250  0.00  0.00    +0.046 A 
ATOM     16  C   UNL     1      -3.733 -12.091  13.457  0.00  0.00    +0.008 A 
ATOM     21  C   UNL     1      -1.817 -10.252  14.314  0.00  0.00    +0.159 A 
ATOM     22  C   UNL     1      -2.984 -11.376  12.522  0.00  0.00    +0.041 A 
ATOM     23  C   UNL     1      -2.026 -10.457  12.950  0.00  0.00    +0.158 A 
ENDBRANCH  10  12
ENDBRANCH   4  10
TORSDOF 3
ENDMDL
MODEL 6
REMARK VINA RESULT:      -6.9     26.013     28.793
REMARK  Name = 45784187
REMARK  4 active torsions:
REMARK  status: ('A' for Active; 'I' for Inactive)
REMARK    1  A    between atoms: N_4  and  C_10
REMARK    2  A    between atoms: C_6  and  C_11
REMARK    3  A    between atoms: C_10  and  C_12
REMARK    4  A    between atoms: C_19  and  C_24
REMARK                            x       y       z     vdW  Elec       q    Type
REMARK                         _______ _______ _______ _____ _____    ______ ____
ROOT
ATOM      4  N   UNL     1     -13.480   7.105  20.980  0.00  0.00    -0.297 NA
ATOM      6  C   UNL     1     -15.021   5.450  21.602  0.00  0.00    +0.090 C 
ATOM      7  C   UNL     1     -15.749   6.797  21.439  0.00  0.00    +0.029 C 
ATOM      8  C   UNL     1     -13.534   5.821  21.680  0.00  0.00    +0.097 C 
ATOM      9  C   UNL     1     -14.645   7.847  21.463  0.00  0.00    +0.085 C 
ENDROOT
BRANCH   6  11
ATOM      3  O   UNL     1     -16.379   3.631  22.488  0.00  0.00    -0.439 OA
ATOM      5  N   UNL     1     -15.133   4.718  24.039  0.00  0.00    -0.213 NA
ATOM     11  C   UNL     1     -15.483   4.616  22.775  0.00  0.00    +0.201 A 
ATOM     13  C   UNL     1     -15.853   3.719  24.647  0.00  0.00    +0.110 A 
ATOM     14  C   UNL     1     -16.618   3.051  23.702  0.00  0.00    +0.155 A 
ATOM     17  C   UNL     1     -15.921   3.308  25.986  0.00  0.00    +0.035 A 
ATOM     18  C   UNL     1     -17.464   1.984  23.977  0.00  0.00    +0.049 A 
ATOM     19  C   UNL     1     -16.766   2.234  26.304  0.00  0.00    -0.048 A 
ATOM     20  C   UNL     1     -17.521   1.587  25.317  0.00  0.00    +0.007 A 
ATOM     24  C   UNL     1     -16.861   1.774  27.721  0.00  0.00    +0.044 C 
ENDBRANCH   6  11
BRANCH   4  10
ATOM     10  C   UNL     1     -12.234   7.816  21.219  0.00  0.00    +0.119 C 
BRANCH  10  12
ATOM      1  F   UNL     1      -9.934  11.167  18.515  0.00  0.00    -0.202 F 
ATOM      2  F   UNL     1      -9.782   9.430  16.409  0.00  0.00    -0.202 F 
ATOM     12  C   UNL     1     -11.578   8.247  19.933  0.00  0.00    -0.030 A 
ATOM     15  C   UNL     1     -11.049   9.532  19.817  0.00  0.00    +0.046 A 
ATOM     16  C   UNL     1     -11.500   7.360  18.858  0.00  0.00    +0.008 A 
ATOM     21  C   UNL     1     -10.442   9.932  18.627  0.00  0.00    +0.159 A 
ATOM     22  C   UNL     1     -10.893   7.761  17.668  0.00  0.00    +0.041 A 
ATOM     23  C   UNL     1     -10.364   9.046  17.552  0.00  0.00    +0.158 A 
ENDBRANCH  10  12
ENDBRANCH   4  10
TORSDOF 3
ENDMDL
MODEL 7
REMARK VINA RESULT:      -6.8     27.070     29.793
REMARK  Name = 45784187
REMARK  4 active torsions:
REMARK  status: ('A' for Active; 'I' for Inactive)
REMARK    1  A    between atoms: N_4  and  C_10
REMARK    2  A    between atoms: C_6  and  C_11
REMARK    3  A    between atoms: C_10  and  C_12
REMARK    4  A    between atoms: C_19  and  C_24
REMARK                            x       y       z     vdW  Elec       q    Type
REMARK                         _______ _______ _______ _____ _____    ______ ____
ROOT
ATOM      4  N   UNL     1      -4.628 -10.564  14.887  0.00  0.00    -0.297 NA
ATOM      6  C   UNL     1      -5.889  -9.747  16.688  0.00  0.00    +0.090 C 
ATOM      7  C   UNL     1      -4.848 -10.757  17.204  0.00  0.00    +0.029 C 
ATOM      8  C   UNL     1      -5.941  -9.985  15.173  0.00  0.00    +0.097 C 
ATOM      9  C   UNL     1      -4.396 -11.523  15.967  0.00  0.00    +0.085 C 
ENDROOT
BRANCH   6  11
ATOM      3  O   UNL     1      -7.364 -10.772  18.334  0.00  0.00    -0.439 OA
ATOM      5  N   UNL     1      -8.328  -9.138  17.093  0.00  0.00    -0.213 NA
ATOM     11  C   UNL     1      -7.245  -9.840  17.347  0.00  0.00    +0.201 A 
ATOM     13  C   UNL     1      -9.247  -9.640  17.982  0.00  0.00    +0.110 A 
ATOM     14  C   UNL     1      -8.661 -10.642  18.744  0.00  0.00    +0.155 A 
ATOM     17  C   UNL     1     -10.590  -9.313  18.213  0.00  0.00    +0.035 A 
ATOM     18  C   UNL     1      -9.309 -11.361  19.739  0.00  0.00    +0.049 A 
ATOM     19  C   UNL     1     -11.279 -10.019  19.209  0.00  0.00    -0.048 A 
ATOM     20  C   UNL     1     -10.649 -11.022  19.956  0.00  0.00    +0.007 A 
ATOM     24  C   UNL     1     -12.711  -9.693  19.478  0.00  0.00    +0.044 C 
ENDBRANCH   6  11
BRANCH   4  10
ATOM     10  C   UNL     1      -4.569 -11.185  13.573  0.00  0.00    +0.119 C 
BRANCH  10  12
ATOM      1  F   UNL     1      -3.276  -8.945   9.433  0.00  0.00    -0.202 F 
ATOM      2  F   UNL     1      -0.683  -8.770  10.283  0.00  0.00    -0.202 F 
ATOM     12  C   UNL     1      -3.530 -10.540  12.694  0.00  0.00    -0.030 A 
ATOM     15  C   UNL     1      -3.891 -10.032  11.446  0.00  0.00    +0.046 A 
ATOM     16  C   UNL     1      -2.207 -10.450  13.128  0.00  0.00    +0.008 A 
ATOM     21  C   UNL     1      -2.929  -9.434  10.631  0.00  0.00    +0.159 A 
ATOM     22  C   UNL     1      -1.245  -9.852  12.313  0.00  0.00    +0.041 A 
ATOM     23  C   UNL     1      -1.606  -9.344  11.065  0.00  0.00    +0.158 A 
ENDBRANCH  10  12
ENDBRANCH   4  10
TORSDOF 3
ENDMDL
MODEL 8
REMARK VINA RESULT:      -6.7      2.278      3.931
REMARK  Name = 45784187
REMARK  4 active torsions:
REMARK  status: ('A' for Active; 'I' for Inactive)
REMARK    1  A    between atoms: N_4  and  C_10
REMARK    2  A    between atoms: C_6  and  C_11
REMARK    3  A    between atoms: C_10  and  C_12
REMARK    4  A    between atoms: C_19  and  C_24
REMARK                            x       y       z     vdW  Elec       q    Type
REMARK                         _______ _______ _______ _____ _____    ______ ____
ROOT
ATOM      4  N   UNL     1      14.631   7.861  20.785  0.00  0.00    -0.297 NA
ATOM      6  C   UNL     1      16.921   7.632  20.331  0.00  0.00    +0.090 C 
ATOM      7  C   UNL     1      16.111   6.770  19.346  0.00  0.00    +0.029 C 
ATOM      8  C   UNL     1      15.929   7.973  21.452  0.00  0.00    +0.097 C 
ATOM      9  C   UNL     1      14.728   6.648  19.973  0.00  0.00    +0.085 C 
ENDROOT
BRANCH   6  11
ATOM      3  O   UNL     1      18.697   5.983  20.078  0.00  0.00    -0.439 OA
ATOM      5  N   UNL     1      18.871   7.278  21.930  0.00  0.00    -0.213 NA
ATOM     11  C   UNL     1      18.190   6.991  20.842  0.00  0.00    +0.201 A 
ATOM     13  C   UNL     1      19.919   6.391  21.891  0.00  0.00    +0.110 A 
ATOM     14  C   UNL     1      19.816   5.596  20.758  0.00  0.00    +0.155 A 
ATOM     17  C   UNL     1      20.997   6.188  22.764  0.00  0.00    +0.035 A 
ATOM     18  C   UNL     1      20.713   4.594  20.410  0.00  0.00    +0.049 A 
ATOM     19  C   UNL     1      21.923   5.184  22.447  0.00  0.00    -0.048 A 
ATOM     20  C   UNL     1      21.782   4.404  21.293  0.00  0.00    +0.007 A 
ATOM     24  C   UNL     1      23.081   4.944  23.358  0.00  0.00    +0.044 C 
ENDBRANCH   6  11
BRANCH   4  10
ATOM     10  C   UNL     1      13.525   7.808  21.728  0.00  0.00    +0.119 C 
BRANCH  10  12
ATOM      1  F   UNL     1      12.729  12.343  20.107  0.00  0.00    -0.202 F 
ATOM      2  F   UNL     1      10.587  12.616  21.783  0.00  0.00    -0.202 F 
ATOM     12  C   UNL     1      12.739   9.093  21.744  0.00  0.00    -0.030 A 
ATOM     15  C   UNL     1      13.105  10.143  20.902  0.00  0.00    +0.046 A 
ATOM     16  C   UNL     1      11.645   9.232  22.598  0.00  0.00    +0.008 A 
ATOM     21  C   UNL     1      12.378  11.334  20.915  0.00  0.00    +0.159 A 
ATOM     22  C   UNL     1      10.918  10.423  22.611  0.00  0.00    +0.041 A 
ATOM     23  C   UNL     1      11.284  11.474  21.770  0.00  0.00    +0.158 A 
ENDBRANCH  10  12
ENDBRANCH   4  10
TORSDOF 3
ENDMDL
MODEL 9
REMARK VINA RESULT:      -6.6     22.226     25.150
REMARK  Name = 45784187
REMARK  4 active torsions:
REMARK  status: ('A' for Active; 'I' for Inactive)
REMARK    1  A    between atoms: N_4  and  C_10
REMARK    2  A    between atoms: C_6  and  C_11
REMARK    3  A    between atoms: C_10  and  C_12
REMARK    4  A    between atoms: C_19  and  C_24
REMARK                            x       y       z     vdW  Elec       q    Type
REMARK                         _______ _______ _______ _____ _____    ______ ____
ROOT
ATOM      4  N   UNL     1      -9.766  11.261  16.679  0.00  0.00    -0.297 NA
ATOM      6  C   UNL     1     -10.154   9.193  17.714  0.00  0.00    +0.090 C 
ATOM      7  C   UNL     1     -10.481   9.088  16.214  0.00  0.00    +0.029 C 
ATOM      8  C   UNL     1     -10.090  10.701  17.992  0.00  0.00    +0.097 C 
ATOM      9  C   UNL     1     -10.612  10.529  15.737  0.00  0.00    +0.085 C 
ENDROOT
BRANCH   6  11
ATOM      3  O   UNL     1     -12.438   8.620  18.342  0.00  0.00    -0.439 OA
ATOM      5  N   UNL     1     -10.840   7.701  19.661  0.00  0.00    -0.213 NA
ATOM     11  C   UNL     1     -11.115   8.466  18.626  0.00  0.00    +0.201 A 
ATOM     13  C   UNL     1     -12.080   7.312  20.105  0.00  0.00    +0.110 A 
ATOM     14  C   UNL     1     -13.062   7.873  19.300  0.00  0.00    +0.155 A 
ATOM     17  C   UNL     1     -12.468   6.492  21.174  0.00  0.00    +0.035 A 
ATOM     18  C   UNL     1     -14.428   7.684  19.468  0.00  0.00    +0.049 A 
ATOM     19  C   UNL     1     -13.840   6.279  21.377  0.00  0.00    -0.048 A 
ATOM     20  C   UNL     1     -14.798   6.864  20.540  0.00  0.00    +0.007 A 
ATOM     24  C   UNL     1     -14.285   5.411  22.507  0.00  0.00    +0.044 C 
ENDBRANCH   6  11
BRANCH   4  10
ATOM     10  C   UNL     1      -9.986  12.698  16.619  0.00  0.00    +0.119 C 
BRANCH  10  12
ATOM      1  F   UNL     1      -5.266  13.301  15.531  0.00  0.00    -0.202 F 
ATOM      2  F   UNL     1      -5.161  15.578  17.041  0.00  0.00    -0.202 F 
ATOM     12  C   UNL     1      -8.696  13.468  16.732  0.00  0.00    -0.030 A 
ATOM     15  C   UNL     1      -7.556  13.020  16.067  0.00  0.00    +0.046 A 
ATOM     16  C   UNL     1      -8.643  14.631  17.502  0.00  0.00    +0.008 A 
ATOM     21  C   UNL     1      -6.361  13.732  16.171  0.00  0.00    +0.159 A 
ATOM     22  C   UNL     1      -7.448  15.343  17.606  0.00  0.00    +0.041 A 
ATOM     23  C   UNL     1      -6.307  14.894  16.941  0.00  0.00    +0.158 A 
ENDBRANCH  10  12
ENDBRANCH   4  10
TORSDOF 3
ENDMDL
MODEL 10
REMARK VINA RESULT:      -6.6     28.875     31.385
REMARK  Name = 45784187
REMARK  4 active torsions:
REMARK  status: ('A' for Active; 'I' for Inactive)
REMARK    1  A    between atoms: N_4  and  C_10
REMARK    2  A    between atoms: C_6  and  C_11
REMARK    3  A    between atoms: C_10  and  C_12
REMARK    4  A    between atoms: C_19  and  C_24
REMARK                            x       y       z     vdW  Elec       q    Type
REMARK                         _______ _______ _______ _____ _____    ______ ____
ROOT
ATOM      4  N   UNL     1     -10.283  -8.662  16.399  0.00  0.00    -0.297 NA
ATOM      6  C   UNL     1     -11.865  -6.959  16.081  0.00  0.00    +0.090 C 
ATOM      7  C   UNL     1     -12.588  -8.297  16.318  0.00  0.00    +0.029 C 
ATOM      8  C   UNL     1     -10.418  -7.354  15.756  0.00  0.00    +0.097 C 
ATOM      9  C   UNL     1     -11.527  -9.366  16.087  0.00  0.00    +0.085 C 
ENDROOT
BRANCH   6  11
ATOM      3  O   UNL     1     -11.617  -5.430  14.200  0.00  0.00    -0.439 OA
ATOM      5  N   UNL     1     -13.764  -5.858  14.790  0.00  0.00    -0.213 NA
ATOM     11  C   UNL     1     -12.488  -6.079  15.022  0.00  0.00    +0.201 A 
ATOM     13  C   UNL     1     -13.745  -4.990  13.726  0.00  0.00    +0.110 A 
ATOM     14  C   UNL     1     -12.433  -4.724  13.361  0.00  0.00    +0.155 A 
ATOM     17  C   UNL     1     -14.783  -4.378  13.009  0.00  0.00    +0.035 A 
ATOM     18  C   UNL     1     -12.053  -3.886  12.321  0.00  0.00    +0.049 A 
ATOM     19  C   UNL     1     -14.440  -3.523  11.952  0.00  0.00    -0.048 A 
ATOM     20  C   UNL     1     -13.101  -3.283  11.616  0.00  0.00    +0.007 A 
ATOM     24  C   UNL     1     -15.523  -2.856  11.169  0.00  0.00    +0.044 C 
ENDBRANCH   6  11
BRANCH   4  10
ATOM     10  C   UNL     1      -9.108  -9.387  15.944  0.00  0.00    +0.119 C 
BRANCH  10  12
ATOM      1  F   UNL     1      -4.789 -10.275  18.037  0.00  0.00    -0.202 F 
ATOM      2  F   UNL     1      -6.021 -11.302  20.252  0.00  0.00    -0.202 F 
ATOM     12  C   UNL     1      -8.283  -9.899  17.095  0.00  0.00    -0.030 A 
ATOM     15  C   UNL     1      -6.891  -9.849  17.032  0.00  0.00    +0.046 A 
ATOM     16  C   UNL     1      -8.912 -10.422  18.226  0.00  0.00    +0.008 A 
ATOM     21  C   UNL     1      -6.126 -10.323  18.098  0.00  0.00    +0.159 A 
ATOM     22  C   UNL     1      -8.147 -10.896  19.292  0.00  0.00    +0.041 A 
ATOM     23  C   UNL     1      -6.754 -10.847  19.229  0.00  0.00    +0.158 A 
ENDBRANCH  10  12
ENDBRANCH   4  10
TORSDOF 3
ENDMDL
