MODEL 1
REMARK VINA RESULT:      -5.8      0.000      0.000
REMARK  Name = 75367093
REMARK  11 active torsions:
REMARK  status: ('A' for Active; 'I' for Inactive)
REMARK    1  A    between atoms: S_1  and  N_7
REMARK    2  A    between atoms: S_1  and  C_18
REMARK    3  A    between atoms: O_3  and  C_9
REMARK    4  A    between atoms: N_6  and  C_8
REMARK    5  A    between atoms: N_6  and  C_13
REMARK    6  A    between atoms: N_7  and  C_14
REMARK    7  A    between atoms: C_10  and  C_14
REMARK    8  A    between atoms: C_12  and  C_13
REMARK    9  A    between atoms: C_12  and  C_15
REMARK   10  A    between atoms: C_12  and  C_16
REMARK   11  A    between atoms: C_12  and  C_17
REMARK                            x       y       z     vdW  Elec       q    Type
REMARK                         _______ _______ _______ _____ _____    ______ ____
ROOT
ATOM      2  O   UNL     1      11.306   8.797  20.233  0.00  0.00    -0.371 OA
ATOM      8  C   UNL     1      12.537   6.804  19.836  0.00  0.00    +0.111 C 
ATOM      9  C   UNL     1      12.036   6.800  21.268  0.00  0.00    +0.164 C 
ATOM     10  C   UNL     1      10.892   7.800  21.183  0.00  0.00    +0.164 C 
ATOM     11  C   UNL     1      12.416   8.276  19.479  0.00  0.00    +0.181 C 
ENDROOT
BRANCH   9   3
ATOM      3  O   UNL     1      11.592   5.524  21.688  0.00  0.00    -0.388 OA
ATOM     20  H   UNL     1      11.782   5.432  22.638  0.00  0.00    +0.210 HD
ENDBRANCH   9   3
BRANCH   8   6
ATOM      6  N   UNL     1      13.890   6.295  19.690  0.00  0.00    -0.308 NA
ATOM     19  H   UNL     1      14.278   6.631  18.808  0.00  0.00    +0.122 HD
BRANCH   6  13
ATOM     13  C   UNL     1      14.740   6.736  20.789  0.00  0.00    +0.087 C 
BRANCH  13  12
ATOM     12  C   UNL     1      16.199   7.052  20.374  0.00  0.00    -0.025 C 
ATOM     15  C   UNL     1      16.401   8.567  20.186  0.00  0.00    +0.012 C 
ATOM     16  C   UNL     1      16.484   6.348  19.034  0.00  0.00    +0.012 C 
ATOM     17  C   UNL     1      17.202   6.534  21.421  0.00  0.00    +0.012 C 
ENDBRANCH  13  12
ENDBRANCH   6  13
ENDBRANCH   8   6
BRANCH  10  14
ATOM     14  C   UNL     1      10.571   8.461  22.511  0.00  0.00    +0.139 C 
BRANCH  14   7
ATOM      7  N   UNL     1      11.699   9.320  22.924  0.00  0.00    -0.192 NA
ATOM     21  H   UNL     1      12.588   9.071  22.471  0.00  0.00    +0.148 HD
BRANCH   7   1
ATOM      1  S   UNL     1      11.424  10.984  23.181  0.00  0.00    +0.027 S 
ATOM      4  O   UNL     1      10.565  11.168  24.335  0.00  0.00    -0.158 OA
ATOM      5  O   UNL     1      11.098  11.598  21.908  0.00  0.00    -0.158 OA
ATOM     18  C   UNL     1      13.059  11.521  23.626  0.00  0.00    +0.214 C 
ENDBRANCH   7   1
ENDBRANCH  14   7
ENDBRANCH  10  14
TORSDOF 7
ENDMDL
MODEL 2
REMARK VINA RESULT:      -5.1      5.491      7.964
REMARK  Name = 75367093
REMARK  11 active torsions:
REMARK  status: ('A' for Active; 'I' for Inactive)
REMARK    1  A    between atoms: S_1  and  N_7
REMARK    2  A    between atoms: S_1  and  C_18
REMARK    3  A    between atoms: O_3  and  C_9
REMARK    4  A    between atoms: N_6  and  C_8
REMARK    5  A    between atoms: N_6  and  C_13
REMARK    6  A    between atoms: N_7  and  C_14
REMARK    7  A    between atoms: C_10  and  C_14
REMARK    8  A    between atoms: C_12  and  C_13
REMARK    9  A    between atoms: C_12  and  C_15
REMARK   10  A    between atoms: C_12  and  C_16
REMARK   11  A    between atoms: C_12  and  C_17
REMARK                            x       y       z     vdW  Elec       q    Type
REMARK                         _______ _______ _______ _____ _____    ______ ____
ROOT
ATOM      2  O   UNL     1      17.591   6.934  21.611  0.00  0.00    -0.371 OA
ATOM      8  C   UNL     1      16.200   6.345  19.778  0.00  0.00    +0.111 C 
ATOM      9  C   UNL     1      17.652   6.260  19.345  0.00  0.00    +0.164 C 
ATOM     10  C   UNL     1      18.353   6.135  20.690  0.00  0.00    +0.164 C 
ATOM     11  C   UNL     1      16.308   7.210  21.024  0.00  0.00    +0.181 C 
ENDROOT
BRANCH   9   3
ATOM      3  O   UNL     1      17.909   5.147  18.510  0.00  0.00    -0.388 OA
ATOM     20  H   UNL     1      18.592   4.599  18.933  0.00  0.00    +0.210 HD
ENDBRANCH   9   3
BRANCH   8   6
ATOM      6  N   UNL     1      15.322   6.913  18.769  0.00  0.00    -0.308 NA
ATOM     19  H   UNL     1      14.476   6.348  18.709  0.00  0.00    +0.122 HD
BRANCH   6  13
ATOM     13  C   UNL     1      14.963   8.287  19.098  0.00  0.00    +0.087 C 
BRANCH  13  12
ATOM     12  C   UNL     1      13.450   8.595  18.964  0.00  0.00    -0.025 C 
ATOM     15  C   UNL     1      13.219   9.851  18.104  0.00  0.00    +0.012 C 
ATOM     16  C   UNL     1      12.882   8.853  20.372  0.00  0.00    +0.012 C 
ATOM     17  C   UNL     1      12.692   7.408  18.340  0.00  0.00    +0.012 C 
ENDBRANCH  13  12
ENDBRANCH   6  13
ENDBRANCH   8   6
BRANCH  10  14
ATOM     14  C   UNL     1      19.793   6.614  20.664  0.00  0.00    +0.139 C 
BRANCH  14   7
ATOM      7  N   UNL     1      20.663   5.541  20.143  0.00  0.00    -0.192 NA
ATOM     21  H   UNL     1      21.180   5.811  19.296  0.00  0.00    +0.148 HD
BRANCH   7   1
ATOM      1  S   UNL     1      21.493   4.536  21.245  0.00  0.00    +0.027 S 
ATOM      4  O   UNL     1      21.254   3.144  20.916  0.00  0.00    -0.158 OA
ATOM      5  O   UNL     1      21.254   5.032  22.587  0.00  0.00    -0.158 OA
ATOM     18  C   UNL     1      23.178   4.916  20.830  0.00  0.00    +0.214 C 
ENDBRANCH   7   1
ENDBRANCH  14   7
ENDBRANCH  10  14
TORSDOF 7
ENDMDL
MODEL 3
REMARK VINA RESULT:      -5.1      3.038      5.750
REMARK  Name = 75367093
REMARK  11 active torsions:
REMARK  status: ('A' for Active; 'I' for Inactive)
REMARK    1  A    between atoms: S_1  and  N_7
REMARK    2  A    between atoms: S_1  and  C_18
REMARK    3  A    between atoms: O_3  and  C_9
REMARK    4  A    between atoms: N_6  and  C_8
REMARK    5  A    between atoms: N_6  and  C_13
REMARK    6  A    between atoms: N_7  and  C_14
REMARK    7  A    between atoms: C_10  and  C_14
REMARK    8  A    between atoms: C_12  and  C_13
REMARK    9  A    between atoms: C_12  and  C_15
REMARK   10  A    between atoms: C_12  and  C_16
REMARK   11  A    between atoms: C_12  and  C_17
REMARK                            x       y       z     vdW  Elec       q    Type
REMARK                         _______ _______ _______ _____ _____    ______ ____
ROOT
ATOM      2  O   UNL     1      15.863   9.426  19.891  0.00  0.00    -0.371 OA
ATOM      8  C   UNL     1      15.075   9.430  22.131  0.00  0.00    +0.111 C 
ATOM      9  C   UNL     1      14.746   8.094  21.494  0.00  0.00    +0.164 C 
ATOM     10  C   UNL     1      15.739   8.066  20.340  0.00  0.00    +0.164 C 
ATOM     11  C   UNL     1      15.330  10.293  20.906  0.00  0.00    +0.181 C 
ENDROOT
BRANCH   9   3
ATOM      3  O   UNL     1      14.934   7.005  22.379  0.00  0.00    -0.388 OA
ATOM     20  H   UNL     1      14.165   6.958  22.972  0.00  0.00    +0.210 HD
ENDBRANCH   9   3
BRANCH   8   6
ATOM      6  N   UNL     1      14.014   9.949  22.979  0.00  0.00    -0.308 NA
ATOM     19  H   UNL     1      14.431  10.429  23.776  0.00  0.00    +0.122 HD
BRANCH   6  13
ATOM     13  C   UNL     1      13.164  10.880  22.247  0.00  0.00    +0.087 C 
BRANCH  13  12
ATOM     12  C   UNL     1      11.805  11.170  22.933  0.00  0.00    -0.025 C 
ATOM     15  C   UNL     1      12.006  11.524  24.418  0.00  0.00    +0.012 C 
ATOM     16  C   UNL     1      10.937   9.901  22.843  0.00  0.00    +0.012 C 
ATOM     17  C   UNL     1      11.061  12.322  22.234  0.00  0.00    +0.012 C 
ENDBRANCH  13  12
ENDBRANCH   6  13
ENDBRANCH   8   6
BRANCH  10  14
ATOM     14  C   UNL     1      15.296   7.183  19.188  0.00  0.00    +0.139 C 
BRANCH  14   7
ATOM      7  N   UNL     1      13.827   7.032  19.215  0.00  0.00    -0.192 NA
ATOM     21  H   UNL     1      13.450   6.881  20.159  0.00  0.00    +0.148 HD
BRANCH   7   1
ATOM      1  S   UNL     1      12.875   7.984  18.166  0.00  0.00    +0.027 S 
ATOM      4  O   UNL     1      12.560   9.250  18.800  0.00  0.00    -0.158 OA
ATOM      5  O   UNL     1      11.825   7.149  17.615  0.00  0.00    -0.158 OA
ATOM     18  C   UNL     1      14.042   8.300  16.862  0.00  0.00    +0.214 C 
ENDBRANCH   7   1
ENDBRANCH  14   7
ENDBRANCH  10  14
TORSDOF 7
ENDMDL
MODEL 4
REMARK VINA RESULT:      -5.0      3.975      5.929
REMARK  Name = 75367093
REMARK  11 active torsions:
REMARK  status: ('A' for Active; 'I' for Inactive)
REMARK    1  A    between atoms: S_1  and  N_7
REMARK    2  A    between atoms: S_1  and  C_18
REMARK    3  A    between atoms: O_3  and  C_9
REMARK    4  A    between atoms: N_6  and  C_8
REMARK    5  A    between atoms: N_6  and  C_13
REMARK    6  A    between atoms: N_7  and  C_14
REMARK    7  A    between atoms: C_10  and  C_14
REMARK    8  A    between atoms: C_12  and  C_13
REMARK    9  A    between atoms: C_12  and  C_15
REMARK   10  A    between atoms: C_12  and  C_16
REMARK   11  A    between atoms: C_12  and  C_17
REMARK                            x       y       z     vdW  Elec       q    Type
REMARK                         _______ _______ _______ _____ _____    ______ ____
ROOT
ATOM      2  O   UNL     1      16.199   5.964  18.799  0.00  0.00    -0.371 OA
ATOM      8  C   UNL     1      18.166   5.979  20.130  0.00  0.00    +0.111 C 
ATOM      9  C   UNL     1      17.362   7.232  20.422  0.00  0.00    +0.164 C 
ATOM     10  C   UNL     1      15.980   6.814  19.938  0.00  0.00    +0.164 C 
ATOM     11  C   UNL     1      17.575   5.545  18.799  0.00  0.00    +0.181 C 
ENDROOT
BRANCH   9   3
ATOM      3  O   UNL     1      17.359   7.572  21.795  0.00  0.00    -0.388 OA
ATOM     20  H   UNL     1      16.942   6.846  22.289  0.00  0.00    +0.210 HD
ENDBRANCH   9   3
BRANCH   8   6
ATOM      6  N   UNL     1      19.600   6.208  20.066  0.00  0.00    -0.308 NA
ATOM     19  H   UNL     1      19.852   6.928  20.742  0.00  0.00    +0.122 HD
BRANCH   6  13
ATOM     13  C   UNL     1      20.341   4.987  20.363  0.00  0.00    +0.087 C 
BRANCH  13  12
ATOM     12  C   UNL     1      21.468   5.170  21.411  0.00  0.00    -0.025 C 
ATOM     15  C   UNL     1      22.689   5.870  20.786  0.00  0.00    +0.012 C 
ATOM     16  C   UNL     1      21.900   3.777  21.905  0.00  0.00    +0.012 C 
ATOM     17  C   UNL     1      20.979   5.988  22.619  0.00  0.00    +0.012 C 
ENDBRANCH  13  12
ENDBRANCH   6  13
ENDBRANCH   8   6
BRANCH  10  14
ATOM     14  C   UNL     1      15.102   7.987  19.542  0.00  0.00    +0.139 C 
BRANCH  14   7
ATOM      7  N   UNL     1      13.730   7.511  19.275  0.00  0.00    -0.192 NA
ATOM     21  H   UNL     1      13.191   7.322  20.129  0.00  0.00    +0.148 HD
BRANCH   7   1
ATOM      1  S   UNL     1      12.861   8.176  17.965  0.00  0.00    +0.027 S 
ATOM      4  O   UNL     1      12.500   9.549  18.261  0.00  0.00    -0.158 OA
ATOM      5  O   UNL     1      11.854   7.217  17.549  0.00  0.00    -0.158 OA
ATOM     18  C   UNL     1      14.122   8.198  16.713  0.00  0.00    +0.214 C 
ENDBRANCH   7   1
ENDBRANCH  14   7
ENDBRANCH  10  14
TORSDOF 7
ENDMDL
MODEL 5
REMARK VINA RESULT:      -5.0      5.103      7.270
REMARK  Name = 75367093
REMARK  11 active torsions:
REMARK  status: ('A' for Active; 'I' for Inactive)
REMARK    1  A    between atoms: S_1  and  N_7
REMARK    2  A    between atoms: S_1  and  C_18
REMARK    3  A    between atoms: O_3  and  C_9
REMARK    4  A    between atoms: N_6  and  C_8
REMARK    5  A    between atoms: N_6  and  C_13
REMARK    6  A    between atoms: N_7  and  C_14
REMARK    7  A    between atoms: C_10  and  C_14
REMARK    8  A    between atoms: C_12  and  C_13
REMARK    9  A    between atoms: C_12  and  C_15
REMARK   10  A    between atoms: C_12  and  C_16
REMARK   11  A    between atoms: C_12  and  C_17
REMARK                            x       y       z     vdW  Elec       q    Type
REMARK                         _______ _______ _______ _____ _____    ______ ____
ROOT
ATOM      2  O   UNL     1      16.263   7.337  21.625  0.00  0.00    -0.371 OA
ATOM      8  C   UNL     1      15.012   6.680  19.716  0.00  0.00    +0.111 C 
ATOM      9  C   UNL     1      16.491   6.565  19.401  0.00  0.00    +0.164 C 
ATOM     10  C   UNL     1      17.085   6.492  20.801  0.00  0.00    +0.164 C 
ATOM     11  C   UNL     1      15.032   7.597  20.928  0.00  0.00    +0.181 C 
ENDROOT
BRANCH   9   3
ATOM      3  O   UNL     1      16.799   5.414  18.637  0.00  0.00    -0.388 OA
ATOM     20  H   UNL     1      17.544   4.955  19.063  0.00  0.00    +0.210 HD
ENDBRANCH   9   3
BRANCH   8   6
ATOM      6  N   UNL     1      14.221   7.210  18.618  0.00  0.00    -0.308 NA
ATOM     19  H   UNL     1      13.232   7.080  18.828  0.00  0.00    +0.122 HD
BRANCH   6  13
ATOM     13  C   UNL     1      14.488   8.629  18.415  0.00  0.00    +0.087 C 
BRANCH  13  12
ATOM     12  C   UNL     1      13.219   9.483  18.169  0.00  0.00    -0.025 C 
ATOM     15  C   UNL     1      11.949   8.701  18.551  0.00  0.00    +0.012 C 
ATOM     16  C   UNL     1      13.150   9.827  16.669  0.00  0.00    +0.012 C 
ATOM     17  C   UNL     1      13.265  10.796  18.971  0.00  0.00    +0.012 C 
ENDBRANCH  13  12
ENDBRANCH   6  13
ENDBRANCH   8   6
BRANCH  10  14
ATOM     14  C   UNL     1      18.528   6.959  20.867  0.00  0.00    +0.139 C 
BRANCH  14   7
ATOM      7  N   UNL     1      19.386   6.022  20.115  0.00  0.00    -0.192 NA
ATOM     21  H   UNL     1      19.338   6.153  19.096  0.00  0.00    +0.148 HD
BRANCH   7   1
ATOM      1  S   UNL     1      20.914   5.602  20.750  0.00  0.00    +0.027 S 
ATOM      4  O   UNL     1      21.933   6.468  20.190  0.00  0.00    -0.158 OA
ATOM      5  O   UNL     1      21.053   4.159  20.695  0.00  0.00    -0.158 OA
ATOM     18  C   UNL     1      20.692   6.049  22.456  0.00  0.00    +0.214 C 
ENDBRANCH   7   1
ENDBRANCH  14   7
ENDBRANCH  10  14
TORSDOF 7
ENDMDL
MODEL 6
REMARK VINA RESULT:      -5.0     23.873     25.865
REMARK  Name = 75367093
REMARK  11 active torsions:
REMARK  status: ('A' for Active; 'I' for Inactive)
REMARK    1  A    between atoms: S_1  and  N_7
REMARK    2  A    between atoms: S_1  and  C_18
REMARK    3  A    between atoms: O_3  and  C_9
REMARK    4  A    between atoms: N_6  and  C_8
REMARK    5  A    between atoms: N_6  and  C_13
REMARK    6  A    between atoms: N_7  and  C_14
REMARK    7  A    between atoms: C_10  and  C_14
REMARK    8  A    between atoms: C_12  and  C_13
REMARK    9  A    between atoms: C_12  and  C_15
REMARK   10  A    between atoms: C_12  and  C_16
REMARK   11  A    between atoms: C_12  and  C_17
REMARK                            x       y       z     vdW  Elec       q    Type
REMARK                         _______ _______ _______ _____ _____    ______ ____
ROOT
ATOM      2  O   UNL     1     -10.508  10.800  15.991  0.00  0.00    -0.371 OA
ATOM      8  C   UNL     1      -9.918   9.444  17.849  0.00  0.00    +0.111 C 
ATOM      9  C   UNL     1     -10.717   8.612  16.864  0.00  0.00    +0.164 C 
ATOM     10  C   UNL     1     -10.541   9.421  15.586  0.00  0.00    +0.164 C 
ATOM     11  C   UNL     1     -10.271  10.855  17.408  0.00  0.00    +0.181 C 
ENDROOT
BRANCH   9   3
ATOM      3  O   UNL     1     -10.217   7.295  16.728  0.00  0.00    -0.388 OA
ATOM     20  H   UNL     1     -10.501   6.779  17.503  0.00  0.00    +0.210 HD
ENDBRANCH   9   3
BRANCH   8   6
ATOM      6  N   UNL     1     -10.253   9.184  19.240  0.00  0.00    -0.308 NA
ATOM     19  H   UNL     1      -9.647   9.744  19.838  0.00  0.00    +0.122 HD
BRANCH   6  13
ATOM     13  C   UNL     1     -11.646   9.519  19.515  0.00  0.00    +0.087 C 
BRANCH  13  12
ATOM     12  C   UNL     1     -12.444   8.383  20.205  0.00  0.00    -0.025 C 
ATOM     15  C   UNL     1     -13.030   8.861  21.546  0.00  0.00    +0.012 C 
ATOM     16  C   UNL     1     -11.482   7.212  20.478  0.00  0.00    +0.012 C 
ATOM     17  C   UNL     1     -13.587   7.878  19.305  0.00  0.00    +0.012 C 
ENDBRANCH  13  12
ENDBRANCH   6  13
ENDBRANCH   8   6
BRANCH  10  14
ATOM     14  C   UNL     1     -11.659   9.207  14.582  0.00  0.00    +0.139 C 
BRANCH  14   7
ATOM      7  N   UNL     1     -12.421   7.993  14.938  0.00  0.00    -0.192 NA
ATOM     21  H   UNL     1     -12.531   7.864  15.952  0.00  0.00    +0.148 HD
BRANCH   7   1
ATOM      1  S   UNL     1     -13.748   7.532  13.970  0.00  0.00    +0.027 S 
ATOM      4  O   UNL     1     -14.948   7.464  14.781  0.00  0.00    -0.158 OA
ATOM      5  O   UNL     1     -13.345   6.408  13.146  0.00  0.00    -0.158 OA
ATOM     18  C   UNL     1     -13.885   8.949  12.906  0.00  0.00    +0.214 C 
ENDBRANCH   7   1
ENDBRANCH  14   7
ENDBRANCH  10  14
TORSDOF 7
ENDMDL
MODEL 7
REMARK VINA RESULT:      -4.9     26.120     27.056
REMARK  Name = 75367093
REMARK  11 active torsions:
REMARK  status: ('A' for Active; 'I' for Inactive)
REMARK    1  A    between atoms: S_1  and  N_7
REMARK    2  A    between atoms: S_1  and  C_18
REMARK    3  A    between atoms: O_3  and  C_9
REMARK    4  A    between atoms: N_6  and  C_8
REMARK    5  A    between atoms: N_6  and  C_13
REMARK    6  A    between atoms: N_7  and  C_14
REMARK    7  A    between atoms: C_10  and  C_14
REMARK    8  A    between atoms: C_12  and  C_13
REMARK    9  A    between atoms: C_12  and  C_15
REMARK   10  A    between atoms: C_12  and  C_16
REMARK   11  A    between atoms: C_12  and  C_17
REMARK                            x       y       z     vdW  Elec       q    Type
REMARK                         _______ _______ _______ _____ _____    ______ ____
ROOT
ATOM      2  O   UNL     1      -3.005 -11.896  15.348  0.00  0.00    -0.371 OA
ATOM      8  C   UNL     1      -4.191 -10.594  13.753  0.00  0.00    +0.111 C 
ATOM      9  C   UNL     1      -4.991 -10.649  15.041  0.00  0.00    +0.164 C 
ATOM     10  C   UNL     1      -3.908 -11.021  16.044  0.00  0.00    +0.164 C 
ATOM     11  C   UNL     1      -3.247 -11.772  13.935  0.00  0.00    +0.181 C 
ENDROOT
BRANCH   9   3
ATOM      3  O   UNL     1      -5.601  -9.412  15.358  0.00  0.00    -0.388 OA
ATOM     20  H   UNL     1      -5.873  -8.984  14.527  0.00  0.00    +0.210 HD
ENDBRANCH   9   3
BRANCH   8   6
ATOM      6  N   UNL     1      -5.006 -10.702  12.555  0.00  0.00    -0.308 NA
ATOM     19  H   UNL     1      -5.990 -10.705  12.822  0.00  0.00    +0.122 HD
BRANCH   6  13
ATOM     13  C   UNL     1      -4.756  -9.588  11.648  0.00  0.00    +0.087 C 
BRANCH  13  12
ATOM     12  C   UNL     1      -3.839  -9.941  10.450  0.00  0.00    -0.025 C 
ATOM     15  C   UNL     1      -3.877 -11.452  10.156  0.00  0.00    +0.012 C 
ATOM     16  C   UNL     1      -2.395  -9.548  10.814  0.00  0.00    +0.012 C 
ATOM     17  C   UNL     1      -4.251  -9.169   9.184  0.00  0.00    +0.012 C 
ENDBRANCH  13  12
ENDBRANCH   6  13
ENDBRANCH   8   6
BRANCH  10  14
ATOM     14  C   UNL     1      -4.448 -11.718  17.279  0.00  0.00    +0.139 C 
BRANCH  14   7
ATOM      7  N   UNL     1      -4.885 -10.711  18.267  0.00  0.00    -0.192 NA
ATOM     21  H   UNL     1      -4.402  -9.809  18.169  0.00  0.00    +0.148 HD
BRANCH   7   1
ATOM      1  S   UNL     1      -6.532 -10.642  18.709  0.00  0.00    +0.027 S 
ATOM      4  O   UNL     1      -7.233  -9.708  17.850  0.00  0.00    -0.158 OA
ATOM      5  O   UNL     1      -6.614 -10.526  20.153  0.00  0.00    -0.158 OA
ATOM     18  C   UNL     1      -7.055 -12.284  18.278  0.00  0.00    +0.214 C 
ENDBRANCH   7   1
ENDBRANCH  14   7
ENDBRANCH  10  14
TORSDOF 7
ENDMDL
MODEL 8
REMARK VINA RESULT:      -4.8     15.760     17.352
REMARK  Name = 75367093
REMARK  11 active torsions:
REMARK  status: ('A' for Active; 'I' for Inactive)
REMARK    1  A    between atoms: S_1  and  N_7
REMARK    2  A    between atoms: S_1  and  C_18
REMARK    3  A    between atoms: O_3  and  C_9
REMARK    4  A    between atoms: N_6  and  C_8
REMARK    5  A    between atoms: N_6  and  C_13
REMARK    6  A    between atoms: N_7  and  C_14
REMARK    7  A    between atoms: C_10  and  C_14
REMARK    8  A    between atoms: C_12  and  C_13
REMARK    9  A    between atoms: C_12  and  C_15
REMARK   10  A    between atoms: C_12  and  C_16
REMARK   11  A    between atoms: C_12  and  C_17
REMARK                            x       y       z     vdW  Elec       q    Type
REMARK                         _______ _______ _______ _____ _____    ______ ____
ROOT
ATOM      2  O   UNL     1      13.011   8.439   5.185  0.00  0.00    -0.371 OA
ATOM      8  C   UNL     1      12.519   6.854   3.486  0.00  0.00    +0.111 C 
ATOM      9  C   UNL     1      11.787   6.462   4.756  0.00  0.00    +0.164 C 
ATOM     10  C   UNL     1      11.772   7.785   5.508  0.00  0.00    +0.164 C 
ATOM     11  C   UNL     1      13.579   7.799   4.029  0.00  0.00    +0.181 C 
ENDROOT
BRANCH   9   3
ATOM      3  O   UNL     1      10.480   5.981   4.508  0.00  0.00    -0.388 OA
ATOM     20  H   UNL     1      10.220   5.407   5.248  0.00  0.00    +0.210 HD
ENDBRANCH   9   3
BRANCH   8   6
ATOM      6  N   UNL     1      13.082   5.725   2.764  0.00  0.00    -0.308 NA
ATOM     19  H   UNL     1      12.873   4.868   3.275  0.00  0.00    +0.122 HD
BRANCH   6  13
ATOM     13  C   UNL     1      12.528   5.633   1.419  0.00  0.00    +0.087 C 
BRANCH  13  12
ATOM     12  C   UNL     1      11.984   4.229   1.054  0.00  0.00    -0.025 C 
ATOM     15  C   UNL     1      12.889   3.123   1.628  0.00  0.00    +0.012 C 
ATOM     16  C   UNL     1      11.966   4.101  -0.481  0.00  0.00    +0.012 C 
ATOM     17  C   UNL     1      10.550   4.032   1.578  0.00  0.00    +0.012 C 
ENDBRANCH  13  12
ENDBRANCH   6  13
ENDBRANCH   8   6
BRANCH  10  14
ATOM     14  C   UNL     1      11.656   7.620   7.012  0.00  0.00    +0.139 C 
BRANCH  14   7
ATOM      7  N   UNL     1      11.665   6.184   7.356  0.00  0.00    -0.192 NA
ATOM     21  H   UNL     1      12.571   5.858   7.716  0.00  0.00    +0.148 HD
BRANCH   7   1
ATOM      1  S   UNL     1      10.277   5.490   8.064  0.00  0.00    +0.027 S 
ATOM      4  O   UNL     1      10.538   5.179   9.456  0.00  0.00    -0.158 OA
ATOM      5  O   UNL     1       9.758   4.479   7.163  0.00  0.00    -0.158 OA
ATOM     18  C   UNL     1       9.159   6.871   8.013  0.00  0.00    +0.214 C 
ENDBRANCH   7   1
ENDBRANCH  14   7
ENDBRANCH  10  14
TORSDOF 7
ENDMDL
MODEL 9
REMARK VINA RESULT:      -4.8     25.554     26.976
REMARK  Name = 75367093
REMARK  11 active torsions:
REMARK  status: ('A' for Active; 'I' for Inactive)
REMARK    1  A    between atoms: S_1  and  N_7
REMARK    2  A    between atoms: S_1  and  C_18
REMARK    3  A    between atoms: O_3  and  C_9
REMARK    4  A    between atoms: N_6  and  C_8
REMARK    5  A    between atoms: N_6  and  C_13
REMARK    6  A    between atoms: N_7  and  C_14
REMARK    7  A    between atoms: C_10  and  C_14
REMARK    8  A    between atoms: C_12  and  C_13
REMARK    9  A    between atoms: C_12  and  C_15
REMARK   10  A    between atoms: C_12  and  C_16
REMARK   11  A    between atoms: C_12  and  C_17
REMARK                            x       y       z     vdW  Elec       q    Type
REMARK                         _______ _______ _______ _____ _____    ______ ____
ROOT
ATOM      2  O   UNL     1      -5.124 -12.238  16.247  0.00  0.00    -0.371 OA
ATOM      8  C   UNL     1      -3.360 -11.359  14.922  0.00  0.00    +0.111 C 
ATOM      9  C   UNL     1      -3.113 -11.000  16.375  0.00  0.00    +0.164 C 
ATOM     10  C   UNL     1      -3.972 -12.038  17.084  0.00  0.00    +0.164 C 
ATOM     11  C   UNL     1      -4.841 -11.700  14.944  0.00  0.00    +0.181 C 
ENDROOT
BRANCH   9   3
ATOM      3  O   UNL     1      -1.750 -11.106  16.740  0.00  0.00    -0.388 OA
ATOM     20  H   UNL     1      -1.228 -10.547  16.138  0.00  0.00    +0.210 HD
ENDBRANCH   9   3
BRANCH   8   6
ATOM      6  N   UNL     1      -3.039 -10.287  13.994  0.00  0.00    -0.308 NA
ATOM     19  H   UNL     1      -2.066 -10.380  13.703  0.00  0.00    +0.122 HD
BRANCH   6  13
ATOM     13  C   UNL     1      -3.900 -10.334  12.818  0.00  0.00    +0.087 C 
BRANCH  13  12
ATOM     12  C   UNL     1      -3.133 -10.405  11.474  0.00  0.00    -0.025 C 
ATOM     15  C   UNL     1      -3.260 -11.803  10.842  0.00  0.00    +0.012 C 
ATOM     16  C   UNL     1      -1.644 -10.126  11.752  0.00  0.00    +0.012 C 
ATOM     17  C   UNL     1      -3.650  -9.351  10.479  0.00  0.00    +0.012 C 
ENDBRANCH  13  12
ENDBRANCH   6  13
ENDBRANCH   8   6
BRANCH  10  14
ATOM     14  C   UNL     1      -4.414 -11.606  18.470  0.00  0.00    +0.139 C 
BRANCH  14   7
ATOM      7  N   UNL     1      -5.633 -12.346  18.855  0.00  0.00    -0.192 NA
ATOM     21  H   UNL     1      -5.438 -13.278  19.242  0.00  0.00    +0.148 HD
BRANCH   7   1
ATOM      1  S   UNL     1      -6.934 -11.494  19.557  0.00  0.00    +0.027 S 
ATOM      4  O   UNL     1      -6.443 -10.296  20.209  0.00  0.00    -0.158 OA
ATOM      5  O   UNL     1      -7.768 -12.440  20.274  0.00  0.00    -0.158 OA
ATOM     18  C   UNL     1      -7.824 -10.999  18.100  0.00  0.00    +0.214 C 
ENDBRANCH   7   1
ENDBRANCH  14   7
ENDBRANCH  10  14
TORSDOF 7
ENDMDL
MODEL 10
REMARK VINA RESULT:      -4.8     25.773     27.440
REMARK  Name = 75367093
REMARK  11 active torsions:
REMARK  status: ('A' for Active; 'I' for Inactive)
REMARK    1  A    between atoms: S_1  and  N_7
REMARK    2  A    between atoms: S_1  and  C_18
REMARK    3  A    between atoms: O_3  and  C_9
REMARK    4  A    between atoms: N_6  and  C_8
REMARK    5  A    between atoms: N_6  and  C_13
REMARK    6  A    between atoms: N_7  and  C_14
REMARK    7  A    between atoms: C_10  and  C_14
REMARK    8  A    between atoms: C_12  and  C_13
REMARK    9  A    between atoms: C_12  and  C_15
REMARK   10  A    between atoms: C_12  and  C_16
REMARK   11  A    between atoms: C_12  and  C_17
REMARK                            x       y       z     vdW  Elec       q    Type
REMARK                         _______ _______ _______ _____ _____    ______ ____
ROOT
ATOM      2  O   UNL     1      -4.884 -11.567  19.227  0.00  0.00    -0.371 OA
ATOM      8  C   UNL     1      -4.734 -10.449  17.137  0.00  0.00    +0.111 C 
ATOM      9  C   UNL     1      -6.196 -10.603  17.512  0.00  0.00    +0.164 C 
ATOM     10  C   UNL     1      -6.092 -10.818  19.015  0.00  0.00    +0.164 C 
ATOM     11  C   UNL     1      -4.082 -11.487  18.036  0.00  0.00    +0.181 C 
ENDROOT
BRANCH   9   3
ATOM      3  O   UNL     1      -6.965  -9.458  17.194  0.00  0.00    -0.388 OA
ATOM     20  H   UNL     1      -6.584  -8.695  17.662  0.00  0.00    +0.210 HD
ENDBRANCH   9   3
BRANCH   8   6
ATOM      6  N   UNL     1      -4.467 -10.674  15.725  0.00  0.00    -0.308 NA
ATOM     19  H   UNL     1      -4.061  -9.829  15.326  0.00  0.00    +0.122 HD
BRANCH   6  13
ATOM     13  C   UNL     1      -3.546 -11.789  15.536  0.00  0.00    +0.087 C 
BRANCH  13  12
ATOM     12  C   UNL     1      -2.283 -11.432  14.713  0.00  0.00    -0.025 C 
ATOM     15  C   UNL     1      -1.232 -10.735  15.596  0.00  0.00    +0.012 C 
ATOM     16  C   UNL     1      -2.696 -10.466  13.587  0.00  0.00    +0.012 C 
ATOM     17  C   UNL     1      -1.658 -12.687  14.077  0.00  0.00    +0.012 C 
ENDBRANCH  13  12
ENDBRANCH   6  13
ENDBRANCH   8   6
BRANCH  10  14
ATOM     14  C   UNL     1      -7.273 -11.574  19.597  0.00  0.00    +0.139 C 
BRANCH  14   7
ATOM      7  N   UNL     1      -8.357 -10.625  19.923  0.00  0.00    -0.192 NA
ATOM     21  H   UNL     1      -8.028  -9.660  20.051  0.00  0.00    +0.148 HD
BRANCH   7   1
ATOM      1  S   UNL     1      -9.878 -10.812  19.173  0.00  0.00    +0.027 S 
ATOM      4  O   UNL     1      -9.719 -10.811  17.731  0.00  0.00    -0.158 OA
ATOM      5  O   UNL     1     -10.820  -9.915  19.815  0.00  0.00    -0.158 OA
ATOM     18  C   UNL     1     -10.291 -12.465  19.677  0.00  0.00    +0.214 C 
ENDBRANCH   7   1
ENDBRANCH  14   7
ENDBRANCH  10  14
TORSDOF 7
ENDMDL
