MODEL 1
REMARK VINA RESULT:      -7.8      0.000      0.000
REMARK  Name = 7050205
REMARK  10 active torsions:
REMARK  status: ('A' for Active; 'I' for Inactive)
REMARK    1  A    between atoms: O_1  and  C_11
REMARK    2  A    between atoms: O_2  and  C_14
REMARK    3  A    between atoms: O_3  and  C_16
REMARK    4  A    between atoms: N_7  and  C_12
REMARK    5  A    between atoms: N_8  and  C_18
REMARK    6  A    between atoms: N_9  and  C_25
REMARK    7  A    between atoms: C_11  and  C_17
REMARK    8  A    between atoms: C_25  and  C_26
REMARK    9  A    between atoms: C_25  and  C_27
REMARK   10  A    between atoms: C_26  and  C_28
REMARK                            x       y       z     vdW  Elec       q    Type
REMARK                         _______ _______ _______ _____ _____    ______ ____
ROOT
ATOM     11  C   UNL     1      12.905   7.954  19.994  0.00  0.00    +0.146 C 
ATOM     12  C   UNL     1      11.024   8.863  21.441  0.00  0.00    +0.109 C 
ATOM     13  C   UNL     1      12.456   9.072  20.936  0.00  0.00    +0.069 C 
ATOM     14  C   UNL     1      10.838   7.476  22.072  0.00  0.00    +0.163 C 
ATOM     15  C   UNL     1      12.733   6.581  20.641  0.00  0.00    +0.078 C 
ATOM     16  C   UNL     1      11.305   6.355  21.140  0.00  0.00    +0.148 C 
ENDROOT
BRANCH  12   7
ATOM      5  O   UNL     1      11.636  11.663  21.214  0.00  0.00    -0.253 OA
ATOM      7  N   UNL     1      10.682   9.903  22.387  0.00  0.00    -0.294 N 
ATOM      8  N   UNL     1      10.576  12.028  23.248  0.00  0.00    -0.297 N 
ATOM     24  C   UNL     1      11.022  11.237  22.192  0.00  0.00    +0.300 C 
ATOM     34  H   UNL     1      10.242   9.639  23.262  0.00  0.00    +0.151 HD
ATOM     38  H   UNL     1      10.144  11.564  24.040  0.00  0.00    +0.151 HD
BRANCH   8  18
ATOM     18  C   UNL     1      10.790  13.457  23.311  0.00  0.00    +0.074 C 
ATOM     19  C   UNL     1      12.281  13.786  23.439  0.00  0.00    +0.022 C 
ATOM     20  C   UNL     1       9.982  14.084  24.452  0.00  0.00    +0.022 C 
ATOM     21  C   UNL     1      12.842  13.436  24.817  0.00  0.00    +0.002 C 
ATOM     22  C   UNL     1      10.547  13.733  25.830  0.00  0.00    +0.002 C 
ATOM     23  C   UNL     1      12.029  14.080  25.937  0.00  0.00    +0.000 C 
ENDBRANCH   8  18
ENDBRANCH  12   7
BRANCH  11  17
ATOM      4  O   UNL     1      14.726   7.858  18.453  0.00  0.00    -0.273 OA
ATOM      9  N   UNL     1      15.108   8.675  20.599  0.00  0.00    -0.301 N 
ATOM     17  C   UNL     1      14.333   8.154  19.577  0.00  0.00    +0.246 C 
ATOM     39  H   UNL     1      14.649   9.006  21.442  0.00  0.00    +0.150 HD
BRANCH   9  25
ATOM     25  C   UNL     1      16.522   8.939  20.461  0.00  0.00    +0.163 C 
BRANCH  25  27
ATOM      6  O   UNL     1      15.784  11.253  20.365  0.00  0.00    -0.274 OA
ATOM     10  N   UNL     1      17.999  10.824  20.796  0.00  0.00    -0.328 N 
ATOM     27  C   UNL     1      16.702  10.450  20.513  0.00  0.00    +0.231 C 
ATOM     40  H   UNL     1      18.254  11.803  20.873  0.00  0.00    +0.145 HD
ATOM     41  H   UNL     1      18.742  10.147  20.938  0.00  0.00    +0.145 HD
ENDBRANCH  25  27
BRANCH  25  26
ATOM     26  C   UNL     1      17.348   8.265  21.562  0.00  0.00    +0.067 C 
BRANCH  26  28
ATOM     28  C   UNL     1      18.200   7.133  21.043  0.00  0.00    -0.045 A 
ATOM     29  C   UNL     1      17.707   6.317  20.036  0.00  0.00    +0.004 A 
ATOM     30  C   UNL     1      19.461   6.929  21.582  0.00  0.00    +0.004 A 
ATOM     31  C   UNL     1      18.495   5.272  19.555  0.00  0.00    +0.000 A 
ATOM     32  C   UNL     1      20.248   5.883  21.101  0.00  0.00    +0.000 A 
ATOM     33  C   UNL     1      19.766   5.054  20.088  0.00  0.00    +0.000 A 
ENDBRANCH  26  28
ENDBRANCH  25  26
ENDBRANCH   9  25
ENDBRANCH  11  17
BRANCH  11   1
ATOM      1  O   UNL     1      12.158   7.993  18.783  0.00  0.00    -0.379 OA
ATOM     35  H   UNL     1      12.730   7.687  18.059  0.00  0.00    +0.211 HD
ENDBRANCH  11   1
BRANCH  14   2
ATOM      2  O   UNL     1       9.447   7.267  22.337  0.00  0.00    -0.387 OA
ATOM     36  H   UNL     1       8.999   7.155  21.482  0.00  0.00    +0.210 HD
ENDBRANCH  14   2
BRANCH  16   3
ATOM      3  O   UNL     1      11.258   5.122  21.859  0.00  0.00    -0.389 OA
ATOM     37  H   UNL     1      12.021   5.101  22.461  0.00  0.00    +0.210 HD
ENDBRANCH  16   3
TORSDOF 10
ENDMDL
MODEL 2
REMARK VINA RESULT:      -7.4     27.112     29.176
REMARK  Name = 7050205
REMARK  10 active torsions:
REMARK  status: ('A' for Active; 'I' for Inactive)
REMARK    1  A    between atoms: O_1  and  C_11
REMARK    2  A    between atoms: O_2  and  C_14
REMARK    3  A    between atoms: O_3  and  C_16
REMARK    4  A    between atoms: N_7  and  C_12
REMARK    5  A    between atoms: N_8  and  C_18
REMARK    6  A    between atoms: N_9  and  C_25
REMARK    7  A    between atoms: C_11  and  C_17
REMARK    8  A    between atoms: C_25  and  C_26
REMARK    9  A    between atoms: C_25  and  C_27
REMARK   10  A    between atoms: C_26  and  C_28
REMARK                            x       y       z     vdW  Elec       q    Type
REMARK                         _______ _______ _______ _____ _____    ______ ____
ROOT
ATOM     11  C   UNL     1      -5.186 -11.672  17.084  0.00  0.00    +0.146 C 
ATOM     12  C   UNL     1      -7.326 -10.385  17.553  0.00  0.00    +0.109 C 
ATOM     13  C   UNL     1      -6.091 -10.516  16.655  0.00  0.00    +0.069 C 
ATOM     14  C   UNL     1      -6.945 -10.292  19.037  0.00  0.00    +0.163 C 
ATOM     15  C   UNL     1      -4.798 -11.556  18.556  0.00  0.00    +0.078 C 
ATOM     16  C   UNL     1      -6.022 -11.435  19.466  0.00  0.00    +0.148 C 
ENDROOT
BRANCH  12   7
ATOM      5  O   UNL     1     -10.188 -10.126  17.634  0.00  0.00    -0.253 OA
ATOM      7  N   UNL     1      -8.102  -9.231  17.153  0.00  0.00    -0.294 N 
ATOM      8  N   UNL     1      -9.987  -7.974  16.783  0.00  0.00    -0.297 N 
ATOM     24  C   UNL     1      -9.490  -9.197  17.228  0.00  0.00    +0.300 C 
ATOM     34  H   UNL     1      -7.620  -8.443  16.732  0.00  0.00    +0.151 HD
ATOM     38  H   UNL     1      -9.327  -7.305  16.400  0.00  0.00    +0.151 HD
BRANCH   8  18
ATOM     18  C   UNL     1     -11.398  -7.659  16.749  0.00  0.00    +0.074 C 
ATOM     19  C   UNL     1     -12.135  -8.537  15.732  0.00  0.00    +0.022 C 
ATOM     20  C   UNL     1     -11.621  -6.170  16.463  0.00  0.00    +0.022 C 
ATOM     21  C   UNL     1     -11.807  -8.161  14.287  0.00  0.00    +0.002 C 
ATOM     22  C   UNL     1     -11.295  -5.797  15.016  0.00  0.00    +0.002 C 
ATOM     23  C   UNL     1     -12.049  -6.677  14.023  0.00  0.00    +0.000 C 
ENDBRANCH   8  18
ENDBRANCH  12   7
BRANCH  11  17
ATOM      4  O   UNL     1      -2.954 -11.063  16.490  0.00  0.00    -0.273 OA
ATOM      9  N   UNL     1      -4.108 -12.568  15.140  0.00  0.00    -0.301 N 
ATOM     17  C   UNL     1      -3.954 -11.725  16.227  0.00  0.00    +0.246 C 
ATOM     39  H   UNL     1      -4.928 -13.166  15.097  0.00  0.00    +0.150 HD
BRANCH   9  25
ATOM     25  C   UNL     1      -3.076 -12.776  14.150  0.00  0.00    +0.163 C 
BRANCH  25  27
ATOM      6  O   UNL     1      -1.454 -14.569  13.900  0.00  0.00    -0.274 OA
ATOM     10  N   UNL     1      -3.305 -14.938  15.210  0.00  0.00    -0.328 N 
ATOM     27  C   UNL     1      -2.517 -14.174  14.374  0.00  0.00    +0.231 C 
ATOM     40  H   UNL     1      -3.039 -15.886  15.453  0.00  0.00    +0.145 HD
ATOM     41  H   UNL     1      -4.169 -14.589  15.612  0.00  0.00    +0.145 HD
ENDBRANCH  25  27
BRANCH  25  26
ATOM     26  C   UNL     1      -3.609 -12.638  12.720  0.00  0.00    +0.067 C 
BRANCH  26  28
ATOM     28  C   UNL     1      -3.076 -11.416  12.014  0.00  0.00    -0.045 A 
ATOM     29  C   UNL     1      -1.854 -10.886  12.401  0.00  0.00    +0.004 A 
ATOM     30  C   UNL     1      -3.817 -10.844  10.991  0.00  0.00    +0.004 A 
ATOM     31  C   UNL     1      -1.361  -9.757  11.747  0.00  0.00    +0.000 A 
ATOM     32  C   UNL     1      -3.323  -9.715  10.338  0.00  0.00    +0.000 A 
ATOM     33  C   UNL     1      -2.095  -9.171  10.716  0.00  0.00    +0.000 A 
ENDBRANCH  26  28
ENDBRANCH  25  26
ENDBRANCH   9  25
ENDBRANCH  11  17
BRANCH  11   1
ATOM      1  O   UNL     1      -5.836 -12.920  16.871  0.00  0.00    -0.379 OA
ATOM     35  H   UNL     1      -6.538 -12.792  16.211  0.00  0.00    +0.211 HD
ENDBRANCH  11   1
BRANCH  14   2
ATOM      2  O   UNL     1      -8.134 -10.375  19.830  0.00  0.00    -0.387 OA
ATOM     36  H   UNL     1      -7.898 -10.133  20.741  0.00  0.00    +0.210 HD
ENDBRANCH  14   2
BRANCH  16   3
ATOM      3  O   UNL     1      -5.582 -11.183  20.800  0.00  0.00    -0.389 OA
ATOM     37  H   UNL     1      -6.041 -11.809  21.386  0.00  0.00    +0.210 HD
ENDBRANCH  16   3
TORSDOF 10
ENDMDL
MODEL 3
REMARK VINA RESULT:      -7.4      3.636      5.217
REMARK  Name = 7050205
REMARK  10 active torsions:
REMARK  status: ('A' for Active; 'I' for Inactive)
REMARK    1  A    between atoms: O_1  and  C_11
REMARK    2  A    between atoms: O_2  and  C_14
REMARK    3  A    between atoms: O_3  and  C_16
REMARK    4  A    between atoms: N_7  and  C_12
REMARK    5  A    between atoms: N_8  and  C_18
REMARK    6  A    between atoms: N_9  and  C_25
REMARK    7  A    between atoms: C_11  and  C_17
REMARK    8  A    between atoms: C_25  and  C_26
REMARK    9  A    between atoms: C_25  and  C_27
REMARK   10  A    between atoms: C_26  and  C_28
REMARK                            x       y       z     vdW  Elec       q    Type
REMARK                         _______ _______ _______ _____ _____    ______ ____
ROOT
ATOM     11  C   UNL     1      13.001  10.622  21.626  0.00  0.00    +0.146 C 
ATOM     12  C   UNL     1      13.813  11.407  23.902  0.00  0.00    +0.109 C 
ATOM     13  C   UNL     1      13.981  10.382  22.775  0.00  0.00    +0.069 C 
ATOM     14  C   UNL     1      12.361  11.480  24.395  0.00  0.00    +0.163 C 
ATOM     15  C   UNL     1      11.559  10.672  22.127  0.00  0.00    +0.078 C 
ATOM     16  C   UNL     1      11.374  11.699  23.246  0.00  0.00    +0.148 C 
ENDROOT
BRANCH  12   7
ATOM      5  O   UNL     1      15.259  13.270  25.546  0.00  0.00    -0.253 OA
ATOM      7  N   UNL     1      14.706  11.085  24.994  0.00  0.00    -0.294 N 
ATOM      8  N   UNL     1      16.161  11.483  26.724  0.00  0.00    -0.297 N 
ATOM     24  C   UNL     1      15.365  12.058  25.737  0.00  0.00    +0.300 C 
ATOM     34  H   UNL     1      14.918  10.110  25.177  0.00  0.00    +0.151 HD
ATOM     38  H   UNL     1      16.232  10.471  26.746  0.00  0.00    +0.151 HD
BRANCH   8  18
ATOM     18  C   UNL     1      16.961  12.258  27.646  0.00  0.00    +0.074 C 
ATOM     19  C   UNL     1      18.262  11.528  27.996  0.00  0.00    +0.022 C 
ATOM     20  C   UNL     1      16.163  12.607  28.907  0.00  0.00    +0.022 C 
ATOM     21  C   UNL     1      18.028  10.316  28.898  0.00  0.00    +0.002 C 
ATOM     22  C   UNL     1      15.932  11.393  29.809  0.00  0.00    +0.002 C 
ATOM     23  C   UNL     1      17.243  10.690  30.152  0.00  0.00    +0.000 C 
ENDBRANCH   8  18
ENDBRANCH  12   7
BRANCH  11  17
ATOM      4  O   UNL     1      12.928   9.786  19.390  0.00  0.00    -0.273 OA
ATOM      9  N   UNL     1      13.522   8.339  21.113  0.00  0.00    -0.301 N 
ATOM     17  C   UNL     1      13.146   9.559  20.576  0.00  0.00    +0.246 C 
ATOM     39  H   UNL     1      13.804   8.300  22.089  0.00  0.00    +0.150 HD
BRANCH   9  25
ATOM     25  C   UNL     1      13.706   7.148  20.317  0.00  0.00    +0.163 C 
BRANCH  25  27
ATOM      6  O   UNL     1      11.386   6.434  20.439  0.00  0.00    -0.274 OA
ATOM     10  N   UNL     1      12.283   6.906  18.378  0.00  0.00    -0.328 N 
ATOM     27  C   UNL     1      12.344   6.774  19.749  0.00  0.00    +0.231 C 
ATOM     40  H   UNL     1      11.427   6.702  17.873  0.00  0.00    +0.145 HD
ATOM     41  H   UNL     1      13.077   7.211  17.823  0.00  0.00    +0.145 HD
ENDBRANCH  25  27
BRANCH  25  26
ATOM     26  C   UNL     1      14.716   7.359  19.184  0.00  0.00    +0.067 C 
BRANCH  26  28
ATOM     28  C   UNL     1      16.116   6.943  19.565  0.00  0.00    -0.045 A 
ATOM     29  C   UNL     1      16.742   5.930  18.854  0.00  0.00    +0.004 A 
ATOM     30  C   UNL     1      16.752   7.581  20.619  0.00  0.00    +0.004 A 
ATOM     31  C   UNL     1      18.035   5.547  19.205  0.00  0.00    +0.000 A 
ATOM     32  C   UNL     1      18.046   7.197  20.969  0.00  0.00    +0.000 A 
ATOM     33  C   UNL     1      18.687   6.179  20.264  0.00  0.00    +0.000 A 
ENDBRANCH  26  28
ENDBRANCH  25  26
ENDBRANCH   9  25
ENDBRANCH  11  17
BRANCH  11   1
ATOM      1  O   UNL     1      13.304  11.842  20.959  0.00  0.00    -0.379 OA
ATOM     35  H   UNL     1      13.687  11.631  20.091  0.00  0.00    +0.211 HD
ENDBRANCH  11   1
BRANCH  14   2
ATOM      2  O   UNL     1      12.229  12.585  25.295  0.00  0.00    -0.387 OA
ATOM     36  H   UNL     1      11.514  12.374  25.917  0.00  0.00    +0.210 HD
ENDBRANCH  14   2
BRANCH  16   3
ATOM      3  O   UNL     1      10.048  11.586  23.762  0.00  0.00    -0.389 OA
ATOM     37  H   UNL     1       9.871  10.643  23.918  0.00  0.00    +0.210 HD
ENDBRANCH  16   3
TORSDOF 10
ENDMDL
MODEL 4
REMARK VINA RESULT:      -7.2     28.019     30.764
REMARK  Name = 7050205
REMARK  10 active torsions:
REMARK  status: ('A' for Active; 'I' for Inactive)
REMARK    1  A    between atoms: O_1  and  C_11
REMARK    2  A    between atoms: O_2  and  C_14
REMARK    3  A    between atoms: O_3  and  C_16
REMARK    4  A    between atoms: N_7  and  C_12
REMARK    5  A    between atoms: N_8  and  C_18
REMARK    6  A    between atoms: N_9  and  C_25
REMARK    7  A    between atoms: C_11  and  C_17
REMARK    8  A    between atoms: C_25  and  C_26
REMARK    9  A    between atoms: C_25  and  C_27
REMARK   10  A    between atoms: C_26  and  C_28
REMARK                            x       y       z     vdW  Elec       q    Type
REMARK                         _______ _______ _______ _____ _____    ______ ____
ROOT
ATOM     11  C   UNL     1      -6.099 -11.101  17.855  0.00  0.00    +0.146 C 
ATOM     12  C   UNL     1      -4.870 -11.488  15.665  0.00  0.00    +0.109 C 
ATOM     13  C   UNL     1      -6.116 -10.903  16.338  0.00  0.00    +0.069 C 
ATOM     14  C   UNL     1      -4.652 -12.959  16.045  0.00  0.00    +0.163 C 
ATOM     15  C   UNL     1      -5.902 -12.571  18.219  0.00  0.00    +0.078 C 
ATOM     16  C   UNL     1      -4.655 -13.166  17.562  0.00  0.00    +0.148 C 
ENDROOT
BRANCH  12   7
ATOM      5  O   UNL     1      -2.700 -11.236  13.796  0.00  0.00    -0.253 OA
ATOM      7  N   UNL     1      -4.977 -11.344  14.228  0.00  0.00    -0.294 N 
ATOM      8  N   UNL     1      -4.245 -11.103  12.066  0.00  0.00    -0.297 N 
ATOM     24  C   UNL     1      -3.866 -11.229  13.401  0.00  0.00    +0.300 C 
ATOM     34  H   UNL     1      -5.900 -11.251  13.816  0.00  0.00    +0.151 HD
ATOM     38  H   UNL     1      -5.236 -11.035  11.859  0.00  0.00    +0.151 HD
BRANCH   8  18
ATOM     18  C   UNL     1      -3.296 -10.965  10.984  0.00  0.00    +0.074 C 
ATOM     19  C   UNL     1      -3.004  -9.490  10.691  0.00  0.00    +0.022 C 
ATOM     20  C   UNL     1      -3.784 -11.695   9.728  0.00  0.00    +0.022 C 
ATOM     21  C   UNL     1      -4.181  -8.782  10.020  0.00  0.00    +0.002 C 
ATOM     22  C   UNL     1      -4.961 -10.984   9.058  0.00  0.00    +0.002 C 
ATOM     23  C   UNL     1      -4.642  -9.520   8.767  0.00  0.00    +0.000 C 
ENDBRANCH   8  18
ENDBRANCH  12   7
BRANCH  11  17
ATOM      4  O   UNL     1      -7.606 -10.714  19.667  0.00  0.00    -0.273 OA
ATOM      9  N   UNL     1      -8.192  -9.977  17.538  0.00  0.00    -0.301 N 
ATOM     17  C   UNL     1      -7.365 -10.580  18.470  0.00  0.00    +0.246 C 
ATOM     39  H   UNL     1      -7.832  -9.805  16.603  0.00  0.00    +0.150 HD
BRANCH   9  25
ATOM     25  C   UNL     1      -9.480  -9.416  17.871  0.00  0.00    +0.163 C 
BRANCH  25  27
ATOM      6  O   UNL     1     -10.398  -7.257  17.232  0.00  0.00    -0.274 OA
ATOM     10  N   UNL     1      -9.006  -8.338  15.759  0.00  0.00    -0.328 N 
ATOM     27  C   UNL     1      -9.705  -8.230  16.943  0.00  0.00    +0.231 C 
ATOM     40  H   UNL     1      -9.056  -7.609  15.056  0.00  0.00    +0.145 HD
ATOM     41  H   UNL     1      -8.419  -9.138  15.544  0.00  0.00    +0.145 HD
ENDBRANCH  25  27
BRANCH  25  26
ATOM     26  C   UNL     1     -10.614 -10.435  17.718  0.00  0.00    +0.067 C 
BRANCH  26  28
ATOM     28  C   UNL     1     -11.795 -10.132  18.607  0.00  0.00    -0.045 A 
ATOM     29  C   UNL     1     -13.038  -9.908  18.034  0.00  0.00    +0.004 A 
ATOM     30  C   UNL     1     -11.617 -10.084  19.981  0.00  0.00    +0.004 A 
ATOM     31  C   UNL     1     -14.130  -9.630  18.856  0.00  0.00    +0.000 A 
ATOM     32  C   UNL     1     -12.709  -9.806  20.802  0.00  0.00    +0.000 A 
ATOM     33  C   UNL     1     -13.965  -9.578  20.240  0.00  0.00    +0.000 A 
ENDBRANCH  26  28
ENDBRANCH  25  26
ENDBRANCH   9  25
ENDBRANCH  11  17
BRANCH  11   1
ATOM      1  O   UNL     1      -5.058 -10.332  18.446  0.00  0.00    -0.379 OA
ATOM     35  H   UNL     1      -4.643 -10.864  19.146  0.00  0.00    +0.211 HD
ENDBRANCH  11   1
BRANCH  14   2
ATOM      2  O   UNL     1      -3.378 -13.385  15.553  0.00  0.00    -0.387 OA
ATOM     36  H   UNL     1      -2.995 -12.645  15.052  0.00  0.00    +0.210 HD
ENDBRANCH  14   2
BRANCH  16   3
ATOM      3  O   UNL     1      -4.619 -14.568  17.826  0.00  0.00    -0.389 OA
ATOM     37  H   UNL     1      -5.325 -14.768  18.464  0.00  0.00    +0.210 HD
ENDBRANCH  16   3
TORSDOF 10
ENDMDL
MODEL 5
REMARK VINA RESULT:      -7.2     25.951     29.445
REMARK  Name = 7050205
REMARK  10 active torsions:
REMARK  status: ('A' for Active; 'I' for Inactive)
REMARK    1  A    between atoms: O_1  and  C_11
REMARK    2  A    between atoms: O_2  and  C_14
REMARK    3  A    between atoms: O_3  and  C_16
REMARK    4  A    between atoms: N_7  and  C_12
REMARK    5  A    between atoms: N_8  and  C_18
REMARK    6  A    between atoms: N_9  and  C_25
REMARK    7  A    between atoms: C_11  and  C_17
REMARK    8  A    between atoms: C_25  and  C_26
REMARK    9  A    between atoms: C_25  and  C_27
REMARK   10  A    between atoms: C_26  and  C_28
REMARK                            x       y       z     vdW  Elec       q    Type
REMARK                         _______ _______ _______ _____ _____    ______ ____
ROOT
ATOM     11  C   UNL     1     -16.172   6.374  21.765  0.00  0.00    +0.146 C 
ATOM     12  C   UNL     1     -16.676   5.079  23.892  0.00  0.00    +0.109 C 
ATOM     13  C   UNL     1     -15.655   5.934  23.136  0.00  0.00    +0.069 C 
ATOM     14  C   UNL     1     -17.156   3.886  23.053  0.00  0.00    +0.163 C 
ATOM     15  C   UNL     1     -16.627   5.177  20.934  0.00  0.00    +0.078 C 
ATOM     16  C   UNL     1     -17.656   4.320  21.673  0.00  0.00    +0.148 C 
ENDROOT
BRANCH  12   7
ATOM      5  O   UNL     1     -18.057   4.737  26.391  0.00  0.00    -0.253 OA
ATOM      7  N   UNL     1     -16.105   4.625  25.142  0.00  0.00    -0.294 N 
ATOM      8  N   UNL     1     -16.066   4.039  27.361  0.00  0.00    -0.297 N 
ATOM     24  C   UNL     1     -16.854   4.490  26.305  0.00  0.00    +0.300 C 
ATOM     34  H   UNL     1     -15.103   4.470  25.191  0.00  0.00    +0.151 HD
ATOM     38  H   UNL     1     -15.070   3.936  27.199  0.00  0.00    +0.151 HD
BRANCH   8  18
ATOM     18  C   UNL     1     -16.583   3.808  28.692  0.00  0.00    +0.074 C 
ATOM     19  C   UNL     1     -15.508   4.066  29.753  0.00  0.00    +0.022 C 
ATOM     20  C   UNL     1     -17.162   2.395  28.819  0.00  0.00    +0.022 C 
ATOM     21  C   UNL     1     -14.426   2.986  29.765  0.00  0.00    +0.002 C 
ATOM     22  C   UNL     1     -16.078   1.317  28.833  0.00  0.00    +0.002 C 
ATOM     23  C   UNL     1     -15.026   1.590  29.905  0.00  0.00    +0.000 C 
ENDBRANCH   8  18
ENDBRANCH  12   7
BRANCH  11  17
ATOM      4  O   UNL     1     -14.942   7.009  19.819  0.00  0.00    -0.273 OA
ATOM      9  N   UNL     1     -14.400   7.984  21.862  0.00  0.00    -0.301 N 
ATOM     17  C   UNL     1     -15.120   7.148  21.026  0.00  0.00    +0.246 C 
ATOM     39  H   UNL     1     -14.722   8.117  22.816  0.00  0.00    +0.150 HD
BRANCH   9  25
ATOM     25  C   UNL     1     -13.315   8.819  21.400  0.00  0.00    +0.163 C 
BRANCH  25  27
ATOM      6  O   UNL     1     -12.311  10.829  22.329  0.00  0.00    -0.274 OA
ATOM     10  N   UNL     1     -13.899   9.723  23.565  0.00  0.00    -0.328 N 
ATOM     27  C   UNL     1     -13.092   9.889  22.460  0.00  0.00    +0.231 C 
ATOM     40  H   UNL     1     -13.862  10.376  24.341  0.00  0.00    +0.145 HD
ATOM     41  H   UNL     1     -14.557   8.954  23.649  0.00  0.00    +0.145 HD
ENDBRANCH  25  27
BRANCH  25  26
ATOM     26  C   UNL     1     -12.027   8.021  21.170  0.00  0.00    +0.067 C 
BRANCH  26  28
ATOM     28  C   UNL     1     -11.385   8.322  19.838  0.00  0.00    -0.045 A 
ATOM     29  C   UNL     1     -11.541   7.427  18.790  0.00  0.00    +0.004 A 
ATOM     30  C   UNL     1     -10.650   9.487  19.685  0.00  0.00    +0.004 A 
ATOM     31  C   UNL     1     -10.949   7.706  17.559  0.00  0.00    +0.000 A 
ATOM     32  C   UNL     1     -10.058   9.765  18.453  0.00  0.00    +0.000 A 
ATOM     33  C   UNL     1     -10.206   8.874  17.390  0.00  0.00    +0.000 A 
ENDBRANCH  26  28
ENDBRANCH  25  26
ENDBRANCH   9  25
ENDBRANCH  11  17
BRANCH  11   1
ATOM      1  O   UNL     1     -17.261   7.279  21.911  0.00  0.00    -0.379 OA
ATOM     35  H   UNL     1     -17.948   6.849  22.448  0.00  0.00    +0.211 HD
ENDBRANCH  11   1
BRANCH  14   2
ATOM      2  O   UNL     1     -18.246   3.250  23.728  0.00  0.00    -0.387 OA
ATOM     36  H   UNL     1     -19.026   3.820  23.629  0.00  0.00    +0.210 HD
ENDBRANCH  14   2
BRANCH  16   3
ATOM      3  O   UNL     1     -17.921   3.148  20.901  0.00  0.00    -0.389 OA
ATOM     37  H   UNL     1     -17.066   2.771  20.633  0.00  0.00    +0.210 HD
ENDBRANCH  16   3
TORSDOF 10
ENDMDL
MODEL 6
REMARK VINA RESULT:      -7.2     27.350     30.107
REMARK  Name = 7050205
REMARK  10 active torsions:
REMARK  status: ('A' for Active; 'I' for Inactive)
REMARK    1  A    between atoms: O_1  and  C_11
REMARK    2  A    between atoms: O_2  and  C_14
REMARK    3  A    between atoms: O_3  and  C_16
REMARK    4  A    between atoms: N_7  and  C_12
REMARK    5  A    between atoms: N_8  and  C_18
REMARK    6  A    between atoms: N_9  and  C_25
REMARK    7  A    between atoms: C_11  and  C_17
REMARK    8  A    between atoms: C_25  and  C_26
REMARK    9  A    between atoms: C_25  and  C_27
REMARK   10  A    between atoms: C_26  and  C_28
REMARK                            x       y       z     vdW  Elec       q    Type
REMARK                         _______ _______ _______ _____ _____    ______ ____
ROOT
ATOM     11  C   UNL     1      -6.726 -10.714  18.588  0.00  0.00    +0.146 C 
ATOM     12  C   UNL     1      -4.813 -10.253  16.980  0.00  0.00    +0.109 C 
ATOM     13  C   UNL     1      -6.333 -10.287  17.173  0.00  0.00    +0.069 C 
ATOM     14  C   UNL     1      -4.157 -11.582  17.377  0.00  0.00    +0.163 C 
ATOM     15  C   UNL     1      -6.082 -12.047  18.963  0.00  0.00    +0.078 C 
ATOM     16  C   UNL     1      -4.563 -12.024  18.785  0.00  0.00    +0.148 C 
ENDROOT
BRANCH  12   7
ATOM      5  O   UNL     1      -4.652 -12.079  14.766  0.00  0.00    -0.253 OA
ATOM      7  N   UNL     1      -4.502  -9.922  15.606  0.00  0.00    -0.294 N 
ATOM      8  N   UNL     1      -4.127 -10.296  13.372  0.00  0.00    -0.297 N 
ATOM     24  C   UNL     1      -4.447 -10.877  14.597  0.00  0.00    +0.300 C 
ATOM     34  H   UNL     1      -4.242  -8.967  15.383  0.00  0.00    +0.151 HD
ATOM     38  H   UNL     1      -3.906  -9.306  13.360  0.00  0.00    +0.151 HD
BRANCH   8  18
ATOM     18  C   UNL     1      -4.001 -11.054  12.147  0.00  0.00    +0.074 C 
ATOM     19  C   UNL     1      -2.582 -10.950  11.578  0.00  0.00    +0.022 C 
ATOM     20  C   UNL     1      -5.047 -10.611  11.118  0.00  0.00    +0.022 C 
ATOM     21  C   UNL     1      -2.285  -9.568  10.995  0.00  0.00    +0.002 C 
ATOM     22  C   UNL     1      -4.746  -9.230  10.534  0.00  0.00    +0.002 C 
ATOM     23  C   UNL     1      -3.332  -9.155   9.964  0.00  0.00    +0.000 C 
ENDBRANCH   8  18
ENDBRANCH  12   7
BRANCH  11  17
ATOM      4  O   UNL     1      -8.752 -11.492  19.584  0.00  0.00    -0.273 OA
ATOM      9  N   UNL     1      -8.874 -10.057  17.756  0.00  0.00    -0.301 N 
ATOM     17  C   UNL     1      -8.218 -10.805  18.718  0.00  0.00    +0.246 C 
ATOM     39  H   UNL     1      -8.333  -9.423  17.175  0.00  0.00    +0.150 HD
BRANCH   9  25
ATOM     25  C   UNL     1     -10.314  -9.995  17.650  0.00  0.00    +0.163 C 
BRANCH  25  27
ATOM      6  O   UNL     1     -11.789  -8.146  17.089  0.00  0.00    -0.274 OA
ATOM     10  N   UNL     1      -9.670  -7.672  17.839  0.00  0.00    -0.328 N 
ATOM     27  C   UNL     1     -10.686  -8.529  17.473  0.00  0.00    +0.231 C 
ATOM     40  H   UNL     1      -9.792  -6.666  17.783  0.00  0.00    +0.145 HD
ATOM     41  H   UNL     1      -8.772  -8.004  18.176  0.00  0.00    +0.145 HD
ENDBRANCH  25  27
BRANCH  25  26
ATOM     26  C   UNL     1     -10.845 -10.825  16.477  0.00  0.00    +0.067 C 
BRANCH  26  28
ATOM     28  C   UNL     1      -9.825 -11.007  15.380  0.00  0.00    -0.045 A 
ATOM     29  C   UNL     1      -9.105 -12.190  15.310  0.00  0.00    +0.004 A 
ATOM     30  C   UNL     1      -9.624  -9.987  14.462  0.00  0.00    +0.004 A 
ATOM     31  C   UNL     1      -8.163 -12.358  14.296  0.00  0.00    +0.000 A 
ATOM     32  C   UNL     1      -8.681 -10.156  13.448  0.00  0.00    +0.000 A 
ATOM     33  C   UNL     1      -7.950 -11.341  13.365  0.00  0.00    +0.000 A 
ENDBRANCH  26  28
ENDBRANCH  25  26
ENDBRANCH   9  25
ENDBRANCH  11  17
BRANCH  11   1
ATOM      1  O   UNL     1      -6.332  -9.726  19.534  0.00  0.00    -0.379 OA
ATOM     35  H   UNL     1      -6.938  -8.969  19.458  0.00  0.00    +0.211 HD
ENDBRANCH  11   1
BRANCH  14   2
ATOM      2  O   UNL     1      -2.735 -11.422  17.368  0.00  0.00    -0.387 OA
ATOM     36  H   UNL     1      -2.371 -11.981  18.075  0.00  0.00    +0.210 HD
ENDBRANCH  14   2
BRANCH  16   3
ATOM      3  O   UNL     1      -4.052 -13.338  19.010  0.00  0.00    -0.389 OA
ATOM     37  H   UNL     1      -3.526 -13.588  18.233  0.00  0.00    +0.210 HD
ENDBRANCH  16   3
TORSDOF 10
ENDMDL
MODEL 7
REMARK VINA RESULT:      -7.1     27.587     31.066
REMARK  Name = 7050205
REMARK  10 active torsions:
REMARK  status: ('A' for Active; 'I' for Inactive)
REMARK    1  A    between atoms: O_1  and  C_11
REMARK    2  A    between atoms: O_2  and  C_14
REMARK    3  A    between atoms: O_3  and  C_16
REMARK    4  A    between atoms: N_7  and  C_12
REMARK    5  A    between atoms: N_8  and  C_18
REMARK    6  A    between atoms: N_9  and  C_25
REMARK    7  A    between atoms: C_11  and  C_17
REMARK    8  A    between atoms: C_25  and  C_26
REMARK    9  A    between atoms: C_25  and  C_27
REMARK   10  A    between atoms: C_26  and  C_28
REMARK                            x       y       z     vdW  Elec       q    Type
REMARK                         _______ _______ _______ _____ _____    ______ ____
ROOT
ATOM     11  C   UNL     1      -6.842 -10.927  18.169  0.00  0.00    +0.146 C 
ATOM     12  C   UNL     1      -4.808 -10.396  16.742  0.00  0.00    +0.109 C 
ATOM     13  C   UNL     1      -6.335 -10.503  16.790  0.00  0.00    +0.069 C 
ATOM     14  C   UNL     1      -4.130 -11.685  17.228  0.00  0.00    +0.163 C 
ATOM     15  C   UNL     1      -6.175 -12.221  18.631  0.00  0.00    +0.078 C 
ATOM     16  C   UNL     1      -4.649 -12.125  18.599  0.00  0.00    +0.148 C 
ENDROOT
BRANCH  12   7
ATOM      5  O   UNL     1      -5.368 -11.892  14.352  0.00  0.00    -0.253 OA
ATOM      7  N   UNL     1      -4.381 -10.072  15.398  0.00  0.00    -0.294 N 
ATOM      8  N   UNL     1      -4.170 -10.325  13.126  0.00  0.00    -0.297 N 
ATOM     24  C   UNL     1      -4.702 -10.858  14.298  0.00  0.00    +0.300 C 
ATOM     34  H   UNL     1      -3.762  -9.279  15.262  0.00  0.00    +0.151 HD
ATOM     38  H   UNL     1      -3.574  -9.507  13.205  0.00  0.00    +0.151 HD
BRANCH   8  18
ATOM     18  C   UNL     1      -4.346 -10.936  11.828  0.00  0.00    +0.074 C 
ATOM     19  C   UNL     1      -3.044 -10.898  11.020  0.00  0.00    +0.022 C 
ATOM     20  C   UNL     1      -5.496 -10.275  11.061  0.00  0.00    +0.022 C 
ATOM     21  C   UNL     1      -2.696  -9.490  10.537  0.00  0.00    +0.002 C 
ATOM     22  C   UNL     1      -5.145  -8.868  10.577  0.00  0.00    +0.002 C 
ATOM     23  C   UNL     1      -3.852  -8.858   9.766  0.00  0.00    +0.000 C 
ENDBRANCH   8  18
ENDBRANCH  12   7
BRANCH  11  17
ATOM      4  O   UNL     1      -8.989 -10.980  17.125  0.00  0.00    -0.273 OA
ATOM      9  N   UNL     1      -8.843 -11.345  19.419  0.00  0.00    -0.301 N 
ATOM     17  C   UNL     1      -8.335 -11.089  18.157  0.00  0.00    +0.246 C 
ATOM     39  H   UNL     1      -8.196 -11.547  20.176  0.00  0.00    +0.150 HD
BRANCH   9  25
ATOM     25  C   UNL     1     -10.253 -11.519  19.682  0.00  0.00    +0.163 C 
BRANCH  25  27
ATOM      6  O   UNL     1     -11.383 -12.970  21.272  0.00  0.00    -0.274 OA
ATOM     10  N   UNL     1      -9.317 -13.597  20.487  0.00  0.00    -0.328 N 
ATOM     27  C   UNL     1     -10.395 -12.742  20.577  0.00  0.00    +0.231 C 
ATOM     40  H   UNL     1      -9.289 -14.458  21.022  0.00  0.00    +0.145 HD
ATOM     41  H   UNL     1      -8.518 -13.406  19.891  0.00  0.00    +0.145 HD
ENDBRANCH  25  27
BRANCH  25  26
ATOM     26  C   UNL     1     -10.873 -10.290  20.356  0.00  0.00    +0.067 C 
BRANCH  26  28
ATOM     28  C   UNL     1     -12.229  -9.938  19.797  0.00  0.00    -0.045 A 
ATOM     29  C   UNL     1     -12.362  -9.697  18.438  0.00  0.00    +0.004 A 
ATOM     30  C   UNL     1     -13.318  -9.862  20.651  0.00  0.00    +0.004 A 
ATOM     31  C   UNL     1     -13.616  -9.373  17.921  0.00  0.00    +0.000 A 
ATOM     32  C   UNL     1     -14.572  -9.538  20.133  0.00  0.00    +0.000 A 
ATOM     33  C   UNL     1     -14.721  -9.292  18.768  0.00  0.00    +0.000 A 
ENDBRANCH  26  28
ENDBRANCH  25  26
ENDBRANCH   9  25
ENDBRANCH  11  17
BRANCH  11   1
ATOM      1  O   UNL     1      -6.590  -9.906  19.128  0.00  0.00    -0.379 OA
ATOM     35  H   UNL     1      -6.690  -9.043  18.691  0.00  0.00    +0.211 HD
ENDBRANCH  11   1
BRANCH  14   2
ATOM      2  O   UNL     1      -2.723 -11.454  17.351  0.00  0.00    -0.387 OA
ATOM     36  H   UNL     1      -2.346 -11.453  16.456  0.00  0.00    +0.210 HD
ENDBRANCH  14   2
BRANCH  16   3
ATOM      3  O   UNL     1      -4.100 -13.408  18.899  0.00  0.00    -0.389 OA
ATOM     37  H   UNL     1      -3.226 -13.462  18.476  0.00  0.00    +0.210 HD
ENDBRANCH  16   3
TORSDOF 10
ENDMDL
MODEL 8
REMARK VINA RESULT:      -7.1     27.705     30.647
REMARK  Name = 7050205
REMARK  10 active torsions:
REMARK  status: ('A' for Active; 'I' for Inactive)
REMARK    1  A    between atoms: O_1  and  C_11
REMARK    2  A    between atoms: O_2  and  C_14
REMARK    3  A    between atoms: O_3  and  C_16
REMARK    4  A    between atoms: N_7  and  C_12
REMARK    5  A    between atoms: N_8  and  C_18
REMARK    6  A    between atoms: N_9  and  C_25
REMARK    7  A    between atoms: C_11  and  C_17
REMARK    8  A    between atoms: C_25  and  C_26
REMARK    9  A    between atoms: C_25  and  C_27
REMARK   10  A    between atoms: C_26  and  C_28
REMARK                            x       y       z     vdW  Elec       q    Type
REMARK                         _______ _______ _______ _____ _____    ______ ____
ROOT
ATOM     11  C   UNL     1      -7.169 -11.031  17.812  0.00  0.00    +0.146 C 
ATOM     12  C   UNL     1      -5.684  -9.865  16.111  0.00  0.00    +0.109 C 
ATOM     13  C   UNL     1      -7.016 -10.580  16.358  0.00  0.00    +0.069 C 
ATOM     14  C   UNL     1      -4.488 -10.708  16.576  0.00  0.00    +0.163 C 
ATOM     15  C   UNL     1      -5.983 -11.885  18.255  0.00  0.00    +0.078 C 
ATOM     16  C   UNL     1      -4.646 -11.178  18.024  0.00  0.00    +0.148 C 
ENDROOT
BRANCH  12   7
ATOM      5  O   UNL     1      -5.333 -11.710  13.934  0.00  0.00    -0.253 OA
ATOM      7  N   UNL     1      -5.559  -9.534  14.708  0.00  0.00    -0.294 N 
ATOM      8  N   UNL     1      -5.298  -9.916  12.459  0.00  0.00    -0.297 N 
ATOM     24  C   UNL     1      -5.392 -10.499  13.721  0.00  0.00    +0.300 C 
ATOM     34  H   UNL     1      -5.519  -8.556  14.440  0.00  0.00    +0.151 HD
ATOM     38  H   UNL     1      -5.285  -8.903  12.405  0.00  0.00    +0.151 HD
BRANCH   8  18
ATOM     18  C   UNL     1      -5.119 -10.682  11.246  0.00  0.00    +0.074 C 
ATOM     19  C   UNL     1      -3.645 -10.722  10.831  0.00  0.00    +0.022 C 
ATOM     20  C   UNL     1      -6.000 -10.135  10.117  0.00  0.00    +0.022 C 
ATOM     21  C   UNL     1      -3.150  -9.377  10.299  0.00  0.00    +0.002 C 
ATOM     22  C   UNL     1      -5.501  -8.790   9.584  0.00  0.00    +0.002 C 
ATOM     23  C   UNL     1      -4.034  -8.859   9.168  0.00  0.00    +0.000 C 
ENDBRANCH   8  18
ENDBRANCH  12   7
BRANCH  11  17
ATOM      4  O   UNL     1      -8.521 -12.999  17.811  0.00  0.00    -0.273 OA
ATOM      9  N   UNL     1      -9.497 -10.963  18.375  0.00  0.00    -0.301 N 
ATOM     17  C   UNL     1      -8.451 -11.788  17.999  0.00  0.00    +0.246 C 
ATOM     39  H   UNL     1      -9.294 -10.001  18.631  0.00  0.00    +0.150 HD
BRANCH   9  25
ATOM     25  C   UNL     1     -10.842 -11.443  18.596  0.00  0.00    +0.163 C 
BRANCH  25  27
ATOM      6  O   UNL     1     -12.104 -11.655  20.662  0.00  0.00    -0.274 OA
ATOM     10  N   UNL     1     -10.403 -10.114  20.567  0.00  0.00    -0.328 N 
ATOM     27  C   UNL     1     -11.212 -11.094  20.030  0.00  0.00    +0.231 C 
ATOM     40  H   UNL     1     -10.533  -9.797  21.522  0.00  0.00    +0.145 HD
ATOM     41  H   UNL     1      -9.655  -9.676  20.040  0.00  0.00    +0.145 HD
ENDBRANCH  25  27
BRANCH  25  26
ATOM     26  C   UNL     1     -11.847 -10.821  17.620  0.00  0.00    +0.067 C 
BRANCH  26  28
ATOM     28  C   UNL     1     -11.283  -9.633  16.879  0.00  0.00    -0.045 A 
ATOM     29  C   UNL     1     -11.327  -8.380  17.470  0.00  0.00    +0.004 A 
ATOM     30  C   UNL     1     -10.732  -9.816  15.620  0.00  0.00    +0.004 A 
ATOM     31  C   UNL     1     -10.804  -7.283  16.786  0.00  0.00    +0.000 A 
ATOM     32  C   UNL     1     -10.210  -8.719  14.936  0.00  0.00    +0.000 A 
ATOM     33  C   UNL     1     -10.247  -7.452  15.519  0.00  0.00    +0.000 A 
ENDBRANCH  26  28
ENDBRANCH  25  26
ENDBRANCH   9  25
ENDBRANCH  11  17
BRANCH  11   1
ATOM      1  O   UNL     1      -7.278  -9.903  18.674  0.00  0.00    -0.379 OA
ATOM     35  H   UNL     1      -8.117  -9.451  18.483  0.00  0.00    +0.211 HD
ENDBRANCH  11   1
BRANCH  14   2
ATOM      2  O   UNL     1      -3.302  -9.912  16.507  0.00  0.00    -0.387 OA
ATOM     36  H   UNL     1      -3.574  -8.990  16.361  0.00  0.00    +0.210 HD
ENDBRANCH  14   2
BRANCH  16   3
ATOM      3  O   UNL     1      -3.587 -12.087  18.321  0.00  0.00    -0.389 OA
ATOM     37  H   UNL     1      -2.800 -11.795  17.831  0.00  0.00    +0.210 HD
ENDBRANCH  16   3
TORSDOF 10
ENDMDL
MODEL 9
REMARK VINA RESULT:      -7.1     29.650     31.646
REMARK  Name = 7050205
REMARK  10 active torsions:
REMARK  status: ('A' for Active; 'I' for Inactive)
REMARK    1  A    between atoms: O_1  and  C_11
REMARK    2  A    between atoms: O_2  and  C_14
REMARK    3  A    between atoms: O_3  and  C_16
REMARK    4  A    between atoms: N_7  and  C_12
REMARK    5  A    between atoms: N_8  and  C_18
REMARK    6  A    between atoms: N_9  and  C_25
REMARK    7  A    between atoms: C_11  and  C_17
REMARK    8  A    between atoms: C_25  and  C_26
REMARK    9  A    between atoms: C_25  and  C_27
REMARK   10  A    between atoms: C_26  and  C_28
REMARK                            x       y       z     vdW  Elec       q    Type
REMARK                         _______ _______ _______ _____ _____    ______ ____
ROOT
ATOM     11  C   UNL     1     -16.053   2.520  28.839  0.00  0.00    +0.146 C 
ATOM     12  C   UNL     1     -16.037   3.323  26.429  0.00  0.00    +0.109 C 
ATOM     13  C   UNL     1     -16.183   3.720  27.901  0.00  0.00    +0.069 C 
ATOM     14  C   UNL     1     -17.001   2.191  26.044  0.00  0.00    +0.163 C 
ATOM     15  C   UNL     1     -17.030   1.410  28.458  0.00  0.00    +0.078 C 
ATOM     16  C   UNL     1     -16.888   0.995  26.993  0.00  0.00    +0.148 C 
ENDROOT
BRANCH  12   7
ATOM      5  O   UNL     1     -14.620   3.974  24.014  0.00  0.00    -0.253 OA
ATOM      7  N   UNL     1     -16.249   4.480  25.586  0.00  0.00    -0.294 N 
ATOM      8  N   UNL     1     -15.914   5.892  23.808  0.00  0.00    -0.297 N 
ATOM     24  C   UNL     1     -15.512   4.713  24.431  0.00  0.00    +0.300 C 
ATOM     34  H   UNL     1     -16.911   5.188  25.889  0.00  0.00    +0.151 HD
ATOM     38  H   UNL     1     -16.609   6.464  24.276  0.00  0.00    +0.151 HD
BRANCH   8  18
ATOM     18  C   UNL     1     -15.318   6.383  22.585  0.00  0.00    +0.074 C 
ATOM     19  C   UNL     1     -15.282   7.915  22.565  0.00  0.00    +0.022 C 
ATOM     20  C   UNL     1     -16.047   5.828  21.357  0.00  0.00    +0.022 C 
ATOM     21  C   UNL     1     -16.669   8.530  22.377  0.00  0.00    +0.002 C 
ATOM     22  C   UNL     1     -17.434   6.447  21.170  0.00  0.00    +0.002 C 
ATOM     23  C   UNL     1     -17.371   7.971  21.142  0.00  0.00    +0.000 C 
ENDBRANCH   8  18
ENDBRANCH  12   7
BRANCH  11  17
ATOM      4  O   UNL     1     -17.316   3.467  30.631  0.00  0.00    -0.273 OA
ATOM      9  N   UNL     1     -15.173   2.666  31.063  0.00  0.00    -0.301 N 
ATOM     17  C   UNL     1     -16.272   2.935  30.265  0.00  0.00    +0.246 C 
ATOM     39  H   UNL     1     -14.418   2.103  30.683  0.00  0.00    +0.150 HD
BRANCH   9  25
ATOM     25  C   UNL     1     -15.121   2.992  32.470  0.00  0.00    +0.163 C 
BRANCH  25  27
ATOM      6  O   UNL     1     -14.823   0.588  32.680  0.00  0.00    -0.274 OA
ATOM     10  N   UNL     1     -14.687   1.882  34.574  0.00  0.00    -0.328 N 
ATOM     27  C   UNL     1     -14.882   1.690  33.222  0.00  0.00    +0.231 C 
ATOM     40  H   UNL     1     -14.503   1.097  35.190  0.00  0.00    +0.145 HD
ATOM     41  H   UNL     1     -14.715   2.801  35.003  0.00  0.00    +0.145 HD
ENDBRANCH  25  27
BRANCH  25  26
ATOM     26  C   UNL     1     -14.015   4.003  32.790  0.00  0.00    +0.067 C 
BRANCH  26  28
ATOM     28  C   UNL     1     -14.533   5.415  32.913  0.00  0.00    -0.045 A 
ATOM     29  C   UNL     1     -15.884   5.627  33.148  0.00  0.00    +0.004 A 
ATOM     30  C   UNL     1     -13.650   6.477  32.789  0.00  0.00    +0.004 A 
ATOM     31  C   UNL     1     -16.362   6.931  33.262  0.00  0.00    +0.000 A 
ATOM     32  C   UNL     1     -14.129   7.782  32.903  0.00  0.00    +0.000 A 
ATOM     33  C   UNL     1     -15.485   8.009  33.139  0.00  0.00    +0.000 A 
ENDBRANCH  26  28
ENDBRANCH  25  26
ENDBRANCH   9  25
ENDBRANCH  11  17
BRANCH  11   1
ATOM      1  O   UNL     1     -14.727   2.003  28.805  0.00  0.00    -0.379 OA
ATOM     35  H   UNL     1     -14.607   1.415  29.570  0.00  0.00    +0.211 HD
ENDBRANCH  11   1
BRANCH  14   2
ATOM      2  O   UNL     1     -16.679   1.732  24.728  0.00  0.00    -0.387 OA
ATOM     36  H   UNL     1     -17.515   1.573  24.259  0.00  0.00    +0.210 HD
ENDBRANCH  14   2
BRANCH  16   3
ATOM      3  O   UNL     1     -17.925   0.067  26.673  0.00  0.00    -0.389 OA
ATOM     37  H   UNL     1     -18.700   0.292  27.214  0.00  0.00    +0.210 HD
ENDBRANCH  16   3
TORSDOF 10
ENDMDL
MODEL 10
REMARK VINA RESULT:      -7.1     17.059     19.740
REMARK  Name = 7050205
REMARK  10 active torsions:
REMARK  status: ('A' for Active; 'I' for Inactive)
REMARK    1  A    between atoms: O_1  and  C_11
REMARK    2  A    between atoms: O_2  and  C_14
REMARK    3  A    between atoms: O_3  and  C_16
REMARK    4  A    between atoms: N_7  and  C_12
REMARK    5  A    between atoms: N_8  and  C_18
REMARK    6  A    between atoms: N_9  and  C_25
REMARK    7  A    between atoms: C_11  and  C_17
REMARK    8  A    between atoms: C_25  and  C_26
REMARK    9  A    between atoms: C_25  and  C_27
REMARK   10  A    between atoms: C_26  and  C_28
REMARK                            x       y       z     vdW  Elec       q    Type
REMARK                         _______ _______ _______ _____ _____    ______ ____
ROOT
ATOM     11  C   UNL     1      12.789   7.145   3.511  0.00  0.00    +0.146 C 
ATOM     12  C   UNL     1      14.237   7.912   5.453  0.00  0.00    +0.109 C 
ATOM     13  C   UNL     1      14.213   7.324   4.038  0.00  0.00    +0.069 C 
ATOM     14  C   UNL     1      13.367   7.101   6.423  0.00  0.00    +0.163 C 
ATOM     15  C   UNL     1      11.939   6.321   4.476  0.00  0.00    +0.078 C 
ATOM     16  C   UNL     1      11.946   6.903   5.891  0.00  0.00    +0.148 C 
ENDROOT
BRANCH  12   7
ATOM      5  O   UNL     1      16.279   9.728   4.559  0.00  0.00    -0.253 OA
ATOM      7  N   UNL     1      15.601   7.983   5.930  0.00  0.00    -0.294 N 
ATOM      8  N   UNL     1      17.759   8.757   6.063  0.00  0.00    -0.297 N 
ATOM     24  C   UNL     1      16.523   8.899   5.437  0.00  0.00    +0.300 C 
ATOM     34  H   UNL     1      15.919   7.290   6.600  0.00  0.00    +0.151 HD
ATOM     38  H   UNL     1      17.871   7.993   6.721  0.00  0.00    +0.151 HD
BRANCH   8  18
ATOM     18  C   UNL     1      18.906   9.579   5.747  0.00  0.00    +0.074 C 
ATOM     19  C   UNL     1      19.599   9.090   4.471  0.00  0.00    +0.022 C 
ATOM     20  C   UNL     1      19.884   9.634   6.925  0.00  0.00    +0.022 C 
ATOM     21  C   UNL     1      20.344   7.772   4.678  0.00  0.00    +0.002 C 
ATOM     22  C   UNL     1      20.630   8.314   7.129  0.00  0.00    +0.002 C 
ATOM     23  C   UNL     1      21.321   7.854   5.848  0.00  0.00    +0.000 C 
ENDBRANCH   8  18
ENDBRANCH  12   7
BRANCH  11  17
ATOM      4  O   UNL     1      12.127   6.936   1.226  0.00  0.00    -0.273 OA
ATOM      9  N   UNL     1      13.630   5.393   2.109  0.00  0.00    -0.301 N 
ATOM     17  C   UNL     1      12.803   6.503   2.155  0.00  0.00    +0.246 C 
ATOM     39  H   UNL     1      14.243   5.207   2.898  0.00  0.00    +0.150 HD
BRANCH   9  25
ATOM     25  C   UNL     1      13.801   4.584   0.925  0.00  0.00    +0.163 C 
BRANCH  25  27
ATOM      6  O   UNL     1      15.976   3.878   0.100  0.00  0.00    -0.274 OA
ATOM     10  N   UNL     1      15.433   3.432   2.287  0.00  0.00    -0.328 N 
ATOM     27  C   UNL     1      15.170   3.926   1.027  0.00  0.00    +0.231 C 
ATOM     40  H   UNL     1      16.317   2.981   2.495  0.00  0.00    +0.145 HD
ATOM     41  H   UNL     1      14.766   3.500   3.049  0.00  0.00    +0.145 HD
ENDBRANCH  25  27
BRANCH  25  26
ATOM     26  C   UNL     1      12.707   3.519   0.788  0.00  0.00    +0.067 C 
BRANCH  26  28
ATOM     28  C   UNL     1      12.058   3.522  -0.575  0.00  0.00    -0.045 A 
ATOM     29  C   UNL     1      12.494   2.625  -1.538  0.00  0.00    +0.004 A 
ATOM     30  C   UNL     1      11.036   4.422  -0.839  0.00  0.00    +0.004 A 
ATOM     31  C   UNL     1      11.893   2.627  -2.796  0.00  0.00    +0.000 A 
ATOM     32  C   UNL     1      10.436   4.423  -2.098  0.00  0.00    +0.000 A 
ATOM     33  C   UNL     1      10.864   3.527  -3.077  0.00  0.00    +0.000 A 
ENDBRANCH  26  28
ENDBRANCH  25  26
ENDBRANCH   9  25
ENDBRANCH  11  17
BRANCH  11   1
ATOM      1  O   UNL     1      12.169   8.411   3.313  0.00  0.00    -0.379 OA
ATOM     35  H   UNL     1      12.427   8.746   2.437  0.00  0.00    +0.211 HD
ENDBRANCH  11   1
BRANCH  14   2
ATOM      2  O   UNL     1      13.269   7.808   7.664  0.00  0.00    -0.387 OA
ATOM     36  H   UNL     1      14.116   7.703   8.129  0.00  0.00    +0.210 HD
ENDBRANCH  14   2
BRANCH  16   3
ATOM      3  O   UNL     1      11.259   6.005   6.762  0.00  0.00    -0.389 OA
ATOM     37  H   UNL     1      10.783   6.537   7.421  0.00  0.00    +0.210 HD
ENDBRANCH  16   3
TORSDOF 10
ENDMDL
