MODEL 1
REMARK VINA RESULT:      -7.4      0.000      0.000
REMARK  Name = 75536987
REMARK  3 active torsions:
REMARK  status: ('A' for Active; 'I' for Inactive)
REMARK    1  A    between atoms: N_5  and  C_13
REMARK    2  A    between atoms: C_13  and  C_15
REMARK    3  A    between atoms: C_14  and  C_16
REMARK                            x       y       z     vdW  Elec       q    Type
REMARK                         _______ _______ _______ _____ _____    ______ ____
ROOT
ATOM      2  O   UNL     1     -17.177   2.133  22.542  0.00  0.00    -0.252 OA
ATOM      3  O   UNL     1     -16.620   0.203  29.234  0.00  0.00    -0.270 OA
ATOM      4  N   UNL     1     -16.624   2.230  24.824  0.00  0.00    -0.278 N 
ATOM      5  N   UNL     1     -16.461   4.112  23.606  0.00  0.00    -0.279 N 
ATOM      6  N   UNL     1     -16.909   1.803  27.555  0.00  0.00    -0.294 N 
ATOM      7  C   UNL     1     -16.055   3.209  25.735  0.00  0.00    +0.112 C 
ATOM      8  C   UNL     1     -16.151   4.522  24.964  0.00  0.00    +0.133 C 
ATOM      9  C   UNL     1     -16.804   3.190  27.063  0.00  0.00    +0.132 C 
ATOM     10  C   UNL     1     -16.847   0.867  25.274  0.00  0.00    +0.128 C 
ATOM     11  C   UNL     1     -17.561   0.872  26.624  0.00  0.00    +0.127 C 
ATOM     12  C   UNL     1     -16.798   2.746  23.532  0.00  0.00    +0.306 C 
ATOM     14  C   UNL     1     -16.493   1.350  28.808  0.00  0.00    +0.247 C 
ENDROOT
BRANCH  14  16
ATOM     16  C   UNL     1     -15.833   2.308  29.705  0.00  0.00    +0.037 A 
ATOM     19  C   UNL     1     -14.445   2.297  29.838  0.00  0.00    +0.013 A 
ATOM     20  C   UNL     1     -16.595   3.230  30.422  0.00  0.00    +0.013 A 
ATOM     24  C   UNL     1     -13.818   3.209  30.689  0.00  0.00    +0.001 A 
ATOM     25  C   UNL     1     -15.970   4.140  31.273  0.00  0.00    +0.001 A 
ATOM     26  C   UNL     1     -14.582   4.130  31.407  0.00  0.00    +0.000 A 
ENDBRANCH  14  16
BRANCH   5  13
ATOM     13  C   UNL     1     -16.534   5.061  22.517  0.00  0.00    +0.144 C 
BRANCH  13  15
ATOM      1  F   UNL     1     -11.442   6.925  21.001  0.00  0.00    -0.205 F 
ATOM     15  C   UNL     1     -15.176   5.558  22.114  0.00  0.00    -0.030 A 
ATOM     17  C   UNL     1     -15.042   6.809  21.511  0.00  0.00    +0.008 A 
ATOM     18  C   UNL     1     -14.049   4.769  22.339  0.00  0.00    +0.008 A 
ATOM     21  C   UNL     1     -13.780   7.271  21.136  0.00  0.00    +0.038 A 
ATOM     22  C   UNL     1     -12.787   5.230  21.964  0.00  0.00    +0.038 A 
ATOM     23  C   UNL     1     -12.653   6.481  21.362  0.00  0.00    +0.123 A 
ENDBRANCH  13  15
ENDBRANCH   5  13
TORSDOF 3
ENDMDL
MODEL 2
REMARK VINA RESULT:      -6.9     19.589     21.242
REMARK  Name = 75536987
REMARK  3 active torsions:
REMARK  status: ('A' for Active; 'I' for Inactive)
REMARK    1  A    between atoms: N_5  and  C_13
REMARK    2  A    between atoms: C_13  and  C_15
REMARK    3  A    between atoms: C_14  and  C_16
REMARK                            x       y       z     vdW  Elec       q    Type
REMARK                         _______ _______ _______ _____ _____    ______ ____
ROOT
ATOM      2  O   UNL     1      -1.333 -11.902  14.840  0.00  0.00    -0.252 OA
ATOM      3  O   UNL     1      -6.121 -10.289  19.666  0.00  0.00    -0.270 OA
ATOM      4  N   UNL     1      -3.400 -11.284  15.772  0.00  0.00    -0.278 N 
ATOM      5  N   UNL     1      -3.342 -11.878  13.605  0.00  0.00    -0.279 N 
ATOM      6  N   UNL     1      -5.465 -11.232  17.630  0.00  0.00    -0.294 N 
ATOM      7  C   UNL     1      -4.751 -11.049  15.291  0.00  0.00    +0.112 C 
ATOM      8  C   UNL     1      -4.749 -11.654  13.891  0.00  0.00    +0.133 C 
ATOM      9  C   UNL     1      -5.766 -11.660  16.250  0.00  0.00    +0.132 C 
ATOM     10  C   UNL     1      -3.059 -10.977  17.151  0.00  0.00    +0.128 C 
ATOM     11  C   UNL     1      -4.110 -11.563  18.092  0.00  0.00    +0.127 C 
ATOM     12  C   UNL     1      -2.539 -11.708  14.751  0.00  0.00    +0.306 C 
ATOM     14  C   UNL     1      -6.359 -10.607  18.501  0.00  0.00    +0.247 C 
ENDROOT
BRANCH  14  16
ATOM     16  C   UNL     1      -7.700 -10.281  17.999  0.00  0.00    +0.037 A 
ATOM     19  C   UNL     1      -8.776 -11.119  18.288  0.00  0.00    +0.013 A 
ATOM     20  C   UNL     1      -7.898  -9.132  17.234  0.00  0.00    +0.013 A 
ATOM     24  C   UNL     1     -10.051 -10.808  17.813  0.00  0.00    +0.001 A 
ATOM     25  C   UNL     1      -9.171  -8.821  16.757  0.00  0.00    +0.001 A 
ATOM     26  C   UNL     1     -10.247  -9.659  17.047  0.00  0.00    +0.000 A 
ENDBRANCH  14  16
BRANCH   5  13
ATOM     13  C   UNL     1      -2.888 -12.351  12.316  0.00  0.00    +0.144 C 
BRANCH  13  15
ATOM      1  F   UNL     1      -4.429  -8.898   8.145  0.00  0.00    -0.205 F 
ATOM     15  C   UNL     1      -3.298 -11.430  11.204  0.00  0.00    -0.030 A 
ATOM     17  C   UNL     1      -2.854 -10.108  11.193  0.00  0.00    +0.008 A 
ATOM     18  C   UNL     1      -4.125 -11.897  10.183  0.00  0.00    +0.008 A 
ATOM     21  C   UNL     1      -3.236  -9.253  10.159  0.00  0.00    +0.038 A 
ATOM     22  C   UNL     1      -4.507 -11.042   9.148  0.00  0.00    +0.038 A 
ATOM     23  C   UNL     1      -4.063  -9.720   9.137  0.00  0.00    +0.123 A 
ENDBRANCH  13  15
ENDBRANCH   5  13
TORSDOF 3
ENDMDL
MODEL 3
REMARK VINA RESULT:      -6.8     29.874     32.700
REMARK  Name = 75536987
REMARK  3 active torsions:
REMARK  status: ('A' for Active; 'I' for Inactive)
REMARK    1  A    between atoms: N_5  and  C_13
REMARK    2  A    between atoms: C_13  and  C_15
REMARK    3  A    between atoms: C_14  and  C_16
REMARK                            x       y       z     vdW  Elec       q    Type
REMARK                         _______ _______ _______ _____ _____    ______ ____
ROOT
ATOM      2  O   UNL     1      12.804  11.657  13.851  0.00  0.00    -0.252 OA
ATOM      3  O   UNL     1      12.211   6.723  18.762  0.00  0.00    -0.270 OA
ATOM      4  N   UNL     1      13.389  10.240  15.632  0.00  0.00    -0.278 N 
ATOM      5  N   UNL     1      14.759  11.950  15.135  0.00  0.00    -0.279 N 
ATOM      6  N   UNL     1      13.037   8.754  17.953  0.00  0.00    -0.294 N 
ATOM      7  C   UNL     1      14.530  10.064  16.514  0.00  0.00    +0.112 C 
ATOM      8  C   UNL     1      15.342  11.341  16.319  0.00  0.00    +0.133 C 
ATOM      9  C   UNL     1      14.057   9.820  17.943  0.00  0.00    +0.132 C 
ATOM     10  C   UNL     1      12.299   9.280  15.659  0.00  0.00    +0.128 C 
ATOM     11  C   UNL     1      11.869   9.018  17.101  0.00  0.00    +0.127 C 
ATOM     12  C   UNL     1      13.557  11.321  14.756  0.00  0.00    +0.306 C 
ATOM     14  C   UNL     1      13.083   7.589  18.721  0.00  0.00    +0.247 C 
ENDROOT
BRANCH  14  16
ATOM     16  C   UNL     1      14.272   7.355  19.550  0.00  0.00    +0.037 A 
ATOM     19  C   UNL     1      14.263   7.709  20.899  0.00  0.00    +0.013 A 
ATOM     20  C   UNL     1      15.411   6.777  18.989  0.00  0.00    +0.013 A 
ATOM     24  C   UNL     1      15.392   7.484  21.688  0.00  0.00    +0.001 A 
ATOM     25  C   UNL     1      16.540   6.553  19.776  0.00  0.00    +0.001 A 
ATOM     26  C   UNL     1      16.531   6.907  21.125  0.00  0.00    +0.000 A 
ENDBRANCH  14  16
BRANCH   5  13
ATOM     13  C   UNL     1      15.314  13.145  14.538  0.00  0.00    +0.144 C 
BRANCH  13  15
ATOM      1  F   UNL     1      18.980  11.944  10.437  0.00  0.00    -0.205 F 
ATOM     15  C   UNL     1      16.292  12.824  13.445  0.00  0.00    -0.030 A 
ATOM     17  C   UNL     1      17.650  12.700  13.738  0.00  0.00    +0.008 A 
ATOM     18  C   UNL     1      15.842  12.652  12.136  0.00  0.00    +0.008 A 
ATOM     21  C   UNL     1      18.558  12.403  12.721  0.00  0.00    +0.038 A 
ATOM     22  C   UNL     1      16.750  12.355  11.119  0.00  0.00    +0.038 A 
ATOM     23  C   UNL     1      18.108  12.230  11.413  0.00  0.00    +0.123 A 
ENDBRANCH  13  15
ENDBRANCH   5  13
TORSDOF 3
ENDMDL
MODEL 4
REMARK VINA RESULT:      -6.6     18.162     19.964
REMARK  Name = 75536987
REMARK  3 active torsions:
REMARK  status: ('A' for Active; 'I' for Inactive)
REMARK    1  A    between atoms: N_5  and  C_13
REMARK    2  A    between atoms: C_13  and  C_15
REMARK    3  A    between atoms: C_14  and  C_16
REMARK                            x       y       z     vdW  Elec       q    Type
REMARK                         _______ _______ _______ _____ _____    ______ ____
ROOT
ATOM      2  O   UNL     1      -3.711 -11.815  18.928  0.00  0.00    -0.252 OA
ATOM      3  O   UNL     1     -10.547 -10.379  19.037  0.00  0.00    -0.270 OA
ATOM      4  N   UNL     1      -5.771 -10.859  18.324  0.00  0.00    -0.278 N 
ATOM      5  N   UNL     1      -4.036 -10.633  16.913  0.00  0.00    -0.279 N 
ATOM      6  N   UNL     1      -8.518 -10.717  17.929  0.00  0.00    -0.294 N 
ATOM      7  C   UNL     1      -6.269  -9.998  17.265  0.00  0.00    +0.112 C 
ATOM      8  C   UNL     1      -5.159 -10.030  16.218  0.00  0.00    +0.133 C 
ATOM      9  C   UNL     1      -7.625 -10.495  16.776  0.00  0.00    +0.132 C 
ATOM     10  C   UNL     1      -6.631 -11.201  19.443  0.00  0.00    +0.128 C 
ATOM     11  C   UNL     1      -7.997 -11.656  18.933  0.00  0.00    +0.127 C 
ATOM     12  C   UNL     1      -4.417 -11.179  18.155  0.00  0.00    +0.306 C 
ATOM     14  C   UNL     1      -9.786 -10.159  18.097  0.00  0.00    +0.247 C 
ENDROOT
BRANCH  14  16
ATOM     16  C   UNL     1     -10.265  -9.215  17.078  0.00  0.00    +0.037 A 
ATOM     19  C   UNL     1     -10.972  -9.684  15.971  0.00  0.00    +0.013 A 
ATOM     20  C   UNL     1     -10.016  -7.851  17.219  0.00  0.00    +0.013 A 
ATOM     24  C   UNL     1     -11.430  -8.787  15.005  0.00  0.00    +0.001 A 
ATOM     25  C   UNL     1     -10.472  -6.954  16.254  0.00  0.00    +0.001 A 
ATOM     26  C   UNL     1     -11.179  -7.422  15.146  0.00  0.00    +0.000 A 
ENDBRANCH  14  16
BRANCH   5  13
ATOM     13  C   UNL     1      -2.732 -10.754  16.300  0.00  0.00    +0.144 C 
BRANCH  13  15
ATOM      1  F   UNL     1      -3.060 -12.686  11.022  0.00  0.00    -0.205 F 
ATOM     15  C   UNL     1      -2.818 -11.269  14.893  0.00  0.00    -0.030 A 
ATOM     17  C   UNL     1      -2.345 -10.492  13.835  0.00  0.00    +0.008 A 
ATOM     18  C   UNL     1      -3.374 -12.524  14.643  0.00  0.00    +0.008 A 
ATOM     21  C   UNL     1      -2.427 -10.972  12.528  0.00  0.00    +0.038 A 
ATOM     22  C   UNL     1      -3.455 -13.003  13.335  0.00  0.00    +0.038 A 
ATOM     23  C   UNL     1      -2.982 -12.227  12.278  0.00  0.00    +0.123 A 
ENDBRANCH  13  15
ENDBRANCH   5  13
TORSDOF 3
ENDMDL
MODEL 5
REMARK VINA RESULT:      -6.5      4.897      7.928
REMARK  Name = 75536987
REMARK  3 active torsions:
REMARK  status: ('A' for Active; 'I' for Inactive)
REMARK    1  A    between atoms: N_5  and  C_13
REMARK    2  A    between atoms: C_13  and  C_15
REMARK    3  A    between atoms: C_14  and  C_16
REMARK                            x       y       z     vdW  Elec       q    Type
REMARK                         _______ _______ _______ _____ _____    ______ ____
ROOT
ATOM      2  O   UNL     1     -14.028   4.633  34.411  0.00  0.00    -0.252 OA
ATOM      3  O   UNL     1     -15.579  -0.163  29.573  0.00  0.00    -0.270 OA
ATOM      4  N   UNL     1     -15.011   3.657  32.513  0.00  0.00    -0.278 N 
ATOM      5  N   UNL     1     -15.192   5.880  32.783  0.00  0.00    -0.279 N 
ATOM      6  N   UNL     1     -15.194   2.037  30.263  0.00  0.00    -0.294 N 
ATOM      7  C   UNL     1     -15.869   4.090  31.423  0.00  0.00    +0.112 C 
ATOM      8  C   UNL     1     -15.806   5.613  31.494  0.00  0.00    +0.133 C 
ATOM      9  C   UNL     1     -15.389   3.491  30.106  0.00  0.00    +0.132 C 
ATOM     10  C   UNL     1     -14.697   2.247  32.670  0.00  0.00    +0.128 C 
ATOM     11  C   UNL     1     -14.259   1.657  31.331  0.00  0.00    +0.127 C 
ATOM     12  C   UNL     1     -14.667   4.712  33.369  0.00  0.00    +0.306 C 
ATOM     14  C   UNL     1     -15.775   1.047  29.469  0.00  0.00    +0.247 C 
ENDROOT
BRANCH  14  16
ATOM     16  C   UNL     1     -16.715   1.465  28.421  0.00  0.00    +0.037 A 
ATOM     19  C   UNL     1     -16.412   1.233  27.079  0.00  0.00    +0.013 A 
ATOM     20  C   UNL     1     -17.911   2.093  28.766  0.00  0.00    +0.013 A 
ATOM     24  C   UNL     1     -17.306   1.628  26.083  0.00  0.00    +0.001 A 
ATOM     25  C   UNL     1     -18.804   2.490  27.772  0.00  0.00    +0.001 A 
ATOM     26  C   UNL     1     -18.502   2.257  26.430  0.00  0.00    +0.000 A 
ENDBRANCH  14  16
BRANCH   5  13
ATOM     13  C   UNL     1     -15.043   7.225  33.296  0.00  0.00    +0.144 C 
BRANCH  13  15
ATOM      1  F   UNL     1     -11.263  10.191  30.362  0.00  0.00    -0.205 F 
ATOM     15  C   UNL     1     -14.035   8.015  32.513  0.00  0.00    -0.030 A 
ATOM     17  C   UNL     1     -12.673   7.748  32.659  0.00  0.00    +0.008 A 
ATOM     18  C   UNL     1     -14.459   9.018  31.642  0.00  0.00    +0.008 A 
ATOM     21  C   UNL     1     -11.737   8.484  31.932  0.00  0.00    +0.038 A 
ATOM     22  C   UNL     1     -13.523   9.753  30.914  0.00  0.00    +0.038 A 
ATOM     23  C   UNL     1     -12.162   9.486  31.060  0.00  0.00    +0.123 A 
ENDBRANCH  13  15
ENDBRANCH   5  13
TORSDOF 3
ENDMDL
MODEL 6
REMARK VINA RESULT:      -6.5     31.578     36.245
REMARK  Name = 75536987
REMARK  3 active torsions:
REMARK  status: ('A' for Active; 'I' for Inactive)
REMARK    1  A    between atoms: N_5  and  C_13
REMARK    2  A    between atoms: C_13  and  C_15
REMARK    3  A    between atoms: C_14  and  C_16
REMARK                            x       y       z     vdW  Elec       q    Type
REMARK                         _______ _______ _______ _____ _____    ______ ____
ROOT
ATOM      2  O   UNL     1      12.020   7.750   5.526  0.00  0.00    -0.252 OA
ATOM      3  O   UNL     1      15.256   5.702  -0.317  0.00  0.00    -0.270 OA
ATOM      4  N   UNL     1      12.394   6.642   3.488  0.00  0.00    -0.278 N 
ATOM      5  N   UNL     1      10.314   6.637   4.338  0.00  0.00    -0.279 N 
ATOM      6  N   UNL     1      13.347   6.272   0.904  0.00  0.00    -0.294 N 
ATOM      7  C   UNL     1      11.633   5.789   2.591  0.00  0.00    +0.112 C 
ATOM      8  C   UNL     1      10.191   5.969   3.055  0.00  0.00    +0.133 C 
ATOM      9  C   UNL     1      11.893   6.184   1.142  0.00  0.00    +0.132 C 
ATOM     10  C   UNL     1      13.813   6.853   3.256  0.00  0.00    +0.128 C 
ATOM     11  C   UNL     1      14.056   7.206   1.790  0.00  0.00    +0.127 C 
ATOM     12  C   UNL     1      11.627   7.089   4.573  0.00  0.00    +0.306 C 
ATOM     14  C   UNL     1      14.052   5.595  -0.092  0.00  0.00    +0.247 C 
ENDROOT
BRANCH  14  16
ATOM     16  C   UNL     1      13.311   4.660  -0.949  0.00  0.00    +0.037 A 
ATOM     19  C   UNL     1      12.799   5.091  -2.173  0.00  0.00    +0.013 A 
ATOM     20  C   UNL     1      13.120   3.340  -0.540  0.00  0.00    +0.013 A 
ATOM     24  C   UNL     1      12.097   4.202  -2.988  0.00  0.00    +0.001 A 
ATOM     25  C   UNL     1      12.418   2.452  -1.353  0.00  0.00    +0.001 A 
ATOM     26  C   UNL     1      11.906   2.883  -2.577  0.00  0.00    +0.000 A 
ENDBRANCH  14  16
BRANCH   5  13
ATOM     13  C   UNL     1       9.166   6.903   5.176  0.00  0.00    +0.144 C 
BRANCH  13  15
ATOM      1  F   UNL     1       9.560   4.327  10.166  0.00  0.00    -0.205 F 
ATOM     15  C   UNL     1       9.270   6.217   6.507  0.00  0.00    -0.030 A 
ATOM     17  C   UNL     1       8.944   6.906   7.675  0.00  0.00    +0.008 A 
ATOM     18  C   UNL     1       9.695   4.890   6.575  0.00  0.00    +0.008 A 
ATOM     21  C   UNL     1       9.042   6.267   8.911  0.00  0.00    +0.038 A 
ATOM     22  C   UNL     1       9.793   4.251   7.811  0.00  0.00    +0.038 A 
ATOM     23  C   UNL     1       9.467   4.940   8.979  0.00  0.00    +0.123 A 
ENDBRANCH  13  15
ENDBRANCH   5  13
TORSDOF 3
ENDMDL
MODEL 7
REMARK VINA RESULT:      -6.4     31.633     33.809
REMARK  Name = 75536987
REMARK  3 active torsions:
REMARK  status: ('A' for Active; 'I' for Inactive)
REMARK    1  A    between atoms: N_5  and  C_13
REMARK    2  A    between atoms: C_13  and  C_15
REMARK    3  A    between atoms: C_14  and  C_16
REMARK                            x       y       z     vdW  Elec       q    Type
REMARK                         _______ _______ _______ _____ _____    ______ ____
ROOT
ATOM      2  O   UNL     1      16.001  -9.407  28.298  0.00  0.00    -0.252 OA
ATOM      3  O   UNL     1      17.709  -6.213  22.324  0.00  0.00    -0.270 OA
ATOM      4  N   UNL     1      16.388  -7.674  26.760  0.00  0.00    -0.278 N 
ATOM      5  N   UNL     1      16.108  -7.136  28.924  0.00  0.00    -0.279 N 
ATOM      6  N   UNL     1      17.614  -6.335  24.656  0.00  0.00    -0.294 N 
ATOM      7  C   UNL     1      16.393  -6.221  26.780  0.00  0.00    +0.112 C 
ATOM      8  C   UNL     1      16.418  -5.878  28.267  0.00  0.00    +0.133 C 
ATOM      9  C   UNL     1      17.577  -5.687  25.981  0.00  0.00    +0.132 C 
ATOM     10  C   UNL     1      16.521  -8.380  25.497  0.00  0.00    +0.128 C 
ATOM     11  C   UNL     1      17.685  -7.802  24.695  0.00  0.00    +0.127 C 
ATOM     12  C   UNL     1      16.144  -8.221  28.027  0.00  0.00    +0.306 C 
ATOM     14  C   UNL     1      17.635  -5.674  23.427  0.00  0.00    +0.247 C 
ENDROOT
BRANCH  14  16
ATOM     16  C   UNL     1      17.549  -4.207  23.429  0.00  0.00    +0.037 A 
ATOM     19  C   UNL     1      16.341  -3.579  23.128  0.00  0.00    +0.013 A 
ATOM     20  C   UNL     1      18.675  -3.443  23.734  0.00  0.00    +0.013 A 
ATOM     24  C   UNL     1      16.259  -2.186  23.132  0.00  0.00    +0.001 A 
ATOM     25  C   UNL     1      18.594  -2.051  23.738  0.00  0.00    +0.001 A 
ATOM     26  C   UNL     1      17.386  -1.423  23.437  0.00  0.00    +0.000 A 
ENDBRANCH  14  16
BRANCH   5  13
ATOM     13  C   UNL     1      15.926  -7.227  30.356  0.00  0.00    +0.144 C 
BRANCH  13  15
ATOM      1  F   UNL     1      11.359  -4.424  32.082  0.00  0.00    -0.205 F 
ATOM     15  C   UNL     1      14.709  -6.481  30.816  0.00  0.00    -0.030 A 
ATOM     17  C   UNL     1      13.441  -6.892  30.405  0.00  0.00    +0.008 A 
ATOM     18  C   UNL     1      14.845  -5.374  31.654  0.00  0.00    +0.008 A 
ATOM     21  C   UNL     1      12.309  -6.197  30.833  0.00  0.00    +0.038 A 
ATOM     22  C   UNL     1      13.714  -4.679  32.082  0.00  0.00    +0.038 A 
ATOM     23  C   UNL     1      12.446  -5.091  31.672  0.00  0.00    +0.123 A 
ENDBRANCH  13  15
ENDBRANCH   5  13
TORSDOF 3
ENDMDL
MODEL 8
REMARK VINA RESULT:      -6.3     19.194     21.707
REMARK  Name = 75536987
REMARK  3 active torsions:
REMARK  status: ('A' for Active; 'I' for Inactive)
REMARK    1  A    between atoms: N_5  and  C_13
REMARK    2  A    between atoms: C_13  and  C_15
REMARK    3  A    between atoms: C_14  and  C_16
REMARK                            x       y       z     vdW  Elec       q    Type
REMARK                         _______ _______ _______ _____ _____    ______ ____
ROOT
ATOM      2  O   UNL     1      -6.776 -12.902  17.919  0.00  0.00    -0.252 OA
ATOM      3  O   UNL     1      -2.790 -13.705  12.237  0.00  0.00    -0.270 OA
ATOM      4  N   UNL     1      -5.637 -12.369  15.934  0.00  0.00    -0.278 N 
ATOM      5  N   UNL     1      -6.463 -10.687  17.174  0.00  0.00    -0.279 N 
ATOM      6  N   UNL     1      -3.611 -12.456  14.033  0.00  0.00    -0.294 N 
ATOM      7  C   UNL     1      -5.380 -11.174  15.148  0.00  0.00    +0.112 C 
ATOM      8  C   UNL     1      -5.748 -10.033  16.092  0.00  0.00    +0.133 C 
ATOM      9  C   UNL     1      -3.934 -11.162  14.664  0.00  0.00    +0.132 C 
ATOM     10  C   UNL     1      -5.254 -13.671  15.416  0.00  0.00    +0.128 C 
ATOM     11  C   UNL     1      -3.818 -13.626  14.898  0.00  0.00    +0.127 C 
ATOM     12  C   UNL     1      -6.349 -12.089  17.108  0.00  0.00    +0.306 C 
ATOM     14  C   UNL     1      -3.100 -12.629  12.746  0.00  0.00    +0.247 C 
ENDROOT
BRANCH  14  16
ATOM     16  C   UNL     1      -2.920 -11.437  11.908  0.00  0.00    +0.037 A 
ATOM     19  C   UNL     1      -3.877 -11.109  10.947  0.00  0.00    +0.013 A 
ATOM     20  C   UNL     1      -1.794 -10.631  12.073  0.00  0.00    +0.013 A 
ATOM     24  C   UNL     1      -3.707  -9.975  10.152  0.00  0.00    +0.001 A 
ATOM     25  C   UNL     1      -1.623  -9.498  11.279  0.00  0.00    +0.001 A 
ATOM     26  C   UNL     1      -2.580  -9.170  10.318  0.00  0.00    +0.000 A 
ENDBRANCH  14  16
BRANCH   5  13
ATOM     13  C   UNL     1      -7.085  -9.938  18.244  0.00  0.00    +0.144 C 
BRANCH  13  15
ATOM      1  F   UNL     1     -12.392  -8.522  17.010  0.00  0.00    -0.205 F 
ATOM     15  C   UNL     1      -8.500  -9.560  17.916  0.00  0.00    -0.030 A 
ATOM     17  C   UNL     1      -9.559 -10.306  18.433  0.00  0.00    +0.008 A 
ATOM     18  C   UNL     1      -8.756  -8.465  17.091  0.00  0.00    +0.008 A 
ATOM     21  C   UNL     1     -10.874  -9.954  18.127  0.00  0.00    +0.038 A 
ATOM     22  C   UNL     1     -10.070  -8.113  16.785  0.00  0.00    +0.038 A 
ATOM     23  C   UNL     1     -11.129  -8.858  17.303  0.00  0.00    +0.123 A 
ENDBRANCH  13  15
ENDBRANCH   5  13
TORSDOF 3
ENDMDL
MODEL 9
REMARK VINA RESULT:      -6.3     19.970     21.648
REMARK  Name = 75536987
REMARK  3 active torsions:
REMARK  status: ('A' for Active; 'I' for Inactive)
REMARK    1  A    between atoms: N_5  and  C_13
REMARK    2  A    between atoms: C_13  and  C_15
REMARK    3  A    between atoms: C_14  and  C_16
REMARK                            x       y       z     vdW  Elec       q    Type
REMARK                         _______ _______ _______ _____ _____    ______ ____
ROOT
ATOM      2  O   UNL     1      -3.529 -10.494   9.863  0.00  0.00    -0.252 OA
ATOM      3  O   UNL     1      -1.752 -10.727  16.616  0.00  0.00    -0.270 OA
ATOM      4  N   UNL     1      -3.760 -10.547  12.201  0.00  0.00    -0.278 N 
ATOM      5  N   UNL     1      -5.592 -10.870  10.941  0.00  0.00    -0.279 N 
ATOM      6  N   UNL     1      -3.162 -11.241  14.824  0.00  0.00    -0.294 N 
ATOM      7  C   UNL     1      -4.852 -10.627  13.156  0.00  0.00    +0.112 C 
ATOM      8  C   UNL     1      -6.045 -11.057  12.308  0.00  0.00    +0.133 C 
ATOM      9  C   UNL     1      -4.494 -11.583  14.287  0.00  0.00    +0.132 C 
ATOM     10  C   UNL     1      -2.405 -10.310  12.670  0.00  0.00    +0.128 C 
ATOM     11  C   UNL     1      -2.081 -11.249  13.830  0.00  0.00    +0.127 C 
ATOM     12  C   UNL     1      -4.208 -10.617  10.875  0.00  0.00    +0.306 C 
ATOM     14  C   UNL     1      -2.869 -10.970  16.162  0.00  0.00    +0.247 C 
ENDROOT
BRANCH  14  16
ATOM     16  C   UNL     1      -3.979 -10.958  17.124  0.00  0.00    +0.037 A 
ATOM     19  C   UNL     1      -5.052 -10.086  16.941  0.00  0.00    +0.013 A 
ATOM     20  C   UNL     1      -3.962 -11.821  18.220  0.00  0.00    +0.013 A 
ATOM     24  C   UNL     1      -6.107 -10.076  17.854  0.00  0.00    +0.001 A 
ATOM     25  C   UNL     1      -5.015 -11.811  19.133  0.00  0.00    +0.001 A 
ATOM     26  C   UNL     1      -6.088 -10.939  18.950  0.00  0.00    +0.000 A 
ENDBRANCH  14  16
BRANCH   5  13
ATOM     13  C   UNL     1      -6.471 -11.066   9.809  0.00  0.00    +0.144 C 
BRANCH  13  15
ATOM      1  F   UNL     1      -9.582  -6.496   8.744  0.00  0.00    -0.205 F 
ATOM     15  C   UNL     1      -7.301  -9.848   9.524  0.00  0.00    -0.030 A 
ATOM     17  C   UNL     1      -6.747  -8.775   8.825  0.00  0.00    +0.008 A 
ATOM     18  C   UNL     1      -8.624  -9.787   9.961  0.00  0.00    +0.008 A 
ATOM     21  C   UNL     1      -7.519  -7.643   8.561  0.00  0.00    +0.038 A 
ATOM     22  C   UNL     1      -9.395  -8.655   9.697  0.00  0.00    +0.038 A 
ATOM     23  C   UNL     1      -8.842  -7.583   8.998  0.00  0.00    +0.123 A 
ENDBRANCH  13  15
ENDBRANCH   5  13
TORSDOF 3
ENDMDL
MODEL 10
REMARK VINA RESULT:      -6.2     16.682     18.715
REMARK  Name = 75536987
REMARK  3 active torsions:
REMARK  status: ('A' for Active; 'I' for Inactive)
REMARK    1  A    between atoms: N_5  and  C_13
REMARK    2  A    between atoms: C_13  and  C_15
REMARK    3  A    between atoms: C_14  and  C_16
REMARK                            x       y       z     vdW  Elec       q    Type
REMARK                         _______ _______ _______ _____ _____    ______ ____
ROOT
ATOM      2  O   UNL     1      -7.466 -11.984  20.087  0.00  0.00    -0.252 OA
ATOM      3  O   UNL     1     -13.363  -9.519  17.266  0.00  0.00    -0.270 OA
ATOM      4  N   UNL     1      -8.898 -10.626  18.812  0.00  0.00    -0.278 N 
ATOM      5  N   UNL     1      -6.682 -10.445  18.483  0.00  0.00    -0.279 N 
ATOM      6  N   UNL     1     -11.074  -9.985  17.208  0.00  0.00    -0.294 N 
ATOM      7  C   UNL     1      -8.756  -9.531  17.868  0.00  0.00    +0.112 C 
ATOM      8  C   UNL     1      -7.277  -9.563  17.494  0.00  0.00    +0.133 C 
ATOM      9  C   UNL     1      -9.715  -9.717  16.698  0.00  0.00    +0.132 C 
ATOM     10  C   UNL     1     -10.218 -11.009  19.282  0.00  0.00    +0.128 C 
ATOM     11  C   UNL     1     -11.174 -11.149  18.098  0.00  0.00    +0.127 C 
ATOM     12  C   UNL     1      -7.659 -11.124  19.238  0.00  0.00    +0.306 C 
ATOM     14  C   UNL     1     -12.225  -9.268  16.875  0.00  0.00    +0.247 C 
ENDROOT
BRANCH  14  16
ATOM     16  C   UNL     1     -12.082  -8.103  15.992  0.00  0.00    +0.037 A 
ATOM     19  C   UNL     1     -11.581  -6.903  16.496  0.00  0.00    +0.013 A 
ATOM     20  C   UNL     1     -12.446  -8.197  14.649  0.00  0.00    +0.013 A 
ATOM     24  C   UNL     1     -11.444  -5.797  15.657  0.00  0.00    +0.001 A 
ATOM     25  C   UNL     1     -12.310  -7.092  13.810  0.00  0.00    +0.001 A 
ATOM     26  C   UNL     1     -11.809  -5.892  14.314  0.00  0.00    +0.000 A 
ENDBRANCH  14  16
BRANCH   5  13
ATOM     13  C   UNL     1      -5.255 -10.667  18.551  0.00  0.00    +0.144 C 
BRANCH  13  15
ATOM      1  F   UNL     1      -3.229 -12.811  13.756  0.00  0.00    -0.205 F 
ATOM     15  C   UNL     1      -4.714 -11.239  17.273  0.00  0.00    -0.030 A 
ATOM     17  C   UNL     1      -3.812 -10.501  16.505  0.00  0.00    +0.008 A 
ATOM     18  C   UNL     1      -5.115 -12.506  16.851  0.00  0.00    +0.008 A 
ATOM     21  C   UNL     1      -3.311 -11.034  15.317  0.00  0.00    +0.038 A 
ATOM     22  C   UNL     1      -4.613 -13.039  15.663  0.00  0.00    +0.038 A 
ATOM     23  C   UNL     1      -3.711 -12.302  14.896  0.00  0.00    +0.123 A 
ENDBRANCH  13  15
ENDBRANCH   5  13
TORSDOF 3
ENDMDL
