MODEL 1
REMARK VINA RESULT:      -7.9      0.000      0.000
REMARK  Name = 25390368
REMARK  7 active torsions:
REMARK  status: ('A' for Active; 'I' for Inactive)
REMARK    1  A    between atoms: O_2  and  C_12
REMARK    2  A    between atoms: O_3  and  C_13
REMARK    3  A    between atoms: N_8  and  C_16
REMARK    4  A    between atoms: N_10  and  C_28
REMARK    5  A    between atoms: C_11  and  C_15
REMARK    6  A    between atoms: C_14  and  C_16
REMARK    7  A    between atoms: C_15  and  C_17
REMARK                            x       y       z     vdW  Elec       q    Type
REMARK                         _______ _______ _______ _____ _____    ______ ____
ROOT
ATOM      1  O   UNL     1      13.478   9.305  19.944  0.00  0.00    -0.366 OA
ATOM     11  C   UNL     1      14.645   8.534  19.576  0.00  0.00    +0.159 C 
ATOM     12  C   UNL     1      14.201   7.583  18.470  0.00  0.00    +0.175 C 
ATOM     13  C   UNL     1      12.736   7.385  18.794  0.00  0.00    +0.176 C 
ATOM     14  C   UNL     1      12.333   8.776  19.252  0.00  0.00    +0.167 C 
ENDROOT
BRANCH  12   2
ATOM      2  O   UNL     1      14.345   8.261  17.221  0.00  0.00    -0.387 OA
ATOM     34  H   UNL     1      15.136   8.823  17.285  0.00  0.00    +0.210 HD
ENDBRANCH  12   2
BRANCH  13   3
ATOM      3  O   UNL     1      11.972   6.949  17.690  0.00  0.00    -0.387 OA
ATOM     35  H   UNL     1      12.452   6.210  17.277  0.00  0.00    +0.210 HD
ENDBRANCH  13   3
BRANCH  11  15
ATOM     15  C   UNL     1      15.136   7.810  20.823  0.00  0.00    +0.130 C 
BRANCH  15  17
ATOM      4  O   UNL     1      16.260   9.673  21.772  0.00  0.00    -0.276 OA
ATOM      6  N   UNL     1      17.535   7.766  21.401  0.00  0.00    -0.298 N 
ATOM      7  N   UNL     1      19.982   6.251  21.695  0.00  0.00    -0.312 N 
ATOM      9  N   UNL     1      21.640   5.349  23.117  0.00  0.00    -0.240 NA
ATOM     17  C   UNL     1      16.353   8.509  21.377  0.00  0.00    +0.218 C 
ATOM     18  C   UNL     1      18.757   8.373  21.918  0.00  0.00    +0.126 C 
ATOM     19  C   UNL     1      17.640   6.379  20.941  0.00  0.00    +0.126 C 
ATOM     20  C   UNL     1      19.656   7.349  22.608  0.00  0.00    +0.125 C 
ATOM     21  C   UNL     1      19.072   5.983  20.580  0.00  0.00    +0.125 C 
ATOM     22  C   UNL     1      21.146   5.504  21.868  0.00  0.00    +0.121 A 
ATOM     24  C   UNL     1      21.729   4.966  20.731  0.00  0.00    +0.043 A 
ATOM     25  C   UNL     1      22.891   4.219  20.888  0.00  0.00    +0.005 A 
ATOM     26  C   UNL     1      22.771   4.618  23.230  0.00  0.00    +0.113 A 
ATOM     27  C   UNL     1      23.429   4.037  22.157  0.00  0.00    +0.020 A 
ENDBRANCH  15  17
ENDBRANCH  11  15
BRANCH  14  16
ATOM     16  C   UNL     1      11.129   8.782  20.177  0.00  0.00    +0.140 C 
BRANCH  16   8
ATOM      5  O   UNL     1      11.161  11.367  21.410  0.00  0.00    -0.253 OA
ATOM      8  N   UNL     1      11.513   9.084  21.524  0.00  0.00    -0.297 N 
ATOM     10  N   UNL     1      11.925  10.369  23.392  0.00  0.00    -0.269 N 
ATOM     23  C   UNL     1      11.503  10.382  22.060  0.00  0.00    +0.304 C 
ATOM     36  H   UNL     1      11.799   8.317  22.125  0.00  0.00    +0.150 HD
ATOM     37  H   UNL     1      12.175   9.464  23.783  0.00  0.00    +0.156 HD
BRANCH  10  28
ATOM     28  C   UNL     1      12.051  11.468  24.274  0.00  0.00    +0.035 A 
ATOM     29  C   UNL     1      13.316  11.921  24.649  0.00  0.00    +0.023 A 
ATOM     30  C   UNL     1      10.911  12.100  24.769  0.00  0.00    +0.023 A 
ATOM     31  C   UNL     1      13.441  13.003  25.519  0.00  0.00    +0.002 A 
ATOM     32  C   UNL     1      11.034  13.183  25.638  0.00  0.00    +0.002 A 
ATOM     33  C   UNL     1      12.300  13.635  26.013  0.00  0.00    +0.000 A 
ENDBRANCH  10  28
ENDBRANCH  16   8
ENDBRANCH  14  16
TORSDOF 7
ENDMDL
MODEL 2
REMARK VINA RESULT:      -7.7     28.816     31.686
REMARK  Name = 25390368
REMARK  7 active torsions:
REMARK  status: ('A' for Active; 'I' for Inactive)
REMARK    1  A    between atoms: O_2  and  C_12
REMARK    2  A    between atoms: O_3  and  C_13
REMARK    3  A    between atoms: N_8  and  C_16
REMARK    4  A    between atoms: N_10  and  C_28
REMARK    5  A    between atoms: C_11  and  C_15
REMARK    6  A    between atoms: C_14  and  C_16
REMARK    7  A    between atoms: C_15  and  C_17
REMARK                            x       y       z     vdW  Elec       q    Type
REMARK                         _______ _______ _______ _____ _____    ______ ____
ROOT
ATOM      1  O   UNL     1      -6.441 -10.807   9.864  0.00  0.00    -0.366 OA
ATOM     11  C   UNL     1      -5.425 -10.907   8.839  0.00  0.00    +0.159 C 
ATOM     12  C   UNL     1      -4.085 -10.725   9.544  0.00  0.00    +0.175 C 
ATOM     13  C   UNL     1      -4.464  -9.850  10.721  0.00  0.00    +0.176 C 
ATOM     14  C   UNL     1      -5.819 -10.421  11.102  0.00  0.00    +0.167 C 
ENDROOT
BRANCH  12   2
ATOM      2  O   UNL     1      -3.648 -12.006  10.001  0.00  0.00    -0.387 OA
ATOM     34  H   UNL     1      -2.732 -12.126   9.696  0.00  0.00    +0.210 HD
ENDBRANCH  12   2
BRANCH  13   3
ATOM      3  O   UNL     1      -3.542  -9.916  11.787  0.00  0.00    -0.387 OA
ATOM     35  H   UNL     1      -3.946  -9.469  12.551  0.00  0.00    +0.210 HD
ENDBRANCH  13   3
BRANCH  11  15
ATOM     15  C   UNL     1      -5.703  -9.829   7.801  0.00  0.00    +0.130 C 
BRANCH  15  17
ATOM      4  O   UNL     1      -7.577 -10.831   6.742  0.00  0.00    -0.276 OA
ATOM      6  N   UNL     1      -7.939  -8.786   7.786  0.00  0.00    -0.298 N 
ATOM      7  N   UNL     1      -9.702  -6.695   8.734  0.00  0.00    -0.312 N 
ATOM      9  N   UNL     1     -11.581  -6.069  10.021  0.00  0.00    -0.240 NA
ATOM     17  C   UNL     1      -7.155  -9.871   7.392  0.00  0.00    +0.218 C 
ATOM     18  C   UNL     1      -9.353  -8.750   7.425  0.00  0.00    +0.126 C 
ATOM     19  C   UNL     1      -7.437  -7.652   8.567  0.00  0.00    +0.126 C 
ATOM     20  C   UNL     1     -10.197  -8.052   8.489  0.00  0.00    +0.125 C 
ATOM     21  C   UNL     1      -8.303  -6.401   8.415  0.00  0.00    +0.125 C 
ATOM     22  C   UNL     1     -10.551  -5.706   9.224  0.00  0.00    +0.121 A 
ATOM     24  C   UNL     1     -10.280  -4.398   8.855  0.00  0.00    +0.043 A 
ATOM     25  C   UNL     1     -11.119  -3.399   9.336  0.00  0.00    +0.005 A 
ATOM     26  C   UNL     1     -12.375  -5.072  10.468  0.00  0.00    +0.113 A 
ATOM     27  C   UNL     1     -12.189  -3.734  10.158  0.00  0.00    +0.020 A 
ENDBRANCH  15  17
ENDBRANCH  11  15
BRANCH  14  16
ATOM     16  C   UNL     1      -6.706  -9.429  11.832  0.00  0.00    +0.140 C 
BRANCH  16   8
ATOM      5  O   UNL     1      -6.948 -11.099  14.147  0.00  0.00    -0.253 OA
ATOM      8  N   UNL     1      -6.203  -9.152  13.145  0.00  0.00    -0.297 N 
ATOM     10  N   UNL     1      -5.770  -9.489  15.384  0.00  0.00    -0.269 N 
ATOM     23  C   UNL     1      -6.361 -10.022  14.236  0.00  0.00    +0.304 C 
ATOM     36  H   UNL     1      -5.699  -8.283  13.292  0.00  0.00    +0.150 HD
ATOM     37  H   UNL     1      -5.324  -8.580  15.287  0.00  0.00    +0.156 HD
BRANCH  10  28
ATOM     28  C   UNL     1      -5.715 -10.058  16.677  0.00  0.00    +0.035 A 
ATOM     29  C   UNL     1      -6.804  -9.938  17.540  0.00  0.00    +0.023 A 
ATOM     30  C   UNL     1      -4.571 -10.740  17.091  0.00  0.00    +0.023 A 
ATOM     31  C   UNL     1      -6.750 -10.498  18.816  0.00  0.00    +0.002 A 
ATOM     32  C   UNL     1      -4.516 -11.302  18.366  0.00  0.00    +0.002 A 
ATOM     33  C   UNL     1      -5.606 -11.181  19.229  0.00  0.00    +0.000 A 
ENDBRANCH  10  28
ENDBRANCH  16   8
ENDBRANCH  14  16
TORSDOF 7
ENDMDL
MODEL 3
REMARK VINA RESULT:      -7.6     28.121     30.385
REMARK  Name = 25390368
REMARK  7 active torsions:
REMARK  status: ('A' for Active; 'I' for Inactive)
REMARK    1  A    between atoms: O_2  and  C_12
REMARK    2  A    between atoms: O_3  and  C_13
REMARK    3  A    between atoms: N_8  and  C_16
REMARK    4  A    between atoms: N_10  and  C_28
REMARK    5  A    between atoms: C_11  and  C_15
REMARK    6  A    between atoms: C_14  and  C_16
REMARK    7  A    between atoms: C_15  and  C_17
REMARK                            x       y       z     vdW  Elec       q    Type
REMARK                         _______ _______ _______ _____ _____    ______ ____
ROOT
ATOM      1  O   UNL     1      -5.231 -12.736  17.423  0.00  0.00    -0.366 OA
ATOM     11  C   UNL     1      -4.127 -11.816  17.582  0.00  0.00    +0.159 C 
ATOM     12  C   UNL     1      -4.228 -11.265  19.000  0.00  0.00    +0.175 C 
ATOM     13  C   UNL     1      -5.717 -11.346  19.264  0.00  0.00    +0.176 C 
ATOM     14  C   UNL     1      -6.077 -12.656  18.584  0.00  0.00    +0.167 C 
ENDROOT
BRANCH  12   2
ATOM      2  O   UNL     1      -3.522 -12.150  19.870  0.00  0.00    -0.387 OA
ATOM     34  H   UNL     1      -2.722 -11.685  20.170  0.00  0.00    +0.210 HD
ENDBRANCH  12   2
BRANCH  13   3
ATOM      3  O   UNL     1      -6.042 -11.355  20.637  0.00  0.00    -0.387 OA
ATOM     35  H   UNL     1      -6.987 -11.573  20.712  0.00  0.00    +0.210 HD
ENDBRANCH  13   3
BRANCH  11  15
ATOM     15  C   UNL     1      -4.259 -10.740  16.513  0.00  0.00    +0.130 C 
BRANCH  15  17
ATOM      4  O   UNL     1      -1.968 -11.005  15.949  0.00  0.00    -0.276 OA
ATOM      6  N   UNL     1      -3.455 -10.752  14.180  0.00  0.00    -0.298 N 
ATOM      7  N   UNL     1      -4.066 -10.784  11.352  0.00  0.00    -0.312 N 
ATOM      9  N   UNL     1      -4.038 -11.943   9.294  0.00  0.00    -0.240 NA
ATOM     17  C   UNL     1      -3.118 -10.847  15.531  0.00  0.00    +0.218 C 
ATOM     18  C   UNL     1      -2.406 -10.841  13.168  0.00  0.00    +0.126 C 
ATOM     19  C   UNL     1      -4.823 -10.574  13.687  0.00  0.00    +0.126 C 
ATOM     20  C   UNL     1      -2.905 -11.502  11.886  0.00  0.00    +0.125 C 
ATOM     21  C   UNL     1      -4.871  -9.984  12.277  0.00  0.00    +0.125 C 
ATOM     22  C   UNL     1      -4.371 -10.835   9.993  0.00  0.00    +0.121 A 
ATOM     24  C   UNL     1      -5.002  -9.731   9.443  0.00  0.00    +0.043 A 
ATOM     25  C   UNL     1      -5.313  -9.768   8.088  0.00  0.00    +0.005 A 
ATOM     26  C   UNL     1      -4.355 -11.942   7.980  0.00  0.00    +0.113 A 
ATOM     27  C   UNL     1      -4.986 -10.890   7.335  0.00  0.00    +0.020 A 
ENDBRANCH  15  17
ENDBRANCH  11  15
BRANCH  14  16
ATOM     16  C   UNL     1      -7.533 -12.735  18.162  0.00  0.00    +0.140 C 
BRANCH  16   8
ATOM      5  O   UNL     1      -9.173 -11.276  16.321  0.00  0.00    -0.253 OA
ATOM      8  N   UNL     1      -8.214 -11.500  18.414  0.00  0.00    -0.297 N 
ATOM     10  N   UNL     1      -9.539  -9.663  17.986  0.00  0.00    -0.269 N 
ATOM     23  C   UNL     1      -9.004 -10.841  17.458  0.00  0.00    +0.304 C 
ATOM     36  H   UNL     1      -8.128 -11.083  19.336  0.00  0.00    +0.150 HD
ATOM     37  H   UNL     1      -9.298  -9.445  18.949  0.00  0.00    +0.156 HD
BRANCH  10  28
ATOM     28  C   UNL     1     -10.381  -8.727  17.343  0.00  0.00    +0.035 A 
ATOM     29  C   UNL     1     -11.765  -8.901  17.365  0.00  0.00    +0.023 A 
ATOM     30  C   UNL     1      -9.829  -7.628  16.686  0.00  0.00    +0.023 A 
ATOM     31  C   UNL     1     -12.596  -7.979  16.731  0.00  0.00    +0.002 A 
ATOM     32  C   UNL     1     -10.659  -6.704  16.052  0.00  0.00    +0.002 A 
ATOM     33  C   UNL     1     -12.043  -6.879  16.074  0.00  0.00    +0.000 A 
ENDBRANCH  10  28
ENDBRANCH  16   8
ENDBRANCH  14  16
TORSDOF 7
ENDMDL
MODEL 4
REMARK VINA RESULT:      -7.6     27.876     30.896
REMARK  Name = 25390368
REMARK  7 active torsions:
REMARK  status: ('A' for Active; 'I' for Inactive)
REMARK    1  A    between atoms: O_2  and  C_12
REMARK    2  A    between atoms: O_3  and  C_13
REMARK    3  A    between atoms: N_8  and  C_16
REMARK    4  A    between atoms: N_10  and  C_28
REMARK    5  A    between atoms: C_11  and  C_15
REMARK    6  A    between atoms: C_14  and  C_16
REMARK    7  A    between atoms: C_15  and  C_17
REMARK                            x       y       z     vdW  Elec       q    Type
REMARK                         _______ _______ _______ _____ _____    ______ ____
ROOT
ATOM      1  O   UNL     1      -5.981 -11.381  16.739  0.00  0.00    -0.366 OA
ATOM     11  C   UNL     1      -4.564 -11.594  16.939  0.00  0.00    +0.159 C 
ATOM     12  C   UNL     1      -4.371 -11.812  18.436  0.00  0.00    +0.175 C 
ATOM     13  C   UNL     1      -5.519 -11.017  19.021  0.00  0.00    +0.176 C 
ATOM     14  C   UNL     1      -6.627 -11.298  18.021  0.00  0.00    +0.167 C 
ENDROOT
BRANCH  12   2
ATOM      2  O   UNL     1      -4.544 -13.204  18.706  0.00  0.00    -0.387 OA
ATOM     34  H   UNL     1      -3.988 -13.693  18.075  0.00  0.00    +0.210 HD
ENDBRANCH  12   2
BRANCH  13   3
ATOM      3  O   UNL     1      -5.870 -11.420  20.328  0.00  0.00    -0.387 OA
ATOM     35  H   UNL     1      -5.064 -11.379  20.872  0.00  0.00    +0.210 HD
ENDBRANCH  13   3
BRANCH  11  15
ATOM     15  C   UNL     1      -3.831 -10.366  16.416  0.00  0.00    +0.130 C 
BRANCH  15  17
ATOM      4  O   UNL     1      -1.621 -11.071  15.910  0.00  0.00    -0.276 OA
ATOM      6  N   UNL     1      -3.073 -10.821  14.113  0.00  0.00    -0.298 N 
ATOM      7  N   UNL     1      -3.723 -11.134  11.310  0.00  0.00    -0.312 N 
ATOM      9  N   UNL     1      -3.912 -12.548   9.427  0.00  0.00    -0.240 NA
ATOM     17  C   UNL     1      -2.737 -10.787  15.466  0.00  0.00    +0.218 C 
ATOM     18  C   UNL     1      -2.068 -11.213  13.129  0.00  0.00    +0.126 C 
ATOM     19  C   UNL     1      -4.402 -10.493  13.590  0.00  0.00    +0.126 C 
ATOM     20  C   UNL     1      -2.685 -11.951  11.944  0.00  0.00    +0.125 C 
ATOM     21  C   UNL     1      -4.375 -10.098  12.113  0.00  0.00    +0.125 C 
ATOM     22  C   UNL     1      -4.052 -11.317   9.968  0.00  0.00    +0.121 A 
ATOM     24  C   UNL     1      -4.505 -10.210   9.270  0.00  0.00    +0.043 A 
ATOM     25  C   UNL     1      -4.838 -10.377   7.930  0.00  0.00    +0.005 A 
ATOM     26  C   UNL     1      -4.244 -12.673   8.123  0.00  0.00    +0.113 A 
ATOM     27  C   UNL     1      -4.707 -11.629   7.338  0.00  0.00    +0.020 A 
ENDBRANCH  15  17
ENDBRANCH  11  15
BRANCH  14  16
ATOM     16  C   UNL     1      -7.695 -10.220  17.986  0.00  0.00    +0.140 C 
BRANCH  16   8
ATOM      5  O   UNL     1     -10.534 -10.587  17.881  0.00  0.00    -0.253 OA
ATOM      8  N   UNL     1      -8.586 -10.336  19.103  0.00  0.00    -0.297 N 
ATOM     10  N   UNL     1     -10.581 -10.594  20.228  0.00  0.00    -0.269 N 
ATOM     23  C   UNL     1      -9.972 -10.516  18.973  0.00  0.00    +0.304 C 
ATOM     36  H   UNL     1      -8.192 -10.295  20.038  0.00  0.00    +0.150 HD
ATOM     37  H   UNL     1      -9.969 -10.514  21.037  0.00  0.00    +0.156 HD
BRANCH  10  28
ATOM     28  C   UNL     1     -11.953 -10.772  20.519  0.00  0.00    +0.035 A 
ATOM     29  C   UNL     1     -12.822  -9.682  20.481  0.00  0.00    +0.023 A 
ATOM     30  C   UNL     1     -12.439 -12.039  20.844  0.00  0.00    +0.023 A 
ATOM     31  C   UNL     1     -14.175  -9.858  20.768  0.00  0.00    +0.002 A 
ATOM     32  C   UNL     1     -13.792 -12.215  21.131  0.00  0.00    +0.002 A 
ATOM     33  C   UNL     1     -14.661 -11.124  21.093  0.00  0.00    +0.000 A 
ENDBRANCH  10  28
ENDBRANCH  16   8
ENDBRANCH  14  16
TORSDOF 7
ENDMDL
MODEL 5
REMARK VINA RESULT:      -7.6     28.210     30.265
REMARK  Name = 25390368
REMARK  7 active torsions:
REMARK  status: ('A' for Active; 'I' for Inactive)
REMARK    1  A    between atoms: O_2  and  C_12
REMARK    2  A    between atoms: O_3  and  C_13
REMARK    3  A    between atoms: N_8  and  C_16
REMARK    4  A    between atoms: N_10  and  C_28
REMARK    5  A    between atoms: C_11  and  C_15
REMARK    6  A    between atoms: C_14  and  C_16
REMARK    7  A    between atoms: C_15  and  C_17
REMARK                            x       y       z     vdW  Elec       q    Type
REMARK                         _______ _______ _______ _____ _____    ______ ____
ROOT
ATOM      1  O   UNL     1      -5.190  -8.978  11.276  0.00  0.00    -0.366 OA
ATOM     11  C   UNL     1      -4.035  -9.539  10.611  0.00  0.00    +0.159 C 
ATOM     12  C   UNL     1      -4.406  -9.658   9.136  0.00  0.00    +0.175 C 
ATOM     13  C   UNL     1      -5.908  -9.838   9.202  0.00  0.00    +0.176 C 
ATOM     14  C   UNL     1      -6.278  -8.901  10.338  0.00  0.00    +0.167 C 
ENDROOT
BRANCH  12   2
ATOM      2  O   UNL     1      -4.082  -8.422   8.498  0.00  0.00    -0.387 OA
ATOM     34  H   UNL     1      -3.562  -8.632   7.704  0.00  0.00    +0.210 HD
ENDBRANCH  12   2
BRANCH  13   3
ATOM      3  O   UNL     1      -6.565  -9.498   8.000  0.00  0.00    -0.387 OA
ATOM     35  H   UNL     1      -7.430  -9.942   8.005  0.00  0.00    +0.210 HD
ENDBRANCH  13   3
BRANCH  11  15
ATOM     15  C   UNL     1      -3.732 -10.883  11.259  0.00  0.00    +0.130 C 
BRANCH  15  17
ATOM      4  O   UNL     1      -1.832 -10.260  12.540  0.00  0.00    -0.276 OA
ATOM      6  N   UNL     1      -3.702 -10.970  13.724  0.00  0.00    -0.298 N 
ATOM      7  N   UNL     1      -5.142 -11.352  16.205  0.00  0.00    -0.312 N 
ATOM      9  N   UNL     1      -5.989 -10.432  18.209  0.00  0.00    -0.240 NA
ATOM     17  C   UNL     1      -2.995 -10.672  12.559  0.00  0.00    +0.218 C 
ATOM     18  C   UNL     1      -3.056 -10.797  15.023  0.00  0.00    +0.126 C 
ATOM     19  C   UNL     1      -5.087 -11.449  13.744  0.00  0.00    +0.126 C 
ATOM     20  C   UNL     1      -4.051 -10.380  16.103  0.00  0.00    +0.125 C 
ATOM     21  C   UNL     1      -5.440 -12.184  15.037  0.00  0.00    +0.125 C 
ATOM     22  C   UNL     1      -5.853 -11.502  17.394  0.00  0.00    +0.121 A 
ATOM     24  C   UNL     1      -6.377 -12.756  17.666  0.00  0.00    +0.043 A 
ATOM     25  C   UNL     1      -7.088 -12.922  18.849  0.00  0.00    +0.005 A 
ATOM     26  C   UNL     1      -6.686 -10.631  19.351  0.00  0.00    +0.113 A 
ATOM     27  C   UNL     1      -7.250 -11.844  19.713  0.00  0.00    +0.020 A 
ENDBRANCH  15  17
ENDBRANCH  11  15
BRANCH  14  16
ATOM     16  C   UNL     1      -7.577  -9.276  11.030  0.00  0.00    +0.140 C 
BRANCH  16   8
ATOM      5  O   UNL     1      -9.630  -9.709  12.980  0.00  0.00    -0.253 OA
ATOM      8  N   UNL     1      -7.410  -9.330  12.452  0.00  0.00    -0.297 N 
ATOM     10  N   UNL     1      -8.007  -9.547  14.668  0.00  0.00    -0.269 N 
ATOM     23  C   UNL     1      -8.468  -9.547  13.349  0.00  0.00    +0.304 C 
ATOM     36  H   UNL     1      -6.475  -9.212  12.831  0.00  0.00    +0.150 HD
ATOM     37  H   UNL     1      -7.010  -9.395  14.802  0.00  0.00    +0.156 HD
BRANCH  10  28
ATOM     28  C   UNL     1      -8.758  -9.732  15.851  0.00  0.00    +0.035 A 
ATOM     29  C   UNL     1      -9.259 -10.994  16.171  0.00  0.00    +0.023 A 
ATOM     30  C   UNL     1      -8.998  -8.652  16.701  0.00  0.00    +0.023 A 
ATOM     31  C   UNL     1     -10.000 -11.176  17.337  0.00  0.00    +0.002 A 
ATOM     32  C   UNL     1      -9.738  -8.833  17.869  0.00  0.00    +0.002 A 
ATOM     33  C   UNL     1     -10.240 -10.096  18.187  0.00  0.00    +0.000 A 
ENDBRANCH  10  28
ENDBRANCH  16   8
ENDBRANCH  14  16
TORSDOF 7
ENDMDL
MODEL 6
REMARK VINA RESULT:      -7.4     28.671     30.647
REMARK  Name = 25390368
REMARK  7 active torsions:
REMARK  status: ('A' for Active; 'I' for Inactive)
REMARK    1  A    between atoms: O_2  and  C_12
REMARK    2  A    between atoms: O_3  and  C_13
REMARK    3  A    between atoms: N_8  and  C_16
REMARK    4  A    between atoms: N_10  and  C_28
REMARK    5  A    between atoms: C_11  and  C_15
REMARK    6  A    between atoms: C_14  and  C_16
REMARK    7  A    between atoms: C_15  and  C_17
REMARK                            x       y       z     vdW  Elec       q    Type
REMARK                         _______ _______ _______ _____ _____    ______ ____
ROOT
ATOM      1  O   UNL     1     -10.647 -10.087  16.156  0.00  0.00    -0.366 OA
ATOM     11  C   UNL     1     -10.659  -8.968  17.072  0.00  0.00    +0.159 C 
ATOM     12  C   UNL     1     -11.264  -7.795  16.309  0.00  0.00    +0.175 C 
ATOM     13  C   UNL     1     -10.886  -8.120  14.879  0.00  0.00    +0.176 C 
ATOM     14  C   UNL     1     -11.053  -9.629  14.854  0.00  0.00    +0.167 C 
ENDROOT
BRANCH  12   2
ATOM      2  O   UNL     1     -12.682  -7.847  16.470  0.00  0.00    -0.387 OA
ATOM     34  H   UNL     1     -12.880  -7.589  17.386  0.00  0.00    +0.210 HD
ENDBRANCH  12   2
BRANCH  13   3
ATOM      3  O   UNL     1     -11.705  -7.480  13.924  0.00  0.00    -0.387 OA
ATOM     35  H   UNL     1     -11.941  -8.142  13.252  0.00  0.00    +0.210 HD
ENDBRANCH  13   3
BRANCH  11  15
ATOM     15  C   UNL     1      -9.224  -8.714  17.515  0.00  0.00    +0.130 C 
BRANCH  15  17
ATOM      4  O   UNL     1      -9.169 -10.650  18.888  0.00  0.00    -0.276 OA
ATOM      6  N   UNL     1      -7.393 -10.365  17.416  0.00  0.00    -0.298 N 
ATOM      7  N   UNL     1      -4.999 -11.331  16.109  0.00  0.00    -0.312 N 
ATOM      9  N   UNL     1      -3.935 -13.003  14.824  0.00  0.00    -0.240 NA
ATOM     17  C   UNL     1      -8.603  -9.998  18.007  0.00  0.00    +0.218 C 
ATOM     18  C   UNL     1      -6.727 -11.592  17.842  0.00  0.00    +0.126 C 
ATOM     19  C   UNL     1      -6.728  -9.594  16.362  0.00  0.00    +0.126 C 
ATOM     20  C   UNL     1      -5.970 -12.258  16.695  0.00  0.00    +0.125 C 
ATOM     21  C   UNL     1      -5.232  -9.893  16.266  0.00  0.00    +0.125 C 
ATOM     22  C   UNL     1      -3.867 -11.807  15.450  0.00  0.00    +0.121 A 
ATOM     24  C   UNL     1      -2.732 -11.013  15.485  0.00  0.00    +0.043 A 
ATOM     25  C   UNL     1      -1.595 -11.476  14.833  0.00  0.00    +0.005 A 
ATOM     26  C   UNL     1      -2.810 -13.421  14.202  0.00  0.00    +0.113 A 
ATOM     27  C   UNL     1      -1.626 -12.702  14.177  0.00  0.00    +0.020 A 
ENDBRANCH  15  17
ENDBRANCH  11  15
BRANCH  14  16
ATOM     16  C   UNL     1     -10.215 -10.311  13.789  0.00  0.00    +0.140 C 
BRANCH  16   8
ATOM      5  O   UNL     1      -8.062 -11.120  12.080  0.00  0.00    -0.253 OA
ATOM      8  N   UNL     1      -8.985  -9.609  13.569  0.00  0.00    -0.297 N 
ATOM     10  N   UNL     1      -6.894  -9.181  12.699  0.00  0.00    -0.269 N 
ATOM     23  C   UNL     1      -7.971 -10.070  12.713  0.00  0.00    +0.304 C 
ATOM     36  H   UNL     1      -8.842  -8.727  14.052  0.00  0.00    +0.150 HD
ATOM     37  H   UNL     1      -6.977  -8.354  13.285  0.00  0.00    +0.156 HD
BRANCH  10  28
ATOM     28  C   UNL     1      -5.689  -9.288  11.967  0.00  0.00    +0.035 A 
ATOM     29  C   UNL     1      -5.518  -8.557  10.791  0.00  0.00    +0.023 A 
ATOM     30  C   UNL     1      -4.668 -10.124  12.421  0.00  0.00    +0.023 A 
ATOM     31  C   UNL     1      -4.330  -8.662  10.069  0.00  0.00    +0.002 A 
ATOM     32  C   UNL     1      -3.479 -10.229  11.700  0.00  0.00    +0.002 A 
ATOM     33  C   UNL     1      -3.310  -9.498  10.523  0.00  0.00    +0.000 A 
ENDBRANCH  10  28
ENDBRANCH  16   8
ENDBRANCH  14  16
TORSDOF 7
ENDMDL
MODEL 7
REMARK VINA RESULT:      -7.4      4.800      7.515
REMARK  Name = 25390368
REMARK  7 active torsions:
REMARK  status: ('A' for Active; 'I' for Inactive)
REMARK    1  A    between atoms: O_2  and  C_12
REMARK    2  A    between atoms: O_3  and  C_13
REMARK    3  A    between atoms: N_8  and  C_16
REMARK    4  A    between atoms: N_10  and  C_28
REMARK    5  A    between atoms: C_11  and  C_15
REMARK    6  A    between atoms: C_14  and  C_16
REMARK    7  A    between atoms: C_15  and  C_17
REMARK                            x       y       z     vdW  Elec       q    Type
REMARK                         _______ _______ _______ _____ _____    ______ ____
ROOT
ATOM      1  O   UNL     1      12.416   6.930  18.950  0.00  0.00    -0.366 OA
ATOM     11  C   UNL     1      13.503   7.686  18.368  0.00  0.00    +0.159 C 
ATOM     12  C   UNL     1      14.690   7.524  19.311  0.00  0.00    +0.175 C 
ATOM     13  C   UNL     1      14.007   7.315  20.646  0.00  0.00    +0.176 C 
ATOM     14  C   UNL     1      12.816   6.459  20.249  0.00  0.00    +0.167 C 
ENDROOT
BRANCH  12   2
ATOM      2  O   UNL     1      15.401   6.346  18.929  0.00  0.00    -0.387 OA
ATOM     34  H   UNL     1      14.790   5.595  19.021  0.00  0.00    +0.210 HD
ENDBRANCH  12   2
BRANCH  13   3
ATOM      3  O   UNL     1      14.826   6.673  21.599  0.00  0.00    -0.387 OA
ATOM     35  H   UNL     1      14.906   7.268  22.364  0.00  0.00    +0.210 HD
ENDBRANCH  13   3
BRANCH  11  15
ATOM     15  C   UNL     1      13.044   9.131  18.231  0.00  0.00    +0.130 C 
BRANCH  15  17
ATOM      4  O   UNL     1      11.857   8.894  16.188  0.00  0.00    -0.276 OA
ATOM      6  N   UNL     1      13.641  10.382  16.190  0.00  0.00    -0.298 N 
ATOM      7  N   UNL     1      15.221  12.455  14.931  0.00  0.00    -0.312 N 
ATOM      9  N   UNL     1      15.308  14.570  13.884  0.00  0.00    -0.240 NA
ATOM     17  C   UNL     1      12.784   9.452  16.779  0.00  0.00    +0.218 C 
ATOM     18  C   UNL     1      13.459  10.742  14.787  0.00  0.00    +0.126 C 
ATOM     19  C   UNL     1      14.736  11.052  16.897  0.00  0.00    +0.126 C 
ATOM     20  C   UNL     1      13.839  12.196  14.517  0.00  0.00    +0.125 C 
ATOM     21  C   UNL     1      15.812  11.586  15.951  0.00  0.00    +0.125 C 
ATOM     22  C   UNL     1      15.960  13.479  14.342  0.00  0.00    +0.121 A 
ATOM     24  C   UNL     1      17.333  13.305  14.264  0.00  0.00    +0.043 A 
ATOM     25  C   UNL     1      18.084  14.318  13.679  0.00  0.00    +0.005 A 
ATOM     26  C   UNL     1      16.071  15.534  13.321  0.00  0.00    +0.113 A 
ATOM     27  C   UNL     1      17.449  15.457  13.195  0.00  0.00    +0.020 A 
ENDBRANCH  15  17
ENDBRANCH  11  15
BRANCH  14  16
ATOM     16  C   UNL     1      11.649   6.567  21.214  0.00  0.00    +0.140 C 
BRANCH  16   8
ATOM      5  O   UNL     1      10.519   9.183  20.925  0.00  0.00    -0.253 OA
ATOM      8  N   UNL     1      11.815   7.675  22.107  0.00  0.00    -0.297 N 
ATOM     10  N   UNL     1      11.564   9.813  22.930  0.00  0.00    -0.269 N 
ATOM     23  C   UNL     1      11.227   8.933  21.898  0.00  0.00    +0.304 C 
ATOM     36  H   UNL     1      12.381   7.540  22.939  0.00  0.00    +0.150 HD
ATOM     37  H   UNL     1      12.165   9.447  23.664  0.00  0.00    +0.156 HD
BRANCH  10  28
ATOM     28  C   UNL     1      11.173  11.163  23.083  0.00  0.00    +0.035 A 
ATOM     29  C   UNL     1      11.158  12.016  21.979  0.00  0.00    +0.023 A 
ATOM     30  C   UNL     1      10.800  11.644  24.338  0.00  0.00    +0.023 A 
ATOM     31  C   UNL     1      10.772  13.347  22.130  0.00  0.00    +0.002 A 
ATOM     32  C   UNL     1      10.413  12.975  24.490  0.00  0.00    +0.002 A 
ATOM     33  C   UNL     1      10.399  13.828  23.385  0.00  0.00    +0.000 A 
ENDBRANCH  10  28
ENDBRANCH  16   8
ENDBRANCH  14  16
TORSDOF 7
ENDMDL
MODEL 8
REMARK VINA RESULT:      -7.3     28.993     31.763
REMARK  Name = 25390368
REMARK  7 active torsions:
REMARK  status: ('A' for Active; 'I' for Inactive)
REMARK    1  A    between atoms: O_2  and  C_12
REMARK    2  A    between atoms: O_3  and  C_13
REMARK    3  A    between atoms: N_8  and  C_16
REMARK    4  A    between atoms: N_10  and  C_28
REMARK    5  A    between atoms: C_11  and  C_15
REMARK    6  A    between atoms: C_14  and  C_16
REMARK    7  A    between atoms: C_15  and  C_17
REMARK                            x       y       z     vdW  Elec       q    Type
REMARK                         _______ _______ _______ _____ _____    ______ ____
ROOT
ATOM      1  O   UNL     1      -5.918 -11.091  18.242  0.00  0.00    -0.366 OA
ATOM     11  C   UNL     1      -6.239 -12.456  18.596  0.00  0.00    +0.159 C 
ATOM     12  C   UNL     1      -5.257 -13.339  17.835  0.00  0.00    +0.175 C 
ATOM     13  C   UNL     1      -4.958 -12.498  16.612  0.00  0.00    +0.176 C 
ATOM     14  C   UNL     1      -4.921 -11.100  17.204  0.00  0.00    +0.167 C 
ENDROOT
BRANCH  12   2
ATOM      2  O   UNL     1      -4.082 -13.485  18.635  0.00  0.00    -0.387 OA
ATOM     34  H   UNL     1      -3.887 -14.436  18.694  0.00  0.00    +0.210 HD
ENDBRANCH  12   2
BRANCH  13   3
ATOM      3  O   UNL     1      -3.742 -12.838  15.982  0.00  0.00    -0.387 OA
ATOM     35  H   UNL     1      -3.959 -13.350  15.184  0.00  0.00    +0.210 HD
ENDBRANCH  13   3
BRANCH  11  15
ATOM     15  C   UNL     1      -7.690 -12.708  18.209  0.00  0.00    +0.130 C 
BRANCH  15  17
ATOM      4  O   UNL     1      -8.649 -11.621  20.089  0.00  0.00    -0.276 OA
ATOM      6  N   UNL     1      -9.292 -10.844  17.995  0.00  0.00    -0.298 N 
ATOM      7  N   UNL     1     -10.642  -8.922  16.304  0.00  0.00    -0.312 N 
ATOM      9  N   UNL     1     -10.956  -6.672  15.657  0.00  0.00    -0.240 NA
ATOM     17  C   UNL     1      -8.582 -11.679  18.858  0.00  0.00    +0.218 C 
ATOM     18  C   UNL     1     -10.181  -9.825  18.546  0.00  0.00    +0.126 C 
ATOM     19  C   UNL     1      -9.202 -10.908  16.534  0.00  0.00    +0.126 C 
ATOM     20  C   UNL     1     -10.233  -8.577  17.668  0.00  0.00    +0.125 C 
ATOM     21  C   UNL     1     -10.417 -10.292  15.839  0.00  0.00    +0.125 C 
ATOM     22  C   UNL     1     -11.259  -7.978  15.486  0.00  0.00    +0.121 A 
ATOM     24  C   UNL     1     -12.157  -8.448  14.540  0.00  0.00    +0.043 A 
ATOM     25  C   UNL     1     -12.781  -7.518  13.717  0.00  0.00    +0.005 A 
ATOM     26  C   UNL     1     -11.582  -5.797  14.840  0.00  0.00    +0.113 A 
ATOM     27  C   UNL     1     -12.495  -6.165  13.863  0.00  0.00    +0.020 A 
ENDBRANCH  15  17
ENDBRANCH  11  15
BRANCH  14  16
ATOM     16  C   UNL     1      -5.226 -10.009  16.193  0.00  0.00    +0.140 C 
BRANCH  16   8
ATOM      5  O   UNL     1      -6.196  -9.906  13.500  0.00  0.00    -0.253 OA
ATOM      8  N   UNL     1      -4.455 -10.180  14.998  0.00  0.00    -0.297 N 
ATOM     10  N   UNL     1      -4.014 -10.321  12.740  0.00  0.00    -0.269 N 
ATOM     23  C   UNL     1      -5.002 -10.116  13.706  0.00  0.00    +0.304 C 
ATOM     36  H   UNL     1      -3.457 -10.348  15.090  0.00  0.00    +0.150 HD
ATOM     37  H   UNL     1      -3.070 -10.483  13.081  0.00  0.00    +0.156 HD
BRANCH  10  28
ATOM     28  C   UNL     1      -4.163 -10.331  11.334  0.00  0.00    +0.035 A 
ATOM     29  C   UNL     1      -3.951  -9.164  10.600  0.00  0.00    +0.023 A 
ATOM     30  C   UNL     1      -4.522 -11.509  10.679  0.00  0.00    +0.023 A 
ATOM     31  C   UNL     1      -4.099  -9.174   9.214  0.00  0.00    +0.002 A 
ATOM     32  C   UNL     1      -4.669 -11.521   9.292  0.00  0.00    +0.002 A 
ATOM     33  C   UNL     1      -4.457 -10.352   8.559  0.00  0.00    +0.000 A 
ENDBRANCH  10  28
ENDBRANCH  16   8
ENDBRANCH  14  16
TORSDOF 7
ENDMDL
MODEL 9
REMARK VINA RESULT:      -7.2     18.947     22.860
REMARK  Name = 25390368
REMARK  7 active torsions:
REMARK  status: ('A' for Active; 'I' for Inactive)
REMARK    1  A    between atoms: O_2  and  C_12
REMARK    2  A    between atoms: O_3  and  C_13
REMARK    3  A    between atoms: N_8  and  C_16
REMARK    4  A    between atoms: N_10  and  C_28
REMARK    5  A    between atoms: C_11  and  C_15
REMARK    6  A    between atoms: C_14  and  C_16
REMARK    7  A    between atoms: C_15  and  C_17
REMARK                            x       y       z     vdW  Elec       q    Type
REMARK                         _______ _______ _______ _____ _____    ______ ____
ROOT
ATOM      1  O   UNL     1      12.909   3.626   0.562  0.00  0.00    -0.366 OA
ATOM     11  C   UNL     1      14.133   3.635  -0.208  0.00  0.00    +0.159 C 
ATOM     12  C   UNL     1      15.207   4.221   0.701  0.00  0.00    +0.175 C 
ATOM     13  C   UNL     1      14.398   5.128   1.602  0.00  0.00    +0.176 C 
ATOM     14  C   UNL     1      13.136   4.309   1.808  0.00  0.00    +0.167 C 
ENDROOT
BRANCH  12   2
ATOM      2  O   UNL     1      15.777   3.151   1.457  0.00  0.00    -0.387 OA
ATOM     34  H   UNL     1      15.281   3.090   2.292  0.00  0.00    +0.210 HD
ENDBRANCH  12   2
BRANCH  13   3
ATOM      3  O   UNL     1      15.042   5.424   2.823  0.00  0.00    -0.387 OA
ATOM     35  H   UNL     1      15.793   4.812   2.913  0.00  0.00    +0.210 HD
ENDBRANCH  13   3
BRANCH  11  15
ATOM     15  C   UNL     1      13.890   4.470  -1.458  0.00  0.00    +0.130 C 
BRANCH  15  17
ATOM      4  O   UNL     1      12.827   2.686  -2.609  0.00  0.00    -0.276 OA
ATOM      6  N   UNL     1      11.710   4.723  -2.587  0.00  0.00    -0.298 N 
ATOM      7  N   UNL     1       9.372   6.343  -3.118  0.00  0.00    -0.312 N 
ATOM      9  N   UNL     1       7.051   6.689  -2.844  0.00  0.00    -0.240 NA
ATOM     17  C   UNL     1      12.767   3.869  -2.268  0.00  0.00    +0.218 C 
ATOM     18  C   UNL     1      10.587   4.218  -3.372  0.00  0.00    +0.126 C 
ATOM     19  C   UNL     1      11.636   6.127  -2.171  0.00  0.00    +0.126 C 
ATOM     20  C   UNL     1       9.272   4.888  -2.982  0.00  0.00    +0.125 C 
ATOM     21  C   UNL     1      10.701   6.955  -3.052  0.00  0.00    +0.125 C 
ATOM     22  C   UNL     1       8.234   7.117  -3.338  0.00  0.00    +0.121 A 
ATOM     24  C   UNL     1       8.395   8.288  -4.062  0.00  0.00    +0.043 A 
ATOM     25  C   UNL     1       7.269   9.071  -4.290  0.00  0.00    +0.005 A 
ATOM     26  C   UNL     1       5.979   7.476  -3.086  0.00  0.00    +0.113 A 
ATOM     27  C   UNL     1       6.034   8.664  -3.797  0.00  0.00    +0.020 A 
ENDBRANCH  15  17
ENDBRANCH  11  15
BRANCH  14  16
ATOM     16  C   UNL     1      11.922   5.149   2.159  0.00  0.00    +0.140 C 
BRANCH  16   8
ATOM      5  O   UNL     1       9.901   4.676   4.133  0.00  0.00    -0.253 OA
ATOM      8  N   UNL     1      11.953   5.558   3.532  0.00  0.00    -0.297 N 
ATOM     10  N   UNL     1      11.227   5.808   5.705  0.00  0.00    -0.269 N 
ATOM     23  C   UNL     1      10.920   5.289   4.444  0.00  0.00    +0.304 C 
ATOM     36  H   UNL     1      12.770   6.062   3.864  0.00  0.00    +0.150 HD
ATOM     37  H   UNL     1      12.117   6.292   5.794  0.00  0.00    +0.156 HD
BRANCH  10  28
ATOM     28  C   UNL     1      10.448   5.745   6.883  0.00  0.00    +0.035 A 
ATOM     29  C   UNL     1      10.339   4.544   7.585  0.00  0.00    +0.023 A 
ATOM     30  C   UNL     1       9.789   6.884   7.346  0.00  0.00    +0.023 A 
ATOM     31  C   UNL     1       9.570   4.482   8.747  0.00  0.00    +0.002 A 
ATOM     32  C   UNL     1       9.021   6.823   8.508  0.00  0.00    +0.002 A 
ATOM     33  C   UNL     1       8.911   5.621   9.209  0.00  0.00    +0.000 A 
ENDBRANCH  10  28
ENDBRANCH  16   8
ENDBRANCH  14  16
TORSDOF 7
ENDMDL
MODEL 10
REMARK VINA RESULT:      -7.2     16.672     21.465
REMARK  Name = 25390368
REMARK  7 active torsions:
REMARK  status: ('A' for Active; 'I' for Inactive)
REMARK    1  A    between atoms: O_2  and  C_12
REMARK    2  A    between atoms: O_3  and  C_13
REMARK    3  A    between atoms: N_8  and  C_16
REMARK    4  A    between atoms: N_10  and  C_28
REMARK    5  A    between atoms: C_11  and  C_15
REMARK    6  A    between atoms: C_14  and  C_16
REMARK    7  A    between atoms: C_15  and  C_17
REMARK                            x       y       z     vdW  Elec       q    Type
REMARK                         _______ _______ _______ _____ _____    ______ ____
ROOT
ATOM      1  O   UNL     1      10.977   6.866   5.817  0.00  0.00    -0.366 OA
ATOM     11  C   UNL     1      10.672   7.296   7.164  0.00  0.00    +0.159 C 
ATOM     12  C   UNL     1      10.410   6.029   7.970  0.00  0.00    +0.175 C 
ATOM     13  C   UNL     1       9.890   5.082   6.910  0.00  0.00    +0.176 C 
ATOM     14  C   UNL     1      10.761   5.447   5.720  0.00  0.00    +0.167 C 
ENDROOT
BRANCH  12   2
ATOM      2  O   UNL     1      11.660   5.563   8.480  0.00  0.00    -0.387 OA
ATOM     34  H   UNL     1      11.895   6.129   9.235  0.00  0.00    +0.210 HD
ENDBRANCH  12   2
BRANCH  13   3
ATOM      3  O   UNL     1      10.018   3.722   7.262  0.00  0.00    -0.387 OA
ATOM     35  H   UNL     1      10.730   3.657   7.922  0.00  0.00    +0.210 HD
ENDBRANCH  13   3
BRANCH  11  15
ATOM     15  C   UNL     1       9.463   8.220   7.096  0.00  0.00    +0.130 C 
BRANCH  15  17
ATOM      4  O   UNL     1      10.599  10.234   6.561  0.00  0.00    -0.276 OA
ATOM      6  N   UNL     1       9.057   9.462   5.003  0.00  0.00    -0.298 N 
ATOM      7  N   UNL     1       7.803   9.579   2.397  0.00  0.00    -0.312 N 
ATOM      9  N   UNL     1       8.031   9.587   0.046  0.00  0.00    -0.240 NA
ATOM     17  C   UNL     1       9.766   9.398   6.203  0.00  0.00    +0.218 C 
ATOM     18  C   UNL     1       9.290  10.575   4.087  0.00  0.00    +0.126 C 
ATOM     19  C   UNL     1       8.075   8.462   4.576  0.00  0.00    +0.126 C 
ATOM     20  C   UNL     1       9.130  10.156   2.628  0.00  0.00    +0.125 C 
ATOM     21  C   UNL     1       7.090   9.005   3.540  0.00  0.00    +0.125 C 
ATOM     22  C   UNL     1       7.224   9.609   1.130  0.00  0.00    +0.121 A 
ATOM     24  C   UNL     1       5.840   9.664   1.067  0.00  0.00    +0.043 A 
ATOM     25  C   UNL     1       5.248   9.695  -0.190  0.00  0.00    +0.005 A 
ATOM     26  C   UNL     1       7.420   9.619  -1.159  0.00  0.00    +0.113 A 
ATOM     27  C   UNL     1       6.046   9.673  -1.330  0.00  0.00    +0.020 A 
ENDBRANCH  15  17
ENDBRANCH  11  15
BRANCH  14  16
ATOM     16  C   UNL     1      10.123   5.118   4.383  0.00  0.00    +0.140 C 
BRANCH  16   8
ATOM      5  O   UNL     1      11.987   6.020   2.403  0.00  0.00    -0.253 OA
ATOM      8  N   UNL     1      10.988   4.300   3.584  0.00  0.00    -0.297 N 
ATOM     10  N   UNL     1      12.588   3.786   2.006  0.00  0.00    -0.269 N 
ATOM     23  C   UNL     1      11.879   4.816   2.629  0.00  0.00    +0.304 C 
ATOM     36  H   UNL     1      10.960   3.294   3.721  0.00  0.00    +0.150 HD
ATOM     37  H   UNL     1      12.376   2.839   2.310  0.00  0.00    +0.156 HD
BRANCH  10  28
ATOM     28  C   UNL     1      13.572   3.895   0.997  0.00  0.00    +0.035 A 
ATOM     29  C   UNL     1      14.925   3.873   1.335  0.00  0.00    +0.023 A 
ATOM     30  C   UNL     1      13.190   4.024  -0.338  0.00  0.00    +0.023 A 
ATOM     31  C   UNL     1      15.895   3.981   0.340  0.00  0.00    +0.002 A 
ATOM     32  C   UNL     1      14.160   4.131  -1.335  0.00  0.00    +0.002 A 
ATOM     33  C   UNL     1      15.514   4.110  -0.996  0.00  0.00    +0.000 A 
ENDBRANCH  10  28
ENDBRANCH  16   8
ENDBRANCH  14  16
TORSDOF 7
ENDMDL
