MODEL 1
REMARK VINA RESULT:      -7.1      0.000      0.000
REMARK  Name = 51136977
REMARK  11 active torsions:
REMARK  status: ('A' for Active; 'I' for Inactive)
REMARK    1  A    between atoms: O_6  and  C_15
REMARK    2  A    between atoms: O_7  and  C_22
REMARK    3  A    between atoms: O_9  and  C_34
REMARK    4  A    between atoms: O_9  and  C_37
REMARK    5  A    between atoms: N_10  and  C_13
REMARK    6  A    between atoms: N_11  and  C_23
REMARK    7  A    between atoms: N_12  and  C_19
REMARK    8  A    between atoms: C_14  and  C_19
REMARK    9  A    between atoms: C_16  and  C_22
REMARK   10  A    between atoms: C_24  and  C_29
REMARK   11  A    between atoms: C_27  and  C_31
REMARK                            x       y       z     vdW  Elec       q    Type
REMARK                         _______ _______ _______ _____ _____    ______ ____
ROOT
ATOM      5  O   UNL     1     -17.557   5.100  23.142  0.00  0.00    -0.365 OA
ATOM     13  C   UNL     1     -17.555   3.829  25.155  0.00  0.00    +0.118 C 
ATOM     14  C   UNL     1     -16.912   5.020  24.433  0.00  0.00    +0.155 C 
ATOM     15  C   UNL     1     -18.030   2.948  24.009  0.00  0.00    +0.165 C 
ATOM     16  C   UNL     1     -18.486   4.007  23.012  0.00  0.00    +0.174 C 
ENDROOT
BRANCH  13  10
ATOM     10  N   UNL     1     -16.734   3.161  26.149  0.00  0.00    -0.292 NA
ATOM     11  N   UNL     1     -16.116   2.076  28.719  0.00  0.00    -0.327 N 
ATOM     17  C   UNL     1     -17.384   1.929  26.611  0.00  0.00    +0.104 C 
ATOM     18  C   UNL     1     -16.481   4.051  27.290  0.00  0.00    +0.104 C 
ATOM     20  C   UNL     1     -16.503   1.186  27.619  0.00  0.00    +0.120 C 
ATOM     21  C   UNL     1     -15.569   3.379  28.318  0.00  0.00    +0.120 C 
BRANCH  11  23
ATOM     23  C   UNL     1     -15.694   1.532  29.936  0.00  0.00    +0.030 A 
ATOM     25  C   UNL     1     -15.436   2.368  31.022  0.00  0.00    +0.035 A 
ATOM     26  C   UNL     1     -15.531   0.152  30.066  0.00  0.00    +0.023 A 
ATOM     27  C   UNL     1     -15.014   1.826  32.236  0.00  0.00    +0.057 A 
ATOM     28  C   UNL     1     -15.111  -0.390  31.279  0.00  0.00    +0.002 A 
ATOM     30  C   UNL     1     -14.852   0.446  32.365  0.00  0.00    +0.012 A 
BRANCH  27  31
ATOM      2  F   UNL     1     -14.469   2.027  34.542  0.00  0.00    -0.166 F 
ATOM      3  F   UNL     1     -13.664   3.545  33.207  0.00  0.00    -0.166 F 
ATOM      4  F   UNL     1     -15.775   3.552  33.705  0.00  0.00    -0.166 F 
ATOM     31  C   UNL     1     -14.737   2.720  33.395  0.00  0.00    +0.417 C 
ENDBRANCH  27  31
ENDBRANCH  11  23
ENDBRANCH  13  10
BRANCH  15   6
ATOM      6  O   UNL     1     -16.962   2.183  23.464  0.00  0.00    -0.388 OA
ATOM     38  H   UNL     1     -16.576   2.695  22.734  0.00  0.00    +0.210 HD
ENDBRANCH  15   6
BRANCH  14  19
ATOM     19  C   UNL     1     -15.410   4.938  24.182  0.00  0.00    +0.137 C 
BRANCH  19  12
ATOM      8  O   UNL     1     -14.328   4.396  21.579  0.00  0.00    -0.270 OA
ATOM     12  N   UNL     1     -14.996   5.904  23.210  0.00  0.00    -0.309 N 
ATOM     24  C   UNL     1     -14.480   5.552  21.966  0.00  0.00    +0.246 C 
ATOM     39  H   UNL     1     -15.096   6.887  23.444  0.00  0.00    +0.149 HD
BRANCH  24  29
ATOM      1 CL   UNL     1     -16.703   7.159  20.544  0.00  0.00    -0.083 Cl
ATOM     29  C   UNL     1     -14.072   6.673  21.080  0.00  0.00    +0.058 A 
ATOM     32  C   UNL     1     -12.710   6.936  20.941  0.00  0.00    +0.060 A 
ATOM     33  C   UNL     1     -15.007   7.452  20.399  0.00  0.00    +0.053 A 
ATOM     34  C   UNL     1     -12.282   7.980  20.119  0.00  0.00    +0.121 A 
ATOM     35  C   UNL     1     -14.579   8.496  19.577  0.00  0.00    +0.024 A 
ATOM     36  C   UNL     1     -13.216   8.759  19.439  0.00  0.00    +0.047 A 
BRANCH  34   9
ATOM      9  O   UNL     1     -10.952   8.238  19.984  0.00  0.00    -0.495 OA
ATOM     37  C   UNL     1     -10.585   9.558  19.584  0.00  0.00    +0.277 C 
ENDBRANCH  34   9
ENDBRANCH  24  29
ENDBRANCH  19  12
ENDBRANCH  14  19
BRANCH  16  22
ATOM     22  C   UNL     1     -18.534   3.561  21.562  0.00  0.00    +0.190 C 
BRANCH  22   7
ATOM      7  O   UNL     1     -17.282   3.838  20.955  0.00  0.00    -0.392 OA
ATOM     40  H   UNL     1     -17.006   4.719  21.257  0.00  0.00    +0.210 HD
ENDBRANCH  22   7
ENDBRANCH  16  22
TORSDOF 10
ENDMDL
MODEL 2
REMARK VINA RESULT:      -7.0     20.581     22.003
REMARK  Name = 51136977
REMARK  11 active torsions:
REMARK  status: ('A' for Active; 'I' for Inactive)
REMARK    1  A    between atoms: O_6  and  C_15
REMARK    2  A    between atoms: O_7  and  C_22
REMARK    3  A    between atoms: O_9  and  C_34
REMARK    4  A    between atoms: O_9  and  C_37
REMARK    5  A    between atoms: N_10  and  C_13
REMARK    6  A    between atoms: N_11  and  C_23
REMARK    7  A    between atoms: N_12  and  C_19
REMARK    8  A    between atoms: C_14  and  C_19
REMARK    9  A    between atoms: C_16  and  C_22
REMARK   10  A    between atoms: C_24  and  C_29
REMARK   11  A    between atoms: C_27  and  C_31
REMARK                            x       y       z     vdW  Elec       q    Type
REMARK                         _______ _______ _______ _____ _____    ______ ____
ROOT
ATOM      5  O   UNL     1      -7.767  -9.799   7.553  0.00  0.00    -0.365 OA
ATOM     13  C   UNL     1      -6.230 -10.535   9.214  0.00  0.00    +0.118 C 
ATOM     14  C   UNL     1      -7.521  -9.742   8.977  0.00  0.00    +0.155 C 
ATOM     15  C   UNL     1      -5.508 -10.425   7.880  0.00  0.00    +0.165 C 
ATOM     16  C   UNL     1      -6.686 -10.505   6.916  0.00  0.00    +0.174 C 
ENDROOT
BRANCH  13  10
ATOM     10  N   UNL     1      -5.446 -10.152  10.376  0.00  0.00    -0.292 NA
ATOM     11  N   UNL     1      -4.065 -10.567  12.842  0.00  0.00    -0.327 N 
ATOM     17  C   UNL     1      -4.172 -10.880  10.400  0.00  0.00    +0.104 C 
ATOM     18  C   UNL     1      -6.195 -10.415  11.611  0.00  0.00    +0.104 C 
ATOM     20  C   UNL     1      -3.311 -10.444  11.590  0.00  0.00    +0.120 C 
ATOM     21  C   UNL     1      -5.403  -9.962  12.840  0.00  0.00    +0.120 C 
BRANCH  11  23
ATOM     23  C   UNL     1      -3.379 -10.645  14.059  0.00  0.00    +0.030 A 
ATOM     25  C   UNL     1      -4.072 -10.946  15.232  0.00  0.00    +0.035 A 
ATOM     26  C   UNL     1      -2.003 -10.420  14.101  0.00  0.00    +0.023 A 
ATOM     27  C   UNL     1      -3.389 -11.022  16.446  0.00  0.00    +0.057 A 
ATOM     28  C   UNL     1      -1.320 -10.497  15.314  0.00  0.00    +0.002 A 
ATOM     30  C   UNL     1      -2.013 -10.798  16.487  0.00  0.00    +0.012 A 
BRANCH  27  31
ATOM      2  F   UNL     1      -3.299 -11.672  18.731  0.00  0.00    -0.166 F 
ATOM      3  F   UNL     1      -4.896 -10.310  18.161  0.00  0.00    -0.166 F 
ATOM      4  F   UNL     1      -4.991 -12.395  17.571  0.00  0.00    -0.166 F 
ATOM     31  C   UNL     1      -4.130 -11.342  17.698  0.00  0.00    +0.417 C 
ENDBRANCH  27  31
ENDBRANCH  11  23
ENDBRANCH  13  10
BRANCH  15   6
ATOM      6  O   UNL     1      -4.845  -9.173   7.749  0.00  0.00    -0.388 OA
ATOM     38  H   UNL     1      -5.319  -8.530   8.305  0.00  0.00    +0.210 HD
ENDBRANCH  15   6
BRANCH  14  19
ATOM     19  C   UNL     1      -7.503  -8.270   9.373  0.00  0.00    +0.137 C 
BRANCH  19  12
ATOM      8  O   UNL     1      -8.549  -6.549   7.328  0.00  0.00    -0.270 OA
ATOM     12  N   UNL     1      -8.818  -7.706   9.320  0.00  0.00    -0.309 N 
ATOM     24  C   UNL     1      -9.244  -6.877   8.286  0.00  0.00    +0.246 C 
ATOM     39  H   UNL     1      -9.463  -7.933  10.071  0.00  0.00    +0.149 HD
BRANCH  24  29
ATOM      1 CL   UNL     1     -11.503  -8.452   6.887  0.00  0.00    -0.083 Cl
ATOM     29  C   UNL     1     -10.629  -6.350   8.391  0.00  0.00    +0.058 A 
ATOM     32  C   UNL     1     -10.831  -5.177   9.116  0.00  0.00    +0.060 A 
ATOM     33  C   UNL     1     -11.711  -6.996   7.792  0.00  0.00    +0.053 A 
ATOM     34  C   UNL     1     -12.117  -4.647   9.241  0.00  0.00    +0.121 A 
ATOM     35  C   UNL     1     -12.996  -6.467   7.917  0.00  0.00    +0.024 A 
ATOM     36  C   UNL     1     -13.198  -5.293   8.642  0.00  0.00    +0.047 A 
BRANCH  34   9
ATOM      9  O   UNL     1     -12.315  -3.501   9.948  0.00  0.00    -0.495 OA
ATOM     37  C   UNL     1     -12.165  -3.581  11.366  0.00  0.00    +0.277 C 
ENDBRANCH  34   9
ENDBRANCH  24  29
ENDBRANCH  19  12
ENDBRANCH  14  19
BRANCH  16  22
ATOM     22  C   UNL     1      -6.445  -9.914   5.539  0.00  0.00    +0.190 C 
BRANCH  22   7
ATOM      7  O   UNL     1      -6.703  -8.520   5.587  0.00  0.00    -0.392 OA
ATOM     40  H   UNL     1      -6.567  -8.235   6.506  0.00  0.00    +0.210 HD
ENDBRANCH  22   7
ENDBRANCH  16  22
TORSDOF 10
ENDMDL
MODEL 3
REMARK VINA RESULT:      -6.9     15.966     17.218
REMARK  Name = 51136977
REMARK  11 active torsions:
REMARK  status: ('A' for Active; 'I' for Inactive)
REMARK    1  A    between atoms: O_6  and  C_15
REMARK    2  A    between atoms: O_7  and  C_22
REMARK    3  A    between atoms: O_9  and  C_34
REMARK    4  A    between atoms: O_9  and  C_37
REMARK    5  A    between atoms: N_10  and  C_13
REMARK    6  A    between atoms: N_11  and  C_23
REMARK    7  A    between atoms: N_12  and  C_19
REMARK    8  A    between atoms: C_14  and  C_19
REMARK    9  A    between atoms: C_16  and  C_22
REMARK   10  A    between atoms: C_24  and  C_29
REMARK   11  A    between atoms: C_27  and  C_31
REMARK                            x       y       z     vdW  Elec       q    Type
REMARK                         _______ _______ _______ _____ _____    ______ ____
ROOT
ATOM      5  O   UNL     1     -14.559  -6.513  14.333  0.00  0.00    -0.365 OA
ATOM     13  C   UNL     1     -12.766  -7.861  15.130  0.00  0.00    +0.118 C 
ATOM     14  C   UNL     1     -13.295  -6.425  15.029  0.00  0.00    +0.155 C 
ATOM     15  C   UNL     1     -13.422  -8.553  13.945  0.00  0.00    +0.165 C 
ATOM     16  C   UNL     1     -14.791  -7.882  13.951  0.00  0.00    +0.174 C 
ENDROOT
BRANCH  13  10
ATOM     10  N   UNL     1     -11.323  -8.009  15.213  0.00  0.00    -0.292 NA
ATOM     11  N   UNL     1      -8.868  -9.187  16.077  0.00  0.00    -0.327 N 
ATOM     17  C   UNL     1     -10.910  -9.323  14.705  0.00  0.00    +0.104 C 
ATOM     18  C   UNL     1     -10.868  -7.844  16.599  0.00  0.00    +0.104 C 
ATOM     20  C   UNL     1      -9.387  -9.471  14.735  0.00  0.00    +0.120 C 
ATOM     21  C   UNL     1      -9.343  -7.941  16.691  0.00  0.00    +0.120 C 
BRANCH  11  23
ATOM     23  C   UNL     1      -7.607  -9.665  16.448  0.00  0.00    +0.030 A 
ATOM     25  C   UNL     1      -7.388 -10.118  17.750  0.00  0.00    +0.035 A 
ATOM     26  C   UNL     1      -6.567  -9.689  15.519  0.00  0.00    +0.023 A 
ATOM     27  C   UNL     1      -6.130 -10.593  18.121  0.00  0.00    +0.057 A 
ATOM     28  C   UNL     1      -5.310 -10.164  15.889  0.00  0.00    +0.002 A 
ATOM     30  C   UNL     1      -5.092 -10.617  17.190  0.00  0.00    +0.012 A 
BRANCH  27  31
ATOM      2  F   UNL     1      -6.042 -10.086  20.442  0.00  0.00    -0.166 F 
ATOM      3  F   UNL     1      -6.753 -12.068  19.898  0.00  0.00    -0.166 F 
ATOM      4  F   UNL     1      -4.646 -11.585  19.711  0.00  0.00    -0.166 F 
ATOM     31  C   UNL     1      -5.897 -11.075  19.511  0.00  0.00    +0.417 C 
ENDBRANCH  27  31
ENDBRANCH  11  23
ENDBRANCH  13  10
BRANCH  15   6
ATOM      6  O   UNL     1     -12.736  -8.268  12.732  0.00  0.00    -0.388 OA
ATOM     38  H   UNL     1     -13.252  -8.656  12.005  0.00  0.00    +0.210 HD
ENDBRANCH  15   6
BRANCH  14  19
ATOM     19  C   UNL     1     -12.429  -5.428  14.266  0.00  0.00    +0.137 C 
BRANCH  19  12
ATOM      8  O   UNL     1     -11.959  -2.978  12.846  0.00  0.00    -0.270 OA
ATOM     12  N   UNL     1     -13.074  -5.002  13.061  0.00  0.00    -0.309 N 
ATOM     24  C   UNL     1     -12.784  -3.792  12.436  0.00  0.00    +0.246 C 
ATOM     39  H   UNL     1     -13.766  -5.619  12.648  0.00  0.00    +0.149 HD
BRANCH  24  29
ATOM      1 CL   UNL     1     -11.345  -4.036   9.713  0.00  0.00    -0.083 Cl
ATOM     29  C   UNL     1     -13.560  -3.482  11.207  0.00  0.00    +0.058 A 
ATOM     32  C   UNL     1     -14.893  -3.100  11.352  0.00  0.00    +0.060 A 
ATOM     33  C   UNL     1     -12.992  -3.566   9.936  0.00  0.00    +0.053 A 
ATOM     34  C   UNL     1     -15.658  -2.801  10.225  0.00  0.00    +0.121 A 
ATOM     35  C   UNL     1     -13.758  -3.267   8.809  0.00  0.00    +0.024 A 
ATOM     36  C   UNL     1     -15.091  -2.885   8.954  0.00  0.00    +0.047 A 
BRANCH  34   9
ATOM      9  O   UNL     1     -16.960  -2.428  10.366  0.00  0.00    -0.495 OA
ATOM     37  C   UNL     1     -17.374  -1.247   9.680  0.00  0.00    +0.277 C 
ENDBRANCH  34   9
ENDBRANCH  24  29
ENDBRANCH  19  12
ENDBRANCH  14  19
BRANCH  16  22
ATOM     22  C   UNL     1     -15.539  -7.913  12.631  0.00  0.00    +0.190 C 
BRANCH  22   7
ATOM      7  O   UNL     1     -15.142  -6.795  11.852  0.00  0.00    -0.392 OA
ATOM     40  H   UNL     1     -15.930  -6.480  11.380  0.00  0.00    +0.210 HD
ENDBRANCH  22   7
ENDBRANCH  16  22
TORSDOF 10
ENDMDL
MODEL 4
REMARK VINA RESULT:      -6.9      1.405      2.058
REMARK  Name = 51136977
REMARK  11 active torsions:
REMARK  status: ('A' for Active; 'I' for Inactive)
REMARK    1  A    between atoms: O_6  and  C_15
REMARK    2  A    between atoms: O_7  and  C_22
REMARK    3  A    between atoms: O_9  and  C_34
REMARK    4  A    between atoms: O_9  and  C_37
REMARK    5  A    between atoms: N_10  and  C_13
REMARK    6  A    between atoms: N_11  and  C_23
REMARK    7  A    between atoms: N_12  and  C_19
REMARK    8  A    between atoms: C_14  and  C_19
REMARK    9  A    between atoms: C_16  and  C_22
REMARK   10  A    between atoms: C_24  and  C_29
REMARK   11  A    between atoms: C_27  and  C_31
REMARK                            x       y       z     vdW  Elec       q    Type
REMARK                         _______ _______ _______ _____ _____    ______ ____
ROOT
ATOM      5  O   UNL     1     -18.078   4.899  22.892  0.00  0.00    -0.365 OA
ATOM     13  C   UNL     1     -17.877   3.518  24.821  0.00  0.00    +0.118 C 
ATOM     14  C   UNL     1     -17.496   4.875  24.215  0.00  0.00    +0.155 C 
ATOM     15  C   UNL     1     -18.074   2.639  23.596  0.00  0.00    +0.165 C 
ATOM     16  C   UNL     1     -18.717   3.634  22.636  0.00  0.00    +0.174 C 
ENDROOT
BRANCH  13  10
ATOM     10  N   UNL     1     -16.972   2.987  25.825  0.00  0.00    -0.292 NA
ATOM     11  N   UNL     1     -16.212   2.041  28.411  0.00  0.00    -0.327 N 
ATOM     17  C   UNL     1     -17.446   1.685  26.309  0.00  0.00    +0.104 C 
ATOM     18  C   UNL     1     -16.845   3.922  26.950  0.00  0.00    +0.104 C 
ATOM     20  C   UNL     1     -16.471   1.088  27.328  0.00  0.00    +0.120 C 
ATOM     21  C   UNL     1     -15.849   3.400  27.988  0.00  0.00    +0.120 C 
BRANCH  11  23
ATOM     23  C   UNL     1     -15.719   1.581  29.637  0.00  0.00    +0.030 A 
ATOM     25  C   UNL     1     -15.473   2.482  30.673  0.00  0.00    +0.035 A 
ATOM     26  C   UNL     1     -15.474   0.220  29.824  0.00  0.00    +0.023 A 
ATOM     27  C   UNL     1     -14.981   2.023  31.895  0.00  0.00    +0.057 A 
ATOM     28  C   UNL     1     -14.983  -0.239  31.046  0.00  0.00    +0.002 A 
ATOM     30  C   UNL     1     -14.737   0.663  32.081  0.00  0.00    +0.012 A 
BRANCH  27  31
ATOM      2  F   UNL     1     -15.708   3.917  33.134  0.00  0.00    -0.166 F 
ATOM      3  F   UNL     1     -14.604   2.396  34.227  0.00  0.00    -0.166 F 
ATOM      4  F   UNL     1     -13.564   3.701  32.841  0.00  0.00    -0.166 F 
ATOM     31  C   UNL     1     -14.717   2.987  33.000  0.00  0.00    +0.417 C 
ENDBRANCH  27  31
ENDBRANCH  11  23
ENDBRANCH  13  10
BRANCH  15   6
ATOM      6  O   UNL     1     -16.831   2.183  23.077  0.00  0.00    -0.388 OA
ATOM     38  H   UNL     1     -16.128   2.522  23.657  0.00  0.00    +0.210 HD
ENDBRANCH  15   6
BRANCH  14  19
ATOM     19  C   UNL     1     -16.006   5.161  24.058  0.00  0.00    +0.137 C 
BRANCH  19  12
ATOM      8  O   UNL     1     -14.192   4.562  21.916  0.00  0.00    -0.270 OA
ATOM     12  N   UNL     1     -15.755   5.965  22.900  0.00  0.00    -0.309 N 
ATOM     24  C   UNL     1     -14.854   5.597  21.905  0.00  0.00    +0.246 C 
ATOM     39  H   UNL     1     -16.268   6.837  22.806  0.00  0.00    +0.149 HD
BRANCH  24  29
ATOM      1 CL   UNL     1     -11.992   6.529  21.210  0.00  0.00    -0.083 Cl
ATOM     29  C   UNL     1     -14.686   6.553  20.781  0.00  0.00    +0.058 A 
ATOM     32  C   UNL     1     -15.829   6.975  20.103  0.00  0.00    +0.060 A 
ATOM     33  C   UNL     1     -13.432   7.027  20.397  0.00  0.00    +0.053 A 
ATOM     34  C   UNL     1     -15.718   7.873  19.040  0.00  0.00    +0.121 A 
ATOM     35  C   UNL     1     -13.321   7.925  19.334  0.00  0.00    +0.024 A 
ATOM     36  C   UNL     1     -14.464   8.347  18.656  0.00  0.00    +0.047 A 
BRANCH  34   9
ATOM      9  O   UNL     1     -16.833   8.285  18.378  0.00  0.00    -0.495 OA
ATOM     37  C   UNL     1     -16.663   8.717  17.028  0.00  0.00    +0.277 C 
ENDBRANCH  34   9
ENDBRANCH  24  29
ENDBRANCH  19  12
ENDBRANCH  14  19
BRANCH  16  22
ATOM     22  C   UNL     1     -18.587   3.297  21.162  0.00  0.00    +0.190 C 
BRANCH  22   7
ATOM      7  O   UNL     1     -17.429   3.934  20.646  0.00  0.00    -0.392 OA
ATOM     40  H   UNL     1     -17.213   3.498  19.805  0.00  0.00    +0.210 HD
ENDBRANCH  22   7
ENDBRANCH  16  22
TORSDOF 10
ENDMDL
MODEL 5
REMARK VINA RESULT:      -6.8     17.718     19.872
REMARK  Name = 51136977
REMARK  11 active torsions:
REMARK  status: ('A' for Active; 'I' for Inactive)
REMARK    1  A    between atoms: O_6  and  C_15
REMARK    2  A    between atoms: O_7  and  C_22
REMARK    3  A    between atoms: O_9  and  C_34
REMARK    4  A    between atoms: O_9  and  C_37
REMARK    5  A    between atoms: N_10  and  C_13
REMARK    6  A    between atoms: N_11  and  C_23
REMARK    7  A    between atoms: N_12  and  C_19
REMARK    8  A    between atoms: C_14  and  C_19
REMARK    9  A    between atoms: C_16  and  C_22
REMARK   10  A    between atoms: C_24  and  C_29
REMARK   11  A    between atoms: C_27  and  C_31
REMARK                            x       y       z     vdW  Elec       q    Type
REMARK                         _______ _______ _______ _____ _____    ______ ____
ROOT
ATOM      5  O   UNL     1     -10.528 -11.370  17.401  0.00  0.00    -0.365 OA
ATOM     13  C   UNL     1     -11.583  -9.390  16.606  0.00  0.00    +0.118 C 
ATOM     14  C   UNL     1     -10.936 -10.713  16.179  0.00  0.00    +0.155 C 
ATOM     15  C   UNL     1     -10.923  -9.100  17.945  0.00  0.00    +0.165 C 
ATOM     16  C   UNL     1     -10.821 -10.509  18.518  0.00  0.00    +0.174 C 
ENDROOT
BRANCH  13  10
ATOM     10  N   UNL     1     -11.525  -8.306  15.640  0.00  0.00    -0.292 NA
ATOM     11  N   UNL     1     -12.583  -6.261  13.949  0.00  0.00    -0.327 N 
ATOM     17  C   UNL     1     -12.067  -7.071  16.218  0.00  0.00    +0.104 C 
ATOM     18  C   UNL     1     -12.272  -8.659  14.426  0.00  0.00    +0.104 C 
ATOM     20  C   UNL     1     -11.960  -5.907  15.229  0.00  0.00    +0.120 C 
ATOM     21  C   UNL     1     -12.171  -7.549  13.378  0.00  0.00    +0.120 C 
BRANCH  11  23
ATOM     23  C   UNL     1     -12.985  -5.250  13.071  0.00  0.00    +0.030 A 
ATOM     25  C   UNL     1     -12.309  -5.063  11.865  0.00  0.00    +0.035 A 
ATOM     26  C   UNL     1     -14.062  -4.426  13.400  0.00  0.00    +0.023 A 
ATOM     27  C   UNL     1     -12.709  -4.054  10.989  0.00  0.00    +0.057 A 
ATOM     28  C   UNL     1     -14.463  -3.417  12.524  0.00  0.00    +0.002 A 
ATOM     30  C   UNL     1     -13.786  -3.231  11.319  0.00  0.00    +0.012 A 
BRANCH  27  31
ATOM      2  F   UNL     1     -11.657  -5.034   9.096  0.00  0.00    -0.166 F 
ATOM      3  F   UNL     1     -12.702  -3.154   8.773  0.00  0.00    -0.166 F 
ATOM      4  F   UNL     1     -10.810  -3.172   9.834  0.00  0.00    -0.166 F 
ATOM     31  C   UNL     1     -11.986  -3.855   9.702  0.00  0.00    +0.417 C 
ENDBRANCH  27  31
ENDBRANCH  11  23
ENDBRANCH  13  10
BRANCH  15   6
ATOM      6  O   UNL     1      -9.627  -8.539  17.776  0.00  0.00    -0.388 OA
ATOM     38  H   UNL     1      -8.977  -9.226  18.001  0.00  0.00    +0.210 HD
ENDBRANCH  15   6
BRANCH  14  19
ATOM     19  C   UNL     1      -9.703 -10.616  15.287  0.00  0.00    +0.137 C 
BRANCH  19  12
ATOM      8  O   UNL     1      -7.615 -12.538  14.852  0.00  0.00    -0.270 OA
ATOM     12  N   UNL     1      -8.501 -10.760  16.052  0.00  0.00    -0.309 N 
ATOM     24  C   UNL     1      -7.537 -11.725  15.770  0.00  0.00    +0.246 C 
ATOM     39  H   UNL     1      -8.350 -10.121  16.826  0.00  0.00    +0.149 HD
BRANCH  24  29
ATOM      1 CL   UNL     1      -7.807 -13.254  18.441  0.00  0.00    -0.083 Cl
ATOM     29  C   UNL     1      -6.358 -11.763  16.674  0.00  0.00    +0.058 A 
ATOM     32  C   UNL     1      -5.198 -11.107  16.266  0.00  0.00    +0.060 A 
ATOM     33  C   UNL     1      -6.390 -12.430  17.899  0.00  0.00    +0.053 A 
ATOM     34  C   UNL     1      -4.067 -11.118  17.084  0.00  0.00    +0.121 A 
ATOM     35  C   UNL     1      -5.259 -12.440  18.717  0.00  0.00    +0.024 A 
ATOM     36  C   UNL     1      -4.098 -11.784  18.308  0.00  0.00    +0.047 A 
BRANCH  34   9
ATOM      9  O   UNL     1      -2.933 -10.478  16.686  0.00  0.00    -0.495 OA
ATOM     37  C   UNL     1      -2.433 -10.794  15.386  0.00  0.00    +0.277 C 
ENDBRANCH  34   9
ENDBRANCH  24  29
ENDBRANCH  19  12
ENDBRANCH  14  19
BRANCH  16  22
ATOM     22  C   UNL     1      -9.763 -10.703  19.589  0.00  0.00    +0.190 C 
BRANCH  22   7
ATOM      7  O   UNL     1     -10.130  -9.955  20.738  0.00  0.00    -0.392 OA
ATOM     40  H   UNL     1     -11.020  -9.600  20.576  0.00  0.00    +0.210 HD
ENDBRANCH  22   7
ENDBRANCH  16  22
TORSDOF 10
ENDMDL
MODEL 6
REMARK VINA RESULT:      -6.6     19.298     21.619
REMARK  Name = 51136977
REMARK  11 active torsions:
REMARK  status: ('A' for Active; 'I' for Inactive)
REMARK    1  A    between atoms: O_6  and  C_15
REMARK    2  A    between atoms: O_7  and  C_22
REMARK    3  A    between atoms: O_9  and  C_34
REMARK    4  A    between atoms: O_9  and  C_37
REMARK    5  A    between atoms: N_10  and  C_13
REMARK    6  A    between atoms: N_11  and  C_23
REMARK    7  A    between atoms: N_12  and  C_19
REMARK    8  A    between atoms: C_14  and  C_19
REMARK    9  A    between atoms: C_16  and  C_22
REMARK   10  A    between atoms: C_24  and  C_29
REMARK   11  A    between atoms: C_27  and  C_31
REMARK                            x       y       z     vdW  Elec       q    Type
REMARK                         _______ _______ _______ _____ _____    ______ ____
ROOT
ATOM      5  O   UNL     1      -8.137 -11.479  20.012  0.00  0.00    -0.365 OA
ATOM     13  C   UNL     1      -6.606 -11.849  18.227  0.00  0.00    +0.118 C 
ATOM     14  C   UNL     1      -7.422 -10.782  18.968  0.00  0.00    +0.155 C 
ATOM     15  C   UNL     1      -7.400 -13.122  18.475  0.00  0.00    +0.165 C 
ATOM     16  C   UNL     1      -7.863 -12.890  19.909  0.00  0.00    +0.174 C 
ENDROOT
BRANCH  13  10
ATOM     10  N   UNL     1      -6.299 -11.571  16.835  0.00  0.00    -0.292 NA
ATOM     11  N   UNL     1      -4.618 -10.980  14.603  0.00  0.00    -0.327 N 
ATOM     17  C   UNL     1      -5.400 -12.595  16.291  0.00  0.00    +0.104 C 
ATOM     18  C   UNL     1      -5.687 -10.243  16.698  0.00  0.00    +0.104 C 
ATOM     20  C   UNL     1      -5.113 -12.345  14.808  0.00  0.00    +0.120 C 
ATOM     21  C   UNL     1      -5.411  -9.916  15.229  0.00  0.00    +0.120 C 
BRANCH  11  23
ATOM     23  C   UNL     1      -3.900 -10.671  13.443  0.00  0.00    +0.030 A 
ATOM     25  C   UNL     1      -4.532 -10.019  12.384  0.00  0.00    +0.035 A 
ATOM     26  C   UNL     1      -2.551 -11.013  13.344  0.00  0.00    +0.023 A 
ATOM     27  C   UNL     1      -3.817  -9.711  11.226  0.00  0.00    +0.057 A 
ATOM     28  C   UNL     1      -1.836 -10.704  12.187  0.00  0.00    +0.002 A 
ATOM     30  C   UNL     1      -2.469 -10.054  11.128  0.00  0.00    +0.012 A 
BRANCH  27  31
ATOM      2  F   UNL     1      -4.895  -7.752  10.420  0.00  0.00    -0.166 F 
ATOM      3  F   UNL     1      -3.707  -8.877   8.988  0.00  0.00    -0.166 F 
ATOM      4  F   UNL     1      -5.619  -9.655   9.655  0.00  0.00    -0.166 F 
ATOM     31  C   UNL     1      -4.494  -9.016  10.095  0.00  0.00    +0.417 C 
ENDBRANCH  27  31
ENDBRANCH  11  23
ENDBRANCH  13  10
BRANCH  15   6
ATOM      6  O   UNL     1      -8.519 -13.215  17.602  0.00  0.00    -0.388 OA
ATOM     38  H   UNL     1      -9.278 -13.522  18.128  0.00  0.00    +0.210 HD
ENDBRANCH  15   6
BRANCH  14  19
ATOM     19  C   UNL     1      -8.456 -10.019  18.146  0.00  0.00    +0.137 C 
BRANCH  19  12
ATOM      8  O   UNL     1     -10.817 -11.512  17.486  0.00  0.00    -0.270 OA
ATOM     12  N   UNL     1      -9.717  -9.968  18.824  0.00  0.00    -0.309 N 
ATOM     24  C   UNL     1     -10.815 -10.730  18.434  0.00  0.00    +0.246 C 
ATOM     39  H   UNL     1      -9.801  -9.353  19.627  0.00  0.00    +0.149 HD
BRANCH  24  29
ATOM      1 CL   UNL     1     -12.957  -8.797  17.329  0.00  0.00    -0.083 Cl
ATOM     29  C   UNL     1     -12.060 -10.544  19.224  0.00  0.00    +0.058 A 
ATOM     32  C   UNL     1     -12.191 -11.252  20.418  0.00  0.00    +0.060 A 
ATOM     33  C   UNL     1     -13.080  -9.692  18.801  0.00  0.00    +0.053 A 
ATOM     34  C   UNL     1     -13.344 -11.107  21.190  0.00  0.00    +0.121 A 
ATOM     35  C   UNL     1     -14.233  -9.547  19.574  0.00  0.00    +0.024 A 
ATOM     36  C   UNL     1     -14.364 -10.256  20.768  0.00  0.00    +0.047 A 
BRANCH  34   9
ATOM      9  O   UNL     1     -13.473 -11.799  22.356  0.00  0.00    -0.495 OA
ATOM     37  C   UNL     1     -14.783 -12.246  22.703  0.00  0.00    +0.277 C 
ENDBRANCH  34   9
ENDBRANCH  24  29
ENDBRANCH  19  12
ENDBRANCH  14  19
BRANCH  16  22
ATOM     22  C   UNL     1      -9.093 -13.671  20.332  0.00  0.00    +0.190 C 
BRANCH  22   7
ATOM      7  O   UNL     1      -8.947 -15.019  19.917  0.00  0.00    -0.392 OA
ATOM     40  H   UNL     1      -9.086 -15.577  20.700  0.00  0.00    +0.210 HD
ENDBRANCH  22   7
ENDBRANCH  16  22
TORSDOF 10
ENDMDL
MODEL 7
REMARK VINA RESULT:      -6.6     42.458     44.542
REMARK  Name = 51136977
REMARK  11 active torsions:
REMARK  status: ('A' for Active; 'I' for Inactive)
REMARK    1  A    between atoms: O_6  and  C_15
REMARK    2  A    between atoms: O_7  and  C_22
REMARK    3  A    between atoms: O_9  and  C_34
REMARK    4  A    between atoms: O_9  and  C_37
REMARK    5  A    between atoms: N_10  and  C_13
REMARK    6  A    between atoms: N_11  and  C_23
REMARK    7  A    between atoms: N_12  and  C_19
REMARK    8  A    between atoms: C_14  and  C_19
REMARK    9  A    between atoms: C_16  and  C_22
REMARK   10  A    between atoms: C_24  and  C_29
REMARK   11  A    between atoms: C_27  and  C_31
REMARK                            x       y       z     vdW  Elec       q    Type
REMARK                         _______ _______ _______ _____ _____    ______ ____
ROOT
ATOM      5  O   UNL     1      22.580  -5.413   0.185  0.00  0.00    -0.365 OA
ATOM     13  C   UNL     1      21.480  -7.522   0.292  0.00  0.00    +0.118 C 
ATOM     14  C   UNL     1      21.383  -6.093  -0.258  0.00  0.00    +0.155 C 
ATOM     15  C   UNL     1      22.369  -7.360   1.515  0.00  0.00    +0.165 C 
ATOM     16  C   UNL     1      23.349  -6.306   1.013  0.00  0.00    +0.174 C 
ENDROOT
BRANCH  13  10
ATOM     10  N   UNL     1      20.220  -8.206   0.528  0.00  0.00    -0.292 NA
ATOM     11  N   UNL     1      18.498 -10.462   0.843  0.00  0.00    -0.327 N 
ATOM     17  C   UNL     1      20.306  -9.043   1.730  0.00  0.00    +0.104 C 
ATOM     18  C   UNL     1      19.858  -9.031  -0.632  0.00  0.00    +0.104 C 
ATOM     20  C   UNL     1      18.967  -9.726   2.022  0.00  0.00    +0.120 C 
ATOM     21  C   UNL     1      18.504  -9.712  -0.418  0.00  0.00    +0.120 C 
BRANCH  11  23
ATOM     23  C   UNL     1      17.557 -11.486   0.995  0.00  0.00    +0.030 A 
ATOM     25  C   UNL     1      17.025 -11.763   2.254  0.00  0.00    +0.035 A 
ATOM     26  C   UNL     1      17.151 -12.232  -0.112  0.00  0.00    +0.023 A 
ATOM     27  C   UNL     1      16.087 -12.785   2.407  0.00  0.00    +0.057 A 
ATOM     28  C   UNL     1      16.213 -13.253   0.040  0.00  0.00    +0.002 A 
ATOM     30  C   UNL     1      15.682 -13.530   1.300  0.00  0.00    +0.012 A 
BRANCH  27  31
ATOM      2  F   UNL     1      15.310 -11.952   4.494  0.00  0.00    -0.166 F 
ATOM      3  F   UNL     1      14.312 -13.719   3.710  0.00  0.00    -0.166 F 
ATOM      4  F   UNL     1      16.319 -13.879   4.521  0.00  0.00    -0.166 F 
ATOM     31  C   UNL     1      15.520 -13.080   3.753  0.00  0.00    +0.417 C 
ENDBRANCH  27  31
ENDBRANCH  11  23
ENDBRANCH  13  10
BRANCH  15   6
ATOM      6  O   UNL     1      21.636  -6.864   2.629  0.00  0.00    -0.388 OA
ATOM     38  H   UNL     1      21.775  -7.479   3.369  0.00  0.00    +0.210 HD
ENDBRANCH  15   6
BRANCH  14  19
ATOM     19  C   UNL     1      20.193  -5.260   0.208  0.00  0.00    +0.137 C 
BRANCH  19  12
ATOM      8  O   UNL     1      19.674  -4.263  -2.433  0.00  0.00    -0.270 OA
ATOM     12  N   UNL     1      19.036  -5.522  -0.592  0.00  0.00    -0.309 N 
ATOM     24  C   UNL     1      18.864  -4.995  -1.870  0.00  0.00    +0.246 C 
ATOM     39  H   UNL     1      18.317  -6.128  -0.206  0.00  0.00    +0.149 HD
BRANCH  24  29
ATOM      1 CL   UNL     1      16.892  -2.704  -2.508  0.00  0.00    -0.083 Cl
ATOM     29  C   UNL     1      17.594  -5.341  -2.560  0.00  0.00    +0.058 A 
ATOM     32  C   UNL     1      17.365  -6.678  -2.881  0.00  0.00    +0.060 A 
ATOM     33  C   UNL     1      16.647  -4.371  -2.888  0.00  0.00    +0.053 A 
ATOM     34  C   UNL     1      16.186  -7.046  -3.531  0.00  0.00    +0.121 A 
ATOM     35  C   UNL     1      15.468  -4.740  -3.537  0.00  0.00    +0.024 A 
ATOM     36  C   UNL     1      15.239  -6.078  -3.859  0.00  0.00    +0.047 A 
BRANCH  34   9
ATOM      9  O   UNL     1      15.962  -8.352  -3.845  0.00  0.00    -0.495 OA
ATOM     37  C   UNL     1      14.602  -8.764  -3.969  0.00  0.00    +0.277 C 
ENDBRANCH  34   9
ENDBRANCH  24  29
ENDBRANCH  19  12
ENDBRANCH  14  19
BRANCH  16  22
ATOM     22  C   UNL     1      24.056  -5.505   2.090  0.00  0.00    +0.190 C 
BRANCH  22   7
ATOM      7  O   UNL     1      23.331  -4.307   2.321  0.00  0.00    -0.392 OA
ATOM     40  H   UNL     1      22.498  -4.555   2.755  0.00  0.00    +0.210 HD
ENDBRANCH  22   7
ENDBRANCH  16  22
TORSDOF 10
ENDMDL
MODEL 8
REMARK VINA RESULT:      -6.5     24.141     25.360
REMARK  Name = 51136977
REMARK  11 active torsions:
REMARK  status: ('A' for Active; 'I' for Inactive)
REMARK    1  A    between atoms: O_6  and  C_15
REMARK    2  A    between atoms: O_7  and  C_22
REMARK    3  A    between atoms: O_9  and  C_34
REMARK    4  A    between atoms: O_9  and  C_37
REMARK    5  A    between atoms: N_10  and  C_13
REMARK    6  A    between atoms: N_11  and  C_23
REMARK    7  A    between atoms: N_12  and  C_19
REMARK    8  A    between atoms: C_14  and  C_19
REMARK    9  A    between atoms: C_16  and  C_22
REMARK   10  A    between atoms: C_24  and  C_29
REMARK   11  A    between atoms: C_27  and  C_31
REMARK                            x       y       z     vdW  Elec       q    Type
REMARK                         _______ _______ _______ _____ _____    ______ ____
ROOT
ATOM      5  O   UNL     1      -6.165  -9.689   6.827  0.00  0.00    -0.365 OA
ATOM     13  C   UNL     1      -5.610  -9.455   9.130  0.00  0.00    +0.118 C 
ATOM     14  C   UNL     1      -5.115  -9.981   7.777  0.00  0.00    +0.155 C 
ATOM     15  C   UNL     1      -7.123  -9.500   8.983  0.00  0.00    +0.165 C 
ATOM     16  C   UNL     1      -7.276  -9.091   7.523  0.00  0.00    +0.174 C 
ENDROOT
BRANCH  13  10
ATOM     10  N   UNL     1      -5.082 -10.120  10.309  0.00  0.00    -0.292 NA
ATOM     11  N   UNL     1      -3.798 -10.284  12.855  0.00  0.00    -0.327 N 
ATOM     17  C   UNL     1      -5.766  -9.646  11.517  0.00  0.00    +0.104 C 
ATOM     18  C   UNL     1      -3.637  -9.887  10.428  0.00  0.00    +0.104 C 
ATOM     20  C   UNL     1      -5.259 -10.380  12.762  0.00  0.00    +0.120 C 
ATOM     21  C   UNL     1      -3.059 -10.630  11.634  0.00  0.00    +0.120 C 
BRANCH  11  23
ATOM     23  C   UNL     1      -3.167 -10.489  14.086  0.00  0.00    +0.030 A 
ATOM     25  C   UNL     1      -3.926 -10.799  15.216  0.00  0.00    +0.035 A 
ATOM     26  C   UNL     1      -1.780 -10.384  14.187  0.00  0.00    +0.023 A 
ATOM     27  C   UNL     1      -3.298 -11.003  16.444  0.00  0.00    +0.057 A 
ATOM     28  C   UNL     1      -1.152 -10.589  15.415  0.00  0.00    +0.002 A 
ATOM     30  C   UNL     1      -1.911 -10.898  16.544  0.00  0.00    +0.012 A 
BRANCH  27  31
ATOM      2  F   UNL     1      -4.961 -12.380  17.440  0.00  0.00    -0.166 F 
ATOM      3  F   UNL     1      -3.359 -11.686  18.736  0.00  0.00    -0.166 F 
ATOM      4  F   UNL     1      -4.895 -10.302  18.080  0.00  0.00    -0.166 F 
ATOM     31  C   UNL     1      -4.109 -11.333  17.650  0.00  0.00    +0.417 C 
ENDBRANCH  27  31
ENDBRANCH  11  23
ENDBRANCH  13  10
BRANCH  15   6
ATOM      6  O   UNL     1      -7.627 -10.815   9.185  0.00  0.00    -0.388 OA
ATOM     38  H   UNL     1      -7.611 -10.992  10.142  0.00  0.00    +0.210 HD
ENDBRANCH  15   6
BRANCH  14  19
ATOM     19  C   UNL     1      -4.829 -11.476   7.686  0.00  0.00    +0.137 C 
BRANCH  19  12
ATOM      8  O   UNL     1      -4.967 -13.967   6.265  0.00  0.00    -0.270 OA
ATOM     12  N   UNL     1      -4.161 -11.800   6.462  0.00  0.00    -0.309 N 
ATOM     24  C   UNL     1      -4.284 -13.039   5.838  0.00  0.00    +0.246 C 
ATOM     39  H   UNL     1      -3.581 -11.085   6.033  0.00  0.00    +0.149 HD
BRANCH  24  29
ATOM      1 CL   UNL     1      -5.605 -12.212   3.170  0.00  0.00    -0.083 Cl
ATOM     29  C   UNL     1      -3.505 -13.227   4.587  0.00  0.00    +0.058 A 
ATOM     32  C   UNL     1      -2.223 -13.766   4.687  0.00  0.00    +0.060 A 
ATOM     33  C   UNL     1      -4.021 -12.881   3.338  0.00  0.00    +0.053 A 
ATOM     34  C   UNL     1      -1.456 -13.959   3.538  0.00  0.00    +0.121 A 
ATOM     35  C   UNL     1      -3.255 -13.075   2.188  0.00  0.00    +0.024 A 
ATOM     36  C   UNL     1      -1.972 -13.613   2.289  0.00  0.00    +0.047 A 
BRANCH  34   9
ATOM      9  O   UNL     1      -0.204 -14.484   3.635  0.00  0.00    -0.495 OA
ATOM     37  C   UNL     1       0.489 -14.740   2.414  0.00  0.00    +0.277 C 
ENDBRANCH  34   9
ENDBRANCH  24  29
ENDBRANCH  19  12
ENDBRANCH  14  19
BRANCH  16  22
ATOM     22  C   UNL     1      -8.571  -9.519   6.857  0.00  0.00    +0.190 C 
BRANCH  22   7
ATOM      7  O   UNL     1      -8.374 -10.780   6.239  0.00  0.00    -0.392 OA
ATOM     40  H   UNL     1      -8.167 -10.612   5.304  0.00  0.00    +0.210 HD
ENDBRANCH  22   7
ENDBRANCH  16  22
TORSDOF 10
ENDMDL
MODEL 9
REMARK VINA RESULT:      -6.4     19.190     20.100
REMARK  Name = 51136977
REMARK  11 active torsions:
REMARK  status: ('A' for Active; 'I' for Inactive)
REMARK    1  A    between atoms: O_6  and  C_15
REMARK    2  A    between atoms: O_7  and  C_22
REMARK    3  A    between atoms: O_9  and  C_34
REMARK    4  A    between atoms: O_9  and  C_37
REMARK    5  A    between atoms: N_10  and  C_13
REMARK    6  A    between atoms: N_11  and  C_23
REMARK    7  A    between atoms: N_12  and  C_19
REMARK    8  A    between atoms: C_14  and  C_19
REMARK    9  A    between atoms: C_16  and  C_22
REMARK   10  A    between atoms: C_24  and  C_29
REMARK   11  A    between atoms: C_27  and  C_31
REMARK                            x       y       z     vdW  Elec       q    Type
REMARK                         _______ _______ _______ _____ _____    ______ ____
ROOT
ATOM      5  O   UNL     1      -4.371 -12.510  15.883  0.00  0.00    -0.365 OA
ATOM     13  C   UNL     1      -5.977 -12.395  17.637  0.00  0.00    +0.118 C 
ATOM     14  C   UNL     1      -5.718 -12.915  16.217  0.00  0.00    +0.155 C 
ATOM     15  C   UNL     1      -5.034 -11.206  17.744  0.00  0.00    +0.165 C 
ATOM     16  C   UNL     1      -3.832 -11.729  16.967  0.00  0.00    +0.174 C 
ENDROOT
BRANCH  13  10
ATOM     10  N   UNL     1      -7.362 -12.121  17.977  0.00  0.00    -0.292 NA
ATOM     11  N   UNL     1      -9.718 -12.211  19.590  0.00  0.00    -0.327 N 
ATOM     17  C   UNL     1      -7.442 -11.342  19.219  0.00  0.00    +0.104 C 
ATOM     18  C   UNL     1      -8.114 -13.373  18.123  0.00  0.00    +0.104 C 
ATOM     20  C   UNL     1      -8.895 -10.997  19.559  0.00  0.00    +0.120 C 
ATOM     21  C   UNL     1      -9.588 -13.096  18.425  0.00  0.00    +0.120 C 
BRANCH  11  23
ATOM     23  C   UNL     1     -10.934 -12.207  20.281  0.00  0.00    +0.030 A 
ATOM     25  C   UNL     1     -11.818 -11.138  20.130  0.00  0.00    +0.035 A 
ATOM     26  C   UNL     1     -11.264 -13.270  21.122  0.00  0.00    +0.023 A 
ATOM     27  C   UNL     1     -13.030 -11.133  20.820  0.00  0.00    +0.057 A 
ATOM     28  C   UNL     1     -12.476 -13.265  21.811  0.00  0.00    +0.002 A 
ATOM     30  C   UNL     1     -13.359 -12.196  21.660  0.00  0.00    +0.012 A 
BRANCH  27  31
ATOM      2  F   UNL     1     -14.393  -9.833  19.369  0.00  0.00    -0.166 F 
ATOM      3  F   UNL     1     -15.114 -10.112  21.402  0.00  0.00    -0.166 F 
ATOM      4  F   UNL     1     -13.441  -8.785  21.020  0.00  0.00    -0.166 F 
ATOM     31  C   UNL     1     -13.973  -9.990  20.659  0.00  0.00    +0.417 C 
ENDBRANCH  27  31
ENDBRANCH  11  23
ENDBRANCH  13  10
BRANCH  15   6
ATOM      6  O   UNL     1      -5.574 -10.055  17.106  0.00  0.00    -0.388 OA
ATOM     38  H   UNL     1      -5.258  -9.274  17.591  0.00  0.00    +0.210 HD
ENDBRANCH  15   6
BRANCH  14  19
ATOM     19  C   UNL     1      -6.633 -12.387  15.117  0.00  0.00    +0.137 C 
BRANCH  19  12
ATOM      8  O   UNL     1      -6.219  -9.634  14.420  0.00  0.00    -0.270 OA
ATOM     12  N   UNL     1      -5.875 -11.891  14.009  0.00  0.00    -0.309 N 
ATOM     24  C   UNL     1      -5.725 -10.533  13.744  0.00  0.00    +0.246 C 
ATOM     39  H   UNL     1      -5.423 -12.568  13.401  0.00  0.00    +0.149 HD
BRANCH  24  29
ATOM      1 CL   UNL     1      -7.245  -9.571  11.231  0.00  0.00    -0.083 Cl
ATOM     29  C   UNL     1      -4.929 -10.180  12.539  0.00  0.00    +0.058 A 
ATOM     32  C   UNL     1      -3.542 -10.303  12.611  0.00  0.00    +0.060 A 
ATOM     33  C   UNL     1      -5.530  -9.737  11.362  0.00  0.00    +0.053 A 
ATOM     34  C   UNL     1      -2.756  -9.983  11.504  0.00  0.00    +0.121 A 
ATOM     35  C   UNL     1      -4.744  -9.417  10.254  0.00  0.00    +0.024 A 
ATOM     36  C   UNL     1      -3.357  -9.539  10.326  0.00  0.00    +0.047 A 
BRANCH  34   9
ATOM      9  O   UNL     1      -1.401 -10.102  11.573  0.00  0.00    -0.495 OA
ATOM     37  C   UNL     1      -0.628  -9.002  11.093  0.00  0.00    +0.277 C 
ENDBRANCH  34   9
ENDBRANCH  24  29
ENDBRANCH  19  12
ENDBRANCH  14  19
BRANCH  16  22
ATOM     22  C   UNL     1      -2.905 -10.667  16.406  0.00  0.00    +0.190 C 
BRANCH  22   7
ATOM      7  O   UNL     1      -1.564 -11.030  16.693  0.00  0.00    -0.392 OA
ATOM     40  H   UNL     1      -1.013 -10.685  15.971  0.00  0.00    +0.210 HD
ENDBRANCH  22   7
ENDBRANCH  16  22
TORSDOF 10
ENDMDL
MODEL 10
REMARK VINA RESULT:      -6.3     18.818     20.532
REMARK  Name = 51136977
REMARK  11 active torsions:
REMARK  status: ('A' for Active; 'I' for Inactive)
REMARK    1  A    between atoms: O_6  and  C_15
REMARK    2  A    between atoms: O_7  and  C_22
REMARK    3  A    between atoms: O_9  and  C_34
REMARK    4  A    between atoms: O_9  and  C_37
REMARK    5  A    between atoms: N_10  and  C_13
REMARK    6  A    between atoms: N_11  and  C_23
REMARK    7  A    between atoms: N_12  and  C_19
REMARK    8  A    between atoms: C_14  and  C_19
REMARK    9  A    between atoms: C_16  and  C_22
REMARK   10  A    between atoms: C_24  and  C_29
REMARK   11  A    between atoms: C_27  and  C_31
REMARK                            x       y       z     vdW  Elec       q    Type
REMARK                         _______ _______ _______ _____ _____    ______ ____
ROOT
ATOM      5  O   UNL     1      -7.398 -12.073  16.328  0.00  0.00    -0.365 OA
ATOM     13  C   UNL     1      -8.838 -10.178  16.381  0.00  0.00    +0.118 C 
ATOM     14  C   UNL     1      -8.527 -11.486  15.642  0.00  0.00    +0.155 C 
ATOM     15  C   UNL     1      -7.498  -9.804  16.997  0.00  0.00    +0.165 C 
ATOM     16  C   UNL     1      -6.969 -11.182  17.376  0.00  0.00    +0.174 C 
ENDROOT
BRANCH  13  10
ATOM     10  N   UNL     1      -9.472  -9.133  15.596  0.00  0.00    -0.292 NA
ATOM     11  N   UNL     1     -11.600  -7.407  14.788  0.00  0.00    -0.327 N 
ATOM     17  C   UNL     1      -9.903  -8.028  16.462  0.00  0.00    +0.104 C 
ATOM     18  C   UNL     1     -10.624  -9.669  14.860  0.00  0.00    +0.104 C 
ATOM     20  C   UNL     1     -10.523  -6.894  15.640  0.00  0.00    +0.120 C 
ATOM     21  C   UNL     1     -11.266  -8.591  13.985  0.00  0.00    +0.120 C 
BRANCH  11  23
ATOM     23  C   UNL     1     -12.570  -6.529  14.293  0.00  0.00    +0.030 A 
ATOM     25  C   UNL     1     -12.209  -5.527  13.392  0.00  0.00    +0.035 A 
ATOM     26  C   UNL     1     -13.899  -6.654  14.700  0.00  0.00    +0.023 A 
ATOM     27  C   UNL     1     -13.176  -4.650  12.899  0.00  0.00    +0.057 A 
ATOM     28  C   UNL     1     -14.865  -5.778  14.207  0.00  0.00    +0.002 A 
ATOM     30  C   UNL     1     -14.504  -4.776  13.307  0.00  0.00    +0.012 A 
BRANCH  27  31
ATOM      2  F   UNL     1     -11.811  -2.761  12.428  0.00  0.00    -0.166 F 
ATOM      3  F   UNL     1     -12.306  -4.056  10.752  0.00  0.00    -0.166 F 
ATOM      4  F   UNL     1     -13.820  -2.752  11.596  0.00  0.00    -0.166 F 
ATOM     31  C   UNL     1     -12.789  -3.579  11.938  0.00  0.00    +0.417 C 
ENDBRANCH  27  31
ENDBRANCH  11  23
ENDBRANCH  13  10
BRANCH  15   6
ATOM      6  O   UNL     1      -6.641  -9.189  16.042  0.00  0.00    -0.388 OA
ATOM     38  H   UNL     1      -6.546  -9.803  15.294  0.00  0.00    +0.210 HD
ENDBRANCH  15   6
BRANCH  14  19
ATOM     19  C   UNL     1      -8.147 -11.366  14.170  0.00  0.00    +0.137 C 
BRANCH  19  12
ATOM      8  O   UNL     1      -6.117  -9.674  13.050  0.00  0.00    -0.270 OA
ATOM     12  N   UNL     1      -6.771 -11.703  13.964  0.00  0.00    -0.309 N 
ATOM     24  C   UNL     1      -5.850 -10.817  13.411  0.00  0.00    +0.246 C 
ATOM     39  H   UNL     1      -6.460 -12.629  14.244  0.00  0.00    +0.149 HD
BRANCH  24  29
ATOM      1 CL   UNL     1      -5.178 -12.326  10.801  0.00  0.00    -0.083 Cl
ATOM     29  C   UNL     1      -4.465 -11.328  13.238  0.00  0.00    +0.058 A 
ATOM     32  C   UNL     1      -3.548 -11.097  14.263  0.00  0.00    +0.060 A 
ATOM     33  C   UNL     1      -4.073 -12.019  12.093  0.00  0.00    +0.053 A 
ATOM     34  C   UNL     1      -2.237 -11.558  14.141  0.00  0.00    +0.121 A 
ATOM     35  C   UNL     1      -2.762 -12.481  11.971  0.00  0.00    +0.024 A 
ATOM     36  C   UNL     1      -1.844 -12.250  12.996  0.00  0.00    +0.047 A 
BRANCH  34   9
ATOM      9  O   UNL     1      -1.341 -11.332  15.141  0.00  0.00    -0.495 OA
ATOM     37  C   UNL     1      -1.832 -10.694  16.320  0.00  0.00    +0.277 C 
ENDBRANCH  34   9
ENDBRANCH  24  29
ENDBRANCH  19  12
ENDBRANCH  14  19
BRANCH  16  22
ATOM     22  C   UNL     1      -5.463 -11.283  17.533  0.00  0.00    +0.190 C 
BRANCH  22   7
ATOM      7  O   UNL     1      -5.046 -10.386  18.550  0.00  0.00    -0.392 OA
ATOM     40  H   UNL     1      -4.210 -10.727  18.909  0.00  0.00    +0.210 HD
ENDBRANCH  22   7
ENDBRANCH  16  22
TORSDOF 10
ENDMDL
