MODEL 1
REMARK VINA RESULT:      -6.6      0.000      0.000
REMARK  Name = 11941197
REMARK  13 active torsions:
REMARK  status: ('A' for Active; 'I' for Inactive)
REMARK    1  A    between atoms: O_3  and  C_31
REMARK    2  A    between atoms: O_3  and  C_34
REMARK    3  A    between atoms: O_4  and  C_32
REMARK    4  A    between atoms: O_4  and  C_33
REMARK    5  A    between atoms: N_7  and  C_19
REMARK    6  A    between atoms: N_8  and  C_20
REMARK    7  A    between atoms: C_9  and  C_15
REMARK    8  A    between atoms: C_10  and  C_14
REMARK    9  A    between atoms: C_14  and  C_16
REMARK   10  A    between atoms: C_15  and  C_18
REMARK   11  A    between atoms: C_19  and  C_21
REMARK   12  A    between atoms: C_26  and  C_32
REMARK   13  A    between atoms: C_33  and  C_35
REMARK                            x       y       z     vdW  Elec       q    Type
REMARK                         _______ _______ _______ _____ _____    ______ ____
ROOT
ATOM      1  O   UNL     1      -5.017 -13.812   9.064  0.00  0.00    -0.252 OA
ATOM      6  N   UNL     1      -4.989 -12.129  10.648  0.00  0.00    -0.285 N 
ATOM      8  N   UNL     1      -5.845 -11.722   8.488  0.00  0.00    -0.269 N 
ATOM      9  C   UNL     1      -3.262 -10.930  12.636  0.00  0.00    +0.004 C 
ATOM     10  C   UNL     1      -3.991 -10.059  11.579  0.00  0.00    +0.010 C 
ATOM     11  C   UNL     1      -3.055 -12.374  12.145  0.00  0.00    +0.023 C 
ATOM     12  C   UNL     1      -5.279 -10.768  11.128  0.00  0.00    +0.113 C 
ATOM     13  C   UNL     1      -4.363 -12.991  11.651  0.00  0.00    +0.109 C 
ATOM     17  C   UNL     1      -5.279 -12.645   9.367  0.00  0.00    +0.306 C 
ATOM     37  H   UNL     1      -6.407 -10.972   8.871  0.00  0.00    +0.156 HD
ENDROOT
BRANCH   8  20
ATOM     20  C   UNL     1      -5.719 -11.692   7.076  0.00  0.00    +0.036 A 
ATOM     22  C   UNL     1      -4.523 -12.082   6.474  0.00  0.00    +0.038 A 
ATOM     23  C   UNL     1      -6.792 -11.272   6.290  0.00  0.00    +0.023 A 
ATOM     26  C   UNL     1      -4.400 -12.052   5.085  0.00  0.00    +0.061 A 
ATOM     27  C   UNL     1      -6.669 -11.242   4.901  0.00  0.00    +0.003 A 
ATOM     28  C   UNL     1      -5.473 -11.631   4.299  0.00  0.00    +0.015 A 
BRANCH  26  32
ATOM      5  O   UNL     1      -2.875 -12.266   3.264  0.00  0.00    -0.245 OA
ATOM     32  C   UNL     1      -3.154 -12.459   4.456  0.00  0.00    +0.339 C 
BRANCH  32   4
ATOM      4  O   UNL     1      -2.322 -13.084   5.345  0.00  0.00    -0.461 OA
BRANCH   4  33
ATOM     33  C   UNL     1      -1.519 -14.154   4.836  0.00  0.00    +0.229 C 
ATOM     35  C   UNL     1      -1.586 -15.321   5.798  0.00  0.00    +0.048 C 
ENDBRANCH   4  33
ENDBRANCH  32   4
ENDBRANCH  26  32
ENDBRANCH   8  20
BRANCH  10  14
ATOM     14  C   UNL     1      -3.126  -9.696  10.366  0.00  0.00    +0.002 C 
ATOM     16  C   UNL     1      -3.913  -8.888   9.356  0.00  0.00    +0.004 C 
ENDBRANCH  10  14
BRANCH   9  15
ATOM     15  C   UNL     1      -1.939 -10.324  13.103  0.00  0.00    +0.099 C 
BRANCH  15  18
ATOM      2  O   UNL     1      -0.865  -9.816  15.211  0.00  0.00    -0.276 OA
ATOM      7  N   UNL     1      -3.055 -10.597  15.203  0.00  0.00    -0.311 N 
ATOM     18  C   UNL     1      -1.863 -10.206  14.610  0.00  0.00    +0.214 C 
ATOM     36  H   UNL     1      -3.823 -10.915  14.620  0.00  0.00    +0.149 HD
BRANCH   7  19
ATOM     19  C   UNL     1      -3.264 -10.590  16.633  0.00  0.00    +0.139 C 
BRANCH  19  21
ATOM     21  C   UNL     1      -4.702 -10.352  16.990  0.00  0.00    -0.030 A 
ATOM     24  C   UNL     1      -5.563  -9.763  16.063  0.00  0.00    +0.009 A 
ATOM     25  C   UNL     1      -5.181 -10.722  18.248  0.00  0.00    +0.009 A 
ATOM     29  C   UNL     1      -6.900  -9.543  16.394  0.00  0.00    +0.046 A 
ATOM     30  C   UNL     1      -6.518 -10.502  18.577  0.00  0.00    +0.046 A 
ATOM     31  C   UNL     1      -7.377  -9.912  17.650  0.00  0.00    +0.120 A 
BRANCH  31   3
ATOM      3  O   UNL     1      -8.682  -9.696  17.973  0.00  0.00    -0.495 OA
ATOM     34  C   UNL     1      -9.538  -9.225  16.933  0.00  0.00    +0.277 C 
ENDBRANCH  31   3
ENDBRANCH  19  21
ENDBRANCH   7  19
ENDBRANCH  15  18
ENDBRANCH   9  15
TORSDOF 10
ENDMDL
MODEL 2
REMARK VINA RESULT:      -6.6      2.864      4.304
REMARK  Name = 11941197
REMARK  13 active torsions:
REMARK  status: ('A' for Active; 'I' for Inactive)
REMARK    1  A    between atoms: O_3  and  C_31
REMARK    2  A    between atoms: O_3  and  C_34
REMARK    3  A    between atoms: O_4  and  C_32
REMARK    4  A    between atoms: O_4  and  C_33
REMARK    5  A    between atoms: N_7  and  C_19
REMARK    6  A    between atoms: N_8  and  C_20
REMARK    7  A    between atoms: C_9  and  C_15
REMARK    8  A    between atoms: C_10  and  C_14
REMARK    9  A    between atoms: C_14  and  C_16
REMARK   10  A    between atoms: C_15  and  C_18
REMARK   11  A    between atoms: C_19  and  C_21
REMARK   12  A    between atoms: C_26  and  C_32
REMARK   13  A    between atoms: C_33  and  C_35
REMARK                            x       y       z     vdW  Elec       q    Type
REMARK                         _______ _______ _______ _____ _____    ______ ____
ROOT
ATOM      1  O   UNL     1      -7.317  -8.251   9.083  0.00  0.00    -0.252 OA
ATOM      6  N   UNL     1      -5.192  -8.870   9.749  0.00  0.00    -0.285 N 
ATOM      8  N   UNL     1      -5.894  -9.215   7.524  0.00  0.00    -0.269 N 
ATOM      9  C   UNL     1      -3.807 -10.226  11.896  0.00  0.00    +0.004 C 
ATOM     10  C   UNL     1      -3.564 -10.617  10.415  0.00  0.00    +0.010 C 
ATOM     11  C   UNL     1      -5.190  -9.584  12.101  0.00  0.00    +0.023 C 
ATOM     12  C   UNL     1      -3.841  -9.404   9.511  0.00  0.00    +0.113 C 
ATOM     13  C   UNL     1      -5.423  -8.431  11.125  0.00  0.00    +0.109 C 
ATOM     17  C   UNL     1      -6.219  -8.733   8.791  0.00  0.00    +0.306 C 
ATOM     37  H   UNL     1      -4.924  -9.194   7.233  0.00  0.00    +0.156 HD
ENDROOT
BRANCH   8  20
ATOM     20  C   UNL     1      -6.778  -9.762   6.560  0.00  0.00    +0.036 A 
ATOM     22  C   UNL     1      -6.924  -9.144   5.318  0.00  0.00    +0.038 A 
ATOM     23  C   UNL     1      -7.500 -10.918   6.852  0.00  0.00    +0.023 A 
ATOM     26  C   UNL     1      -7.793  -9.682   4.369  0.00  0.00    +0.061 A 
ATOM     27  C   UNL     1      -8.369 -11.456   5.904  0.00  0.00    +0.003 A 
ATOM     28  C   UNL     1      -8.516 -10.838   4.663  0.00  0.00    +0.015 A 
BRANCH  26  32
ATOM      5  O   UNL     1      -7.988  -9.642   1.992  0.00  0.00    -0.245 OA
ATOM     32  C   UNL     1      -7.946  -9.039   3.074  0.00  0.00    +0.339 C 
BRANCH  32   4
ATOM      4  O   UNL     1      -8.037  -7.679   3.195  0.00  0.00    -0.461 OA
BRANCH   4  33
ATOM     33  C   UNL     1      -9.173  -7.051   2.591  0.00  0.00    +0.229 C 
ATOM     35  C   UNL     1     -10.277  -6.935   3.621  0.00  0.00    +0.048 C 
ENDBRANCH   4  33
ENDBRANCH  32   4
ENDBRANCH  26  32
ENDBRANCH   8  20
BRANCH  10  14
ATOM     14  C   UNL     1      -4.377 -11.831   9.948  0.00  0.00    +0.002 C 
ATOM     16  C   UNL     1      -4.142 -12.114   8.480  0.00  0.00    +0.004 C 
ENDBRANCH  10  14
BRANCH   9  15
ATOM     15  C   UNL     1      -3.605 -11.392  12.865  0.00  0.00    +0.099 C 
BRANCH  15  18
ATOM      2  O   UNL     1      -1.906 -10.432  14.295  0.00  0.00    -0.276 OA
ATOM      7  N   UNL     1      -3.891 -11.193  15.233  0.00  0.00    -0.311 N 
ATOM     18  C   UNL     1      -3.016 -10.944  14.186  0.00  0.00    +0.214 C 
ATOM     36  H   UNL     1      -4.787 -11.631  15.044  0.00  0.00    +0.149 HD
BRANCH   7  19
ATOM     19  C   UNL     1      -3.587 -10.871  16.609  0.00  0.00    +0.139 C 
BRANCH  19  21
ATOM     21  C   UNL     1      -4.796 -10.978  17.492  0.00  0.00    -0.030 A 
ATOM     24  C   UNL     1      -4.654 -11.361  18.826  0.00  0.00    +0.009 A 
ATOM     25  C   UNL     1      -6.062 -10.694  16.980  0.00  0.00    +0.009 A 
ATOM     29  C   UNL     1      -5.777 -11.459  19.647  0.00  0.00    +0.046 A 
ATOM     30  C   UNL     1      -7.185 -10.792  17.801  0.00  0.00    +0.046 A 
ATOM     31  C   UNL     1      -7.042 -11.175  19.135  0.00  0.00    +0.120 A 
BRANCH  31   3
ATOM      3  O   UNL     1      -8.138 -11.272  19.936  0.00  0.00    -0.495 OA
ATOM     34  C   UNL     1      -9.381 -10.831  19.391  0.00  0.00    +0.277 C 
ENDBRANCH  31   3
ENDBRANCH  19  21
ENDBRANCH   7  19
ENDBRANCH  15  18
ENDBRANCH   9  15
TORSDOF 10
ENDMDL
MODEL 3
REMARK VINA RESULT:      -6.4      3.261      4.723
REMARK  Name = 11941197
REMARK  13 active torsions:
REMARK  status: ('A' for Active; 'I' for Inactive)
REMARK    1  A    between atoms: O_3  and  C_31
REMARK    2  A    between atoms: O_3  and  C_34
REMARK    3  A    between atoms: O_4  and  C_32
REMARK    4  A    between atoms: O_4  and  C_33
REMARK    5  A    between atoms: N_7  and  C_19
REMARK    6  A    between atoms: N_8  and  C_20
REMARK    7  A    between atoms: C_9  and  C_15
REMARK    8  A    between atoms: C_10  and  C_14
REMARK    9  A    between atoms: C_14  and  C_16
REMARK   10  A    between atoms: C_15  and  C_18
REMARK   11  A    between atoms: C_19  and  C_21
REMARK   12  A    between atoms: C_26  and  C_32
REMARK   13  A    between atoms: C_33  and  C_35
REMARK                            x       y       z     vdW  Elec       q    Type
REMARK                         _______ _______ _______ _____ _____    ______ ____
ROOT
ATOM      1  O   UNL     1      -6.398 -12.483   8.356  0.00  0.00    -0.252 OA
ATOM      6  N   UNL     1      -5.802 -11.708  10.451  0.00  0.00    -0.285 N 
ATOM      8  N   UNL     1      -7.130 -10.384   9.021  0.00  0.00    -0.269 N 
ATOM      9  C   UNL     1      -3.517 -11.503  12.214  0.00  0.00    +0.004 C 
ATOM     10  C   UNL     1      -4.398 -10.266  11.897  0.00  0.00    +0.010 C 
ATOM     11  C   UNL     1      -3.587 -12.558  11.095  0.00  0.00    +0.023 C 
ATOM     12  C   UNL     1      -5.822 -10.725  11.545  0.00  0.00    +0.113 C 
ATOM     13  C   UNL     1      -5.032 -12.916  10.752  0.00  0.00    +0.109 C 
ATOM     17  C   UNL     1      -6.456 -11.590   9.206  0.00  0.00    +0.306 C 
ATOM     37  H   UNL     1      -7.499  -9.907   9.835  0.00  0.00    +0.156 HD
ENDROOT
BRANCH   8  20
ATOM     20  C   UNL     1      -7.364  -9.709   7.797  0.00  0.00    +0.036 A 
ATOM     22  C   UNL     1      -8.503  -8.919   7.642  0.00  0.00    +0.038 A 
ATOM     23  C   UNL     1      -6.454  -9.834   6.747  0.00  0.00    +0.023 A 
ATOM     26  C   UNL     1      -8.732  -8.254   6.438  0.00  0.00    +0.061 A 
ATOM     27  C   UNL     1      -6.683  -9.170   5.542  0.00  0.00    +0.003 A 
ATOM     28  C   UNL     1      -7.822  -8.381   5.387  0.00  0.00    +0.015 A 
BRANCH  26  32
ATOM      5  O   UNL     1     -10.905  -7.747   5.597  0.00  0.00    -0.245 OA
ATOM     32  C   UNL     1      -9.919  -7.430   6.275  0.00  0.00    +0.339 C 
BRANCH  32   4
ATOM      4  O   UNL     1      -9.813  -6.254   6.967  0.00  0.00    -0.461 OA
BRANCH   4  33
ATOM     33  C   UNL     1     -10.769  -6.027   8.008  0.00  0.00    +0.229 C 
ATOM     35  C   UNL     1     -10.327  -4.837   8.834  0.00  0.00    +0.048 C 
ENDBRANCH   4  33
ENDBRANCH  32   4
ENDBRANCH  26  32
ENDBRANCH   8  20
BRANCH  10  14
ATOM     14  C   UNL     1      -3.836  -9.366  10.791  0.00  0.00    +0.002 C 
ATOM     16  C   UNL     1      -4.804  -8.254  10.446  0.00  0.00    +0.004 C 
ENDBRANCH  10  14
BRANCH   9  15
ATOM     15  C   UNL     1      -2.064 -11.142  12.524  0.00  0.00    +0.099 C 
BRANCH  15  18
ATOM      2  O   UNL     1      -1.199  -9.549  14.126  0.00  0.00    -0.276 OA
ATOM      7  N   UNL     1      -2.661 -11.209  14.841  0.00  0.00    -0.311 N 
ATOM     18  C   UNL     1      -1.908 -10.525  13.897  0.00  0.00    +0.214 C 
ATOM     36  H   UNL     1      -3.210 -12.014  14.556  0.00  0.00    +0.149 HD
BRANCH   7  19
ATOM     19  C   UNL     1      -2.698 -10.841  16.239  0.00  0.00    +0.139 C 
BRANCH  19  21
ATOM     21  C   UNL     1      -4.102 -10.664  16.737  0.00  0.00    -0.030 A 
ATOM     24  C   UNL     1      -4.473 -11.183  17.977  0.00  0.00    +0.009 A 
ATOM     25  C   UNL     1      -5.038  -9.981  15.960  0.00  0.00    +0.009 A 
ATOM     29  C   UNL     1      -5.778 -11.018  18.441  0.00  0.00    +0.046 A 
ATOM     30  C   UNL     1      -6.343  -9.816  16.424  0.00  0.00    +0.046 A 
ATOM     31  C   UNL     1      -6.713 -10.335  17.664  0.00  0.00    +0.120 A 
BRANCH  31   3
ATOM      3  O   UNL     1      -7.987 -10.175  18.116  0.00  0.00    -0.495 OA
ATOM     34  C   UNL     1      -8.380 -10.964  19.239  0.00  0.00    +0.277 C 
ENDBRANCH  31   3
ENDBRANCH  19  21
ENDBRANCH   7  19
ENDBRANCH  15  18
ENDBRANCH   9  15
TORSDOF 10
ENDMDL
MODEL 4
REMARK VINA RESULT:      -6.3      4.212      9.445
REMARK  Name = 11941197
REMARK  13 active torsions:
REMARK  status: ('A' for Active; 'I' for Inactive)
REMARK    1  A    between atoms: O_3  and  C_31
REMARK    2  A    between atoms: O_3  and  C_34
REMARK    3  A    between atoms: O_4  and  C_32
REMARK    4  A    between atoms: O_4  and  C_33
REMARK    5  A    between atoms: N_7  and  C_19
REMARK    6  A    between atoms: N_8  and  C_20
REMARK    7  A    between atoms: C_9  and  C_15
REMARK    8  A    between atoms: C_10  and  C_14
REMARK    9  A    between atoms: C_14  and  C_16
REMARK   10  A    between atoms: C_15  and  C_18
REMARK   11  A    between atoms: C_19  and  C_21
REMARK   12  A    between atoms: C_26  and  C_32
REMARK   13  A    between atoms: C_33  and  C_35
REMARK                            x       y       z     vdW  Elec       q    Type
REMARK                         _______ _______ _______ _____ _____    ______ ____
ROOT
ATOM      1  O   UNL     1      -2.983 -12.900  11.557  0.00  0.00    -0.252 OA
ATOM      6  N   UNL     1      -3.774 -11.361  10.024  0.00  0.00    -0.285 N 
ATOM      8  N   UNL     1      -2.867 -10.643  12.080  0.00  0.00    -0.269 N 
ATOM      9  C   UNL     1      -6.027 -10.872   8.276  0.00  0.00    +0.004 C 
ATOM     10  C   UNL     1      -5.526  -9.783   9.261  0.00  0.00    +0.010 C 
ATOM     11  C   UNL     1      -5.663 -12.289   8.756  0.00  0.00    +0.023 C 
ATOM     12  C   UNL     1      -4.030  -9.994   9.544  0.00  0.00    +0.113 C 
ATOM     13  C   UNL     1      -4.175 -12.406   9.082  0.00  0.00    +0.109 C 
ATOM     17  C   UNL     1      -3.177 -11.721  11.252  0.00  0.00    +0.306 C 
ATOM     37  H   UNL     1      -2.647  -9.752  11.651  0.00  0.00    +0.156 HD
ENDROOT
BRANCH   8  20
ATOM     20  C   UNL     1      -2.831 -10.630  13.497  0.00  0.00    +0.036 A 
ATOM     22  C   UNL     1      -3.979 -10.940  14.226  0.00  0.00    +0.038 A 
ATOM     23  C   UNL     1      -1.647 -10.309  14.161  0.00  0.00    +0.023 A 
ATOM     26  C   UNL     1      -3.943 -10.927  15.621  0.00  0.00    +0.061 A 
ATOM     27  C   UNL     1      -1.612 -10.297  15.555  0.00  0.00    +0.003 A 
ATOM     28  C   UNL     1      -2.759 -10.605  16.285  0.00  0.00    +0.015 A 
BRANCH  26  32
ATOM      5  O   UNL     1      -6.093 -11.906  15.944  0.00  0.00    -0.245 OA
ATOM     32  C   UNL     1      -5.139 -11.250  16.382  0.00  0.00    +0.339 C 
BRANCH  32   4
ATOM      4  O   UNL     1      -5.081 -10.738  17.650  0.00  0.00    -0.461 OA
BRANCH   4  33
ATOM     33  C   UNL     1      -6.318 -10.311  18.232  0.00  0.00    +0.229 C 
ATOM     35  C   UNL     1      -6.636 -11.196  19.419  0.00  0.00    +0.048 C 
ENDBRANCH   4  33
ENDBRANCH  32   4
ENDBRANCH  26  32
ENDBRANCH   8  20
BRANCH  10  14
ATOM     14  C   UNL     1      -6.316  -9.717  10.574  0.00  0.00    +0.002 C 
ATOM     16  C   UNL     1      -5.751  -8.663  11.500  0.00  0.00    +0.004 C 
ENDBRANCH  10  14
BRANCH   9  15
ATOM     15  C   UNL     1      -7.523 -10.770   7.978  0.00  0.00    +0.099 C 
BRANCH  15  18
ATOM      2  O   UNL     1      -7.023  -9.065   6.336  0.00  0.00    -0.276 OA
ATOM      7  N   UNL     1      -9.182  -9.241   7.179  0.00  0.00    -0.311 N 
ATOM     18  C   UNL     1      -7.848  -9.606   7.068  0.00  0.00    +0.214 C 
ATOM     36  H   UNL     1      -9.787  -9.744   7.821  0.00  0.00    +0.149 HD
BRANCH   7  19
ATOM     19  C   UNL     1      -9.769  -8.155   6.427  0.00  0.00    +0.139 C 
BRANCH  19  21
ATOM     21  C   UNL     1     -10.040  -6.957   7.288  0.00  0.00    -0.030 A 
ATOM     24  C   UNL     1     -11.352  -6.620   7.621  0.00  0.00    +0.009 A 
ATOM     25  C   UNL     1      -8.981  -6.179   7.756  0.00  0.00    +0.009 A 
ATOM     29  C   UNL     1     -11.604  -5.507   8.423  0.00  0.00    +0.046 A 
ATOM     30  C   UNL     1      -9.234  -5.066   8.558  0.00  0.00    +0.046 A 
ATOM     31  C   UNL     1     -10.546  -4.730   8.891  0.00  0.00    +0.120 A 
BRANCH  31   3
ATOM      3  O   UNL     1     -10.792  -3.643   9.672  0.00  0.00    -0.495 OA
ATOM     34  C   UNL     1     -11.964  -3.681  10.486  0.00  0.00    +0.277 C 
ENDBRANCH  31   3
ENDBRANCH  19  21
ENDBRANCH   7  19
ENDBRANCH  15  18
ENDBRANCH   9  15
TORSDOF 10
ENDMDL
MODEL 5
REMARK VINA RESULT:      -6.3     22.784     26.755
REMARK  Name = 11941197
REMARK  13 active torsions:
REMARK  status: ('A' for Active; 'I' for Inactive)
REMARK    1  A    between atoms: O_3  and  C_31
REMARK    2  A    between atoms: O_3  and  C_34
REMARK    3  A    between atoms: O_4  and  C_32
REMARK    4  A    between atoms: O_4  and  C_33
REMARK    5  A    between atoms: N_7  and  C_19
REMARK    6  A    between atoms: N_8  and  C_20
REMARK    7  A    between atoms: C_9  and  C_15
REMARK    8  A    between atoms: C_10  and  C_14
REMARK    9  A    between atoms: C_14  and  C_16
REMARK   10  A    between atoms: C_15  and  C_18
REMARK   11  A    between atoms: C_19  and  C_21
REMARK   12  A    between atoms: C_26  and  C_32
REMARK   13  A    between atoms: C_33  and  C_35
REMARK                            x       y       z     vdW  Elec       q    Type
REMARK                         _______ _______ _______ _____ _____    ______ ____
ROOT
ATOM      1  O   UNL     1       9.737   6.470   2.044  0.00  0.00    -0.252 OA
ATOM      6  N   UNL     1      10.850   4.595   1.277  0.00  0.00    -0.285 N 
ATOM      8  N   UNL     1      10.810   5.102   3.580  0.00  0.00    -0.269 N 
ATOM      9  C   UNL     1      12.678   3.748  -0.800  0.00  0.00    +0.004 C 
ATOM     10  C   UNL     1      12.956   3.426   0.692  0.00  0.00    +0.010 C 
ATOM     11  C   UNL     1      11.787   4.993  -0.960  0.00  0.00    +0.023 C 
ATOM     12  C   UNL     1      11.625   3.358   1.460  0.00  0.00    +0.113 C 
ATOM     13  C   UNL     1      10.516   4.885  -0.118  0.00  0.00    +0.109 C 
ATOM     17  C   UNL     1      10.404   5.463   2.296  0.00  0.00    +0.306 C 
ATOM     37  H   UNL     1      10.961   4.120   3.780  0.00  0.00    +0.156 HD
ENDROOT
BRANCH   8  20
ATOM     20  C   UNL     1      11.059   5.964   4.677  0.00  0.00    +0.036 A 
ATOM     22  C   UNL     1      10.251   5.898   5.812  0.00  0.00    +0.038 A 
ATOM     23  C   UNL     1      12.112   6.876   4.622  0.00  0.00    +0.023 A 
ATOM     26  C   UNL     1      10.496   6.746   6.892  0.00  0.00    +0.061 A 
ATOM     27  C   UNL     1      12.357   7.724   5.702  0.00  0.00    +0.003 A 
ATOM     28  C   UNL     1      11.549   7.660   6.837  0.00  0.00    +0.015 A 
BRANCH  26  32
ATOM      5  O   UNL     1       8.628   7.351   8.246  0.00  0.00    -0.245 OA
ATOM     32  C   UNL     1       9.655   6.679   8.076  0.00  0.00    +0.339 C 
BRANCH  32   4
ATOM      4  O   UNL     1      10.138   5.779   8.987  0.00  0.00    -0.461 OA
BRANCH   4  33
ATOM     33  C   UNL     1       9.418   4.550   9.126  0.00  0.00    +0.229 C 
ATOM     35  C   UNL     1       8.737   4.528  10.479  0.00  0.00    +0.048 C 
ENDBRANCH   4  33
ENDBRANCH  32   4
ENDBRANCH  26  32
ENDBRANCH   8  20
BRANCH  10  14
ATOM     14  C   UNL     1      13.919   4.404   1.374  0.00  0.00    +0.002 C 
ATOM     16  C   UNL     1      15.168   3.697   1.854  0.00  0.00    +0.004 C 
ENDBRANCH  10  14
BRANCH   9  15
ATOM     15  C   UNL     1      13.953   3.887  -1.631  0.00  0.00    +0.099 C 
BRANCH  15  18
ATOM      2  O   UNL     1      14.054   5.038  -3.757  0.00  0.00    -0.276 OA
ATOM      7  N   UNL     1      12.894   3.030  -3.599  0.00  0.00    -0.311 N 
ATOM     18  C   UNL     1      13.660   4.076  -3.104  0.00  0.00    +0.214 C 
ATOM     36  H   UNL     1      12.607   2.281  -2.976  0.00  0.00    +0.149 HD
BRANCH   7  19
ATOM     19  C   UNL     1      12.461   2.952  -4.976  0.00  0.00    +0.139 C 
BRANCH  19  21
ATOM     21  C   UNL     1      11.137   3.625  -5.189  0.00  0.00    -0.030 A 
ATOM     24  C   UNL     1      10.816   4.153  -6.440  0.00  0.00    +0.009 A 
ATOM     25  C   UNL     1      10.227   3.724  -4.136  0.00  0.00    +0.009 A 
ATOM     29  C   UNL     1       9.585   4.777  -6.638  0.00  0.00    +0.046 A 
ATOM     30  C   UNL     1       8.995   4.348  -4.335  0.00  0.00    +0.046 A 
ATOM     31  C   UNL     1       8.675   4.876  -5.586  0.00  0.00    +0.120 A 
BRANCH  31   3
ATOM      3  O   UNL     1       7.474   5.486  -5.779  0.00  0.00    -0.495 OA
ATOM     34  C   UNL     1       6.616   5.604  -4.645  0.00  0.00    +0.277 C 
ENDBRANCH  31   3
ENDBRANCH  19  21
ENDBRANCH   7  19
ENDBRANCH  15  18
ENDBRANCH   9  15
TORSDOF 10
ENDMDL
MODEL 6
REMARK VINA RESULT:      -6.3     23.270     29.199
REMARK  Name = 11941197
REMARK  13 active torsions:
REMARK  status: ('A' for Active; 'I' for Inactive)
REMARK    1  A    between atoms: O_3  and  C_31
REMARK    2  A    between atoms: O_3  and  C_34
REMARK    3  A    between atoms: O_4  and  C_32
REMARK    4  A    between atoms: O_4  and  C_33
REMARK    5  A    between atoms: N_7  and  C_19
REMARK    6  A    between atoms: N_8  and  C_20
REMARK    7  A    between atoms: C_9  and  C_15
REMARK    8  A    between atoms: C_10  and  C_14
REMARK    9  A    between atoms: C_14  and  C_16
REMARK   10  A    between atoms: C_15  and  C_18
REMARK   11  A    between atoms: C_19  and  C_21
REMARK   12  A    between atoms: C_26  and  C_32
REMARK   13  A    between atoms: C_33  and  C_35
REMARK                            x       y       z     vdW  Elec       q    Type
REMARK                         _______ _______ _______ _____ _____    ______ ____
ROOT
ATOM      1  O   UNL     1     -16.543   6.328  32.759  0.00  0.00    -0.252 OA
ATOM      6  N   UNL     1     -16.086   4.079  32.483  0.00  0.00    -0.285 N 
ATOM      8  N   UNL     1     -14.693   5.426  33.828  0.00  0.00    -0.269 N 
ATOM      9  C   UNL     1     -15.931   2.044  30.433  0.00  0.00    +0.004 C 
ATOM     10  C   UNL     1     -14.768   2.260  31.436  0.00  0.00    +0.010 C 
ATOM     11  C   UNL     1     -16.774   3.319  30.250  0.00  0.00    +0.023 C 
ATOM     12  C   UNL     1     -15.320   2.851  32.744  0.00  0.00    +0.113 C 
ATOM     13  C   UNL     1     -17.231   3.887  31.592  0.00  0.00    +0.109 C 
ATOM     17  C   UNL     1     -15.827   5.358  33.021  0.00  0.00    +0.306 C 
ATOM     37  H   UNL     1     -14.412   4.596  34.337  0.00  0.00    +0.156 HD
ENDROOT
BRANCH   8  20
ATOM     20  C   UNL     1     -13.845   6.544  34.027  0.00  0.00    +0.036 A 
ATOM     22  C   UNL     1     -13.437   6.889  35.316  0.00  0.00    +0.038 A 
ATOM     23  C   UNL     1     -13.417   7.298  32.935  0.00  0.00    +0.023 A 
ATOM     26  C   UNL     1     -12.602   7.989  35.511  0.00  0.00    +0.061 A 
ATOM     27  C   UNL     1     -12.583   8.398  33.130  0.00  0.00    +0.003 A 
ATOM     28  C   UNL     1     -12.175   8.744  34.418  0.00  0.00    +0.015 A 
BRANCH  26  32
ATOM      5  O   UNL     1     -12.645   9.291  37.509  0.00  0.00    -0.245 OA
ATOM     32  C   UNL     1     -12.176   8.350  36.854  0.00  0.00    +0.339 C 
BRANCH  32   4
ATOM      4  O   UNL     1     -11.187   7.520  37.308  0.00  0.00    -0.461 OA
BRANCH   4  33
ATOM     33  C   UNL     1     -10.053   8.140  37.923  0.00  0.00    +0.229 C 
ATOM     35  C   UNL     1      -8.881   8.083  36.966  0.00  0.00    +0.048 C 
ENDBRANCH   4  33
ENDBRANCH  32   4
ENDBRANCH  26  32
ENDBRANCH   8  20
BRANCH  10  14
ATOM     14  C   UNL     1     -13.629   3.130  30.893  0.00  0.00    +0.002 C 
ATOM     16  C   UNL     1     -12.624   3.454  31.977  0.00  0.00    +0.004 C 
ENDBRANCH  10  14
BRANCH   9  15
ATOM     15  C   UNL     1     -15.465   1.506  29.080  0.00  0.00    +0.099 C 
BRANCH  15  18
ATOM      2  O   UNL     1     -17.555   0.563  28.307  0.00  0.00    -0.276 OA
ATOM      7  N   UNL     1     -16.447   2.123  26.987  0.00  0.00    -0.311 N 
ATOM     18  C   UNL     1     -16.612   1.325  28.109  0.00  0.00    +0.214 C 
ATOM     36  H   UNL     1     -15.626   2.716  26.909  0.00  0.00    +0.149 HD
BRANCH   7  19
ATOM     19  C   UNL     1     -17.391   2.150  25.892  0.00  0.00    +0.139 C 
BRANCH  19  21
ATOM     21  C   UNL     1     -16.886   2.959  24.733  0.00  0.00    -0.030 A 
ATOM     24  C   UNL     1     -17.669   3.101  23.587  0.00  0.00    +0.009 A 
ATOM     25  C   UNL     1     -15.633   3.569  24.801  0.00  0.00    +0.009 A 
ATOM     29  C   UNL     1     -17.199   3.854  22.511  0.00  0.00    +0.046 A 
ATOM     30  C   UNL     1     -15.164   4.323  23.725  0.00  0.00    +0.046 A 
ATOM     31  C   UNL     1     -15.948   4.464  22.580  0.00  0.00    +0.120 A 
BRANCH  31   3
ATOM      3  O   UNL     1     -15.490   5.198  21.529  0.00  0.00    -0.495 OA
ATOM     34  C   UNL     1     -14.668   6.325  21.833  0.00  0.00    +0.277 C 
ENDBRANCH  31   3
ENDBRANCH  19  21
ENDBRANCH   7  19
ENDBRANCH  15  18
ENDBRANCH   9  15
TORSDOF 10
ENDMDL
MODEL 7
REMARK VINA RESULT:      -6.3      3.775      5.203
REMARK  Name = 11941197
REMARK  13 active torsions:
REMARK  status: ('A' for Active; 'I' for Inactive)
REMARK    1  A    between atoms: O_3  and  C_31
REMARK    2  A    between atoms: O_3  and  C_34
REMARK    3  A    between atoms: O_4  and  C_32
REMARK    4  A    between atoms: O_4  and  C_33
REMARK    5  A    between atoms: N_7  and  C_19
REMARK    6  A    between atoms: N_8  and  C_20
REMARK    7  A    between atoms: C_9  and  C_15
REMARK    8  A    between atoms: C_10  and  C_14
REMARK    9  A    between atoms: C_14  and  C_16
REMARK   10  A    between atoms: C_15  and  C_18
REMARK   11  A    between atoms: C_19  and  C_21
REMARK   12  A    between atoms: C_26  and  C_32
REMARK   13  A    between atoms: C_33  and  C_35
REMARK                            x       y       z     vdW  Elec       q    Type
REMARK                         _______ _______ _______ _____ _____    ______ ____
ROOT
ATOM      1  O   UNL     1      -8.937  -9.770  10.165  0.00  0.00    -0.252 OA
ATOM      6  N   UNL     1      -6.969  -9.280  11.274  0.00  0.00    -0.285 N 
ATOM      8  N   UNL     1      -7.468  -8.248   9.213  0.00  0.00    -0.269 N 
ATOM      9  C   UNL     1      -4.782 -10.568  12.663  0.00  0.00    +0.004 C 
ATOM     10  C   UNL     1      -4.517  -9.540  11.532  0.00  0.00    +0.010 C 
ATOM     11  C   UNL     1      -6.159 -11.240  12.516  0.00  0.00    +0.023 C 
ATOM     12  C   UNL     1      -5.698  -8.559  11.442  0.00  0.00    +0.113 C 
ATOM     13  C   UNL     1      -7.274 -10.207  12.365  0.00  0.00    +0.109 C 
ATOM     17  C   UNL     1      -7.881  -9.134  10.208  0.00  0.00    +0.306 C 
ATOM     37  H   UNL     1      -6.865  -7.477   9.473  0.00  0.00    +0.156 HD
ENDROOT
BRANCH   8  20
ATOM     20  C   UNL     1      -7.787  -8.296   7.833  0.00  0.00    +0.036 A 
ATOM     22  C   UNL     1      -8.951  -7.686   7.364  0.00  0.00    +0.038 A 
ATOM     23  C   UNL     1      -6.937  -8.952   6.943  0.00  0.00    +0.023 A 
ATOM     26  C   UNL     1      -9.264  -7.733   6.006  0.00  0.00    +0.061 A 
ATOM     27  C   UNL     1      -7.250  -8.999   5.585  0.00  0.00    +0.003 A 
ATOM     28  C   UNL     1      -8.414  -8.390   5.116  0.00  0.00    +0.015 A 
BRANCH  26  32
ATOM      5  O   UNL     1     -11.506  -6.940   6.188  0.00  0.00    -0.245 OA
ATOM     32  C   UNL     1     -10.477  -7.098   5.516  0.00  0.00    +0.339 C 
BRANCH  32   4
ATOM      4  O   UNL     1     -10.343  -6.693   4.216  0.00  0.00    -0.461 OA
BRANCH   4  33
ATOM     33  C   UNL     1     -11.472  -6.891   3.358  0.00  0.00    +0.229 C 
ATOM     35  C   UNL     1     -11.383  -8.269   2.736  0.00  0.00    +0.048 C 
ENDBRANCH   4  33
ENDBRANCH  32   4
ENDBRANCH  26  32
ENDBRANCH   8  20
BRANCH  10  14
ATOM     14  C   UNL     1      -4.242 -10.174  10.164  0.00  0.00    +0.002 C 
ATOM     16  C   UNL     1      -3.981  -9.116   9.113  0.00  0.00    +0.004 C 
ENDBRANCH  10  14
BRANCH   9  15
ATOM     15  C   UNL     1      -3.679 -11.618  12.789  0.00  0.00    +0.099 C 
BRANCH  15  18
ATOM      2  O   UNL     1      -3.060 -12.984  14.688  0.00  0.00    -0.276 OA
ATOM      7  N   UNL     1      -3.225 -10.680  14.944  0.00  0.00    -0.311 N 
ATOM     18  C   UNL     1      -3.287 -11.868  14.230  0.00  0.00    +0.214 C 
ATOM     36  H   UNL     1      -3.439  -9.803  14.478  0.00  0.00    +0.149 HD
BRANCH   7  19
ATOM     19  C   UNL     1      -2.878 -10.619  16.346  0.00  0.00    +0.139 C 
BRANCH  19  21
ATOM     21  C   UNL     1      -4.080 -10.774  17.230  0.00  0.00    -0.030 A 
ATOM     24  C   UNL     1      -3.987 -11.511  18.411  0.00  0.00    +0.009 A 
ATOM     25  C   UNL     1      -5.292 -10.182  16.872  0.00  0.00    +0.009 A 
ATOM     29  C   UNL     1      -5.104 -11.654  19.234  0.00  0.00    +0.046 A 
ATOM     30  C   UNL     1      -6.408 -10.326  17.695  0.00  0.00    +0.046 A 
ATOM     31  C   UNL     1      -6.315 -11.062  18.876  0.00  0.00    +0.120 A 
BRANCH  31   3
ATOM      3  O   UNL     1      -7.405 -11.203  19.678  0.00  0.00    -0.495 OA
ATOM     34  C   UNL     1      -7.924 -12.523  19.842  0.00  0.00    +0.277 C 
ENDBRANCH  31   3
ENDBRANCH  19  21
ENDBRANCH   7  19
ENDBRANCH  15  18
ENDBRANCH   9  15
TORSDOF 10
ENDMDL
MODEL 8
REMARK VINA RESULT:      -6.2     23.750     27.599
REMARK  Name = 11941197
REMARK  13 active torsions:
REMARK  status: ('A' for Active; 'I' for Inactive)
REMARK    1  A    between atoms: O_3  and  C_31
REMARK    2  A    between atoms: O_3  and  C_34
REMARK    3  A    between atoms: O_4  and  C_32
REMARK    4  A    between atoms: O_4  and  C_33
REMARK    5  A    between atoms: N_7  and  C_19
REMARK    6  A    between atoms: N_8  and  C_20
REMARK    7  A    between atoms: C_9  and  C_15
REMARK    8  A    between atoms: C_10  and  C_14
REMARK    9  A    between atoms: C_14  and  C_16
REMARK   10  A    between atoms: C_15  and  C_18
REMARK   11  A    between atoms: C_19  and  C_21
REMARK   12  A    between atoms: C_26  and  C_32
REMARK   13  A    between atoms: C_33  and  C_35
REMARK                            x       y       z     vdW  Elec       q    Type
REMARK                         _______ _______ _______ _____ _____    ______ ____
ROOT
ATOM      1  O   UNL     1       8.545   7.499   8.294  0.00  0.00    -0.252 OA
ATOM      6  N   UNL     1      10.352   6.799   7.033  0.00  0.00    -0.285 N 
ATOM      8  N   UNL     1      10.295   8.979   7.932  0.00  0.00    -0.269 N 
ATOM      9  C   UNL     1      10.985   5.403   4.579  0.00  0.00    +0.004 C 
ATOM     10  C   UNL     1      11.617   6.783   4.902  0.00  0.00    +0.010 C 
ATOM     11  C   UNL     1       9.640   5.206   5.302  0.00  0.00    +0.023 C 
ATOM     12  C   UNL     1      11.680   6.975   6.426  0.00  0.00    +0.113 C 
ATOM     13  C   UNL     1       9.763   5.479   6.800  0.00  0.00    +0.109 C 
ATOM     17  C   UNL     1       9.650   7.749   7.806  0.00  0.00    +0.306 C 
ATOM     37  H   UNL     1      11.307   8.999   7.901  0.00  0.00    +0.156 HD
ENDROOT
BRANCH   8  20
ATOM     20  C   UNL     1       9.694  10.252   8.093  0.00  0.00    +0.036 A 
ATOM     22  C   UNL     1       9.410  10.732   9.372  0.00  0.00    +0.038 A 
ATOM     23  C   UNL     1       9.387  11.025   6.974  0.00  0.00    +0.023 A 
ATOM     26  C   UNL     1       8.818  11.985   9.530  0.00  0.00    +0.061 A 
ATOM     27  C   UNL     1       8.795  12.278   7.132  0.00  0.00    +0.003 A 
ATOM     28  C   UNL     1       8.510  12.758   8.410  0.00  0.00    +0.015 A 
BRANCH  26  32
ATOM      5  O   UNL     1       8.861  11.927  11.914  0.00  0.00    -0.245 OA
ATOM     32  C   UNL     1       8.522  12.487  10.863  0.00  0.00    +0.339 C 
BRANCH  32   4
ATOM      4  O   UNL     1       7.817  13.660  10.813  0.00  0.00    -0.461 OA
BRANCH   4  33
ATOM     33  C   UNL     1       8.282  14.728  11.645  0.00  0.00    +0.229 C 
ATOM     35  C   UNL     1       9.519  15.338  11.020  0.00  0.00    +0.048 C 
ENDBRANCH   4  33
ENDBRANCH  32   4
ENDBRANCH  26  32
ENDBRANCH   8  20
BRANCH  10  14
ATOM     14  C   UNL     1      10.903   7.967   4.241  0.00  0.00    +0.002 C 
ATOM     16  C   UNL     1      11.624   9.268   4.523  0.00  0.00    +0.004 C 
ENDBRANCH  10  14
BRANCH   9  15
ATOM     15  C   UNL     1      10.834   5.148   3.079  0.00  0.00    +0.099 C 
BRANCH  15  18
ATOM      2  O   UNL     1      12.785   6.087   2.001  0.00  0.00    -0.276 OA
ATOM      7  N   UNL     1      12.588   3.779   2.198  0.00  0.00    -0.311 N 
ATOM     18  C   UNL     1      12.170   5.091   2.371  0.00  0.00    +0.214 C 
ATOM     36  H   UNL     1      12.003   3.019   2.531  0.00  0.00    +0.149 HD
BRANCH   7  19
ATOM     19  C   UNL     1      13.830   3.426   1.546  0.00  0.00    +0.139 C 
BRANCH  19  21
ATOM     21  C   UNL     1      13.750   3.593   0.057  0.00  0.00    -0.030 A 
ATOM     24  C   UNL     1      14.773   4.251  -0.627  0.00  0.00    +0.009 A 
ATOM     25  C   UNL     1      12.654   3.090  -0.645  0.00  0.00    +0.009 A 
ATOM     29  C   UNL     1      14.700   4.405  -2.011  0.00  0.00    +0.046 A 
ATOM     30  C   UNL     1      12.582   3.245  -2.029  0.00  0.00    +0.046 A 
ATOM     31  C   UNL     1      13.605   3.902  -2.712  0.00  0.00    +0.120 A 
BRANCH  31   3
ATOM      3  O   UNL     1      13.533   4.054  -4.062  0.00  0.00    -0.495 OA
ATOM     34  C   UNL     1      14.219   5.171  -4.627  0.00  0.00    +0.277 C 
ENDBRANCH  31   3
ENDBRANCH  19  21
ENDBRANCH   7  19
ENDBRANCH  15  18
ENDBRANCH   9  15
TORSDOF 10
ENDMDL
MODEL 9
REMARK VINA RESULT:      -6.2     25.411     31.104
REMARK  Name = 11941197
REMARK  13 active torsions:
REMARK  status: ('A' for Active; 'I' for Inactive)
REMARK    1  A    between atoms: O_3  and  C_31
REMARK    2  A    between atoms: O_3  and  C_34
REMARK    3  A    between atoms: O_4  and  C_32
REMARK    4  A    between atoms: O_4  and  C_33
REMARK    5  A    between atoms: N_7  and  C_19
REMARK    6  A    between atoms: N_8  and  C_20
REMARK    7  A    between atoms: C_9  and  C_15
REMARK    8  A    between atoms: C_10  and  C_14
REMARK    9  A    between atoms: C_14  and  C_16
REMARK   10  A    between atoms: C_15  and  C_18
REMARK   11  A    between atoms: C_19  and  C_21
REMARK   12  A    between atoms: C_26  and  C_32
REMARK   13  A    between atoms: C_33  and  C_35
REMARK                            x       y       z     vdW  Elec       q    Type
REMARK                         _______ _______ _______ _____ _____    ______ ____
ROOT
ATOM      1  O   UNL     1      -9.309  11.549  34.773  0.00  0.00    -0.252 OA
ATOM      6  N   UNL     1     -10.259   9.762  33.657  0.00  0.00    -0.285 N 
ATOM      8  N   UNL     1      -8.804  11.237  32.530  0.00  0.00    -0.269 N 
ATOM      9  C   UNL     1     -12.794   8.412  33.305  0.00  0.00    +0.004 C 
ATOM     10  C   UNL     1     -11.945   8.852  32.084  0.00  0.00    +0.010 C 
ATOM     11  C   UNL     1     -12.496   9.268  34.549  0.00  0.00    +0.023 C 
ATOM     12  C   UNL     1     -10.460   8.901  32.480  0.00  0.00    +0.113 C 
ATOM     13  C   UNL     1     -10.998   9.327  34.843  0.00  0.00    +0.109 C 
ATOM     17  C   UNL     1      -9.430  10.901  33.730  0.00  0.00    +0.306 C 
ATOM     37  H   UNL     1      -8.590  10.496  31.873  0.00  0.00    +0.156 HD
ENDROOT
BRANCH   8  20
ATOM     20  C   UNL     1      -8.425  12.530  32.091  0.00  0.00    +0.036 A 
ATOM     22  C   UNL     1      -7.147  12.744  31.573  0.00  0.00    +0.038 A 
ATOM     23  C   UNL     1      -9.329  13.588  32.175  0.00  0.00    +0.023 A 
ATOM     26  C   UNL     1      -6.774  14.016  31.141  0.00  0.00    +0.061 A 
ATOM     27  C   UNL     1      -8.956  14.861  31.743  0.00  0.00    +0.003 A 
ATOM     28  C   UNL     1      -7.679  15.075  31.226  0.00  0.00    +0.015 A 
BRANCH  26  32
ATOM      5  O   UNL     1      -5.179  15.044  29.696  0.00  0.00    -0.245 OA
ATOM     32  C   UNL     1      -5.443  14.240  30.600  0.00  0.00    +0.339 C 
BRANCH  32   4
ATOM      4  O   UNL     1      -4.510  13.450  31.216  0.00  0.00    -0.461 OA
BRANCH   4  33
ATOM     33  C   UNL     1      -3.741  14.052  32.262  0.00  0.00    +0.229 C 
ATOM     35  C   UNL     1      -3.620  13.073  33.411  0.00  0.00    +0.048 C 
ENDBRANCH   4  33
ENDBRANCH  32   4
ENDBRANCH  26  32
ENDBRANCH   8  20
BRANCH  10  14
ATOM     14  C   UNL     1     -12.381  10.187  31.469  0.00  0.00    +0.002 C 
ATOM     16  C   UNL     1     -12.119  10.214  29.978  0.00  0.00    +0.004 C 
ENDBRANCH  10  14
BRANCH   9  15
ATOM     15  C   UNL     1     -14.294   8.386  33.015  0.00  0.00    +0.099 C 
BRANCH  15  18
ATOM      2  O   UNL     1     -16.171   7.039  33.735  0.00  0.00    -0.276 OA
ATOM      7  N   UNL     1     -14.027   6.143  33.806  0.00  0.00    -0.311 N 
ATOM     18  C   UNL     1     -14.961   7.137  33.552  0.00  0.00    +0.214 C 
ATOM     36  H   UNL     1     -13.043   6.322  33.631  0.00  0.00    +0.149 HD
BRANCH   7  19
ATOM     19  C   UNL     1     -14.382   4.842  34.329  0.00  0.00    +0.139 C 
BRANCH  19  21
ATOM     21  C   UNL     1     -14.207   3.758  33.306  0.00  0.00    -0.030 A 
ATOM     24  C   UNL     1     -14.689   2.474  33.562  0.00  0.00    +0.009 A 
ATOM     25  C   UNL     1     -13.564   4.034  32.099  0.00  0.00    +0.009 A 
ATOM     29  C   UNL     1     -14.528   1.466  32.611  0.00  0.00    +0.046 A 
ATOM     30  C   UNL     1     -13.403   3.025  31.149  0.00  0.00    +0.046 A 
ATOM     31  C   UNL     1     -13.885   1.742  31.405  0.00  0.00    +0.120 A 
BRANCH  31   3
ATOM      3  O   UNL     1     -13.727   0.758  30.478  0.00  0.00    -0.495 OA
ATOM     34  C   UNL     1     -14.774   0.593  29.522  0.00  0.00    +0.277 C 
ENDBRANCH  31   3
ENDBRANCH  19  21
ENDBRANCH   7  19
ENDBRANCH  15  18
ENDBRANCH   9  15
TORSDOF 10
ENDMDL
MODEL 10
REMARK VINA RESULT:      -6.1      6.521     12.400
REMARK  Name = 11941197
REMARK  13 active torsions:
REMARK  status: ('A' for Active; 'I' for Inactive)
REMARK    1  A    between atoms: O_3  and  C_31
REMARK    2  A    between atoms: O_3  and  C_34
REMARK    3  A    between atoms: O_4  and  C_32
REMARK    4  A    between atoms: O_4  and  C_33
REMARK    5  A    between atoms: N_7  and  C_19
REMARK    6  A    between atoms: N_8  and  C_20
REMARK    7  A    between atoms: C_9  and  C_15
REMARK    8  A    between atoms: C_10  and  C_14
REMARK    9  A    between atoms: C_14  and  C_16
REMARK   10  A    between atoms: C_15  and  C_18
REMARK   11  A    between atoms: C_19  and  C_21
REMARK   12  A    between atoms: C_26  and  C_32
REMARK   13  A    between atoms: C_33  and  C_35
REMARK                            x       y       z     vdW  Elec       q    Type
REMARK                         _______ _______ _______ _____ _____    ______ ____
ROOT
ATOM      1  O   UNL     1     -12.999 -10.920  15.800  0.00  0.00    -0.252 OA
ATOM      6  N   UNL     1     -12.595  -9.055  14.494  0.00  0.00    -0.285 N 
ATOM      8  N   UNL     1     -11.046  -9.715  16.146  0.00  0.00    -0.269 N 
ATOM      9  C   UNL     1     -13.910  -6.689  13.473  0.00  0.00    +0.004 C 
ATOM     10  C   UNL     1     -12.546  -6.594  14.206  0.00  0.00    +0.010 C 
ATOM     11  C   UNL     1     -14.701  -7.939  13.895  0.00  0.00    +0.023 C 
ATOM     12  C   UNL     1     -11.780  -7.917  14.042  0.00  0.00    +0.113 C 
ATOM     13  C   UNL     1     -13.858  -9.207  13.769  0.00  0.00    +0.109 C 
ATOM     17  C   UNL     1     -12.256  -9.980  15.505  0.00  0.00    +0.306 C 
ATOM     37  H   UNL     1     -10.317  -9.244  15.625  0.00  0.00    +0.156 HD
ENDROOT
BRANCH   8  20
ATOM     20  C   UNL     1     -10.698 -10.023  17.485  0.00  0.00    +0.036 A 
ATOM     22  C   UNL     1      -9.441 -10.554  17.774  0.00  0.00    +0.038 A 
ATOM     23  C   UNL     1     -11.611  -9.793  18.513  0.00  0.00    +0.023 A 
ATOM     26  C   UNL     1      -9.098 -10.857  19.091  0.00  0.00    +0.061 A 
ATOM     27  C   UNL     1     -11.269 -10.095  19.831  0.00  0.00    +0.003 A 
ATOM     28  C   UNL     1     -10.013 -10.627  20.120  0.00  0.00    +0.015 A 
BRANCH  26  32
ATOM      5  O   UNL     1      -6.980 -10.907  20.186  0.00  0.00    -0.245 OA
ATOM     32  C   UNL     1      -7.788 -11.411  19.394  0.00  0.00    +0.339 C 
BRANCH  32   4
ATOM      4  O   UNL     1      -7.554 -12.562  18.693  0.00  0.00    -0.461 OA
BRANCH   4  33
ATOM     33  C   UNL     1      -6.219 -12.772  18.221  0.00  0.00    +0.229 C 
ATOM     35  C   UNL     1      -5.973 -11.877  17.025  0.00  0.00    +0.048 C 
ENDBRANCH   4  33
ENDBRANCH  32   4
ENDBRANCH  26  32
ENDBRANCH   8  20
BRANCH  10  14
ATOM     14  C   UNL     1     -12.659  -6.221  15.689  0.00  0.00    +0.002 C 
ATOM     16  C   UNL     1     -11.292  -6.107  16.330  0.00  0.00    +0.004 C 
ENDBRANCH  10  14
BRANCH   9  15
ATOM     15  C   UNL     1     -14.764  -5.431  13.629  0.00  0.00    +0.099 C 
BRANCH  15  18
ATOM      2  O   UNL     1     -14.368  -3.111  13.068  0.00  0.00    -0.276 OA
ATOM      7  N   UNL     1     -13.730  -4.773  11.573  0.00  0.00    -0.311 N 
ATOM     18  C   UNL     1     -14.277  -4.295  12.755  0.00  0.00    +0.214 C 
ATOM     36  H   UNL     1     -13.708  -5.774  11.400  0.00  0.00    +0.149 HD
BRANCH   7  19
ATOM     19  C   UNL     1     -13.189  -3.910  10.548  0.00  0.00    +0.139 C 
BRANCH  19  21
ATOM     21  C   UNL     1     -11.963  -4.493   9.910  0.00  0.00    -0.030 A 
ATOM     24  C   UNL     1     -11.796  -5.877   9.855  0.00  0.00    +0.009 A 
ATOM     25  C   UNL     1     -10.988  -3.653   9.371  0.00  0.00    +0.009 A 
ATOM     29  C   UNL     1     -10.657  -6.420   9.261  0.00  0.00    +0.046 A 
ATOM     30  C   UNL     1      -9.849  -4.196   8.777  0.00  0.00    +0.046 A 
ATOM     31  C   UNL     1      -9.683  -5.580   8.723  0.00  0.00    +0.120 A 
BRANCH  31   3
ATOM      3  O   UNL     1      -8.571  -6.110   8.145  0.00  0.00    -0.495 OA
ATOM     34  C   UNL     1      -8.755  -6.835   6.929  0.00  0.00    +0.277 C 
ENDBRANCH  31   3
ENDBRANCH  19  21
ENDBRANCH   7  19
ENDBRANCH  15  18
ENDBRANCH   9  15
TORSDOF 10
ENDMDL
