MODEL 1
REMARK VINA RESULT:      -6.7      0.000      0.000
REMARK  Name = 45784123
REMARK  11 active torsions:
REMARK  status: ('A' for Active; 'I' for Inactive)
REMARK    1  A    between atoms: O_1  and  C_14
REMARK    2  A    between atoms: O_3  and  C_25
REMARK    3  A    between atoms: O_3  and  C_26
REMARK    4  A    between atoms: C_6  and  C_10
REMARK    5  A    between atoms: C_8  and  C_14
REMARK    6  A    between atoms: C_9  and  C_13
REMARK    7  A    between atoms: C_10  and  C_15
REMARK    8  A    between atoms: C_10  and  C_16
REMARK    9  A    between atoms: C_11  and  C_17
REMARK   10  A    between atoms: C_13  and  C_18
REMARK   11  A    between atoms: C_19  and  C_20
REMARK                            x       y       z     vdW  Elec       q    Type
REMARK                         _______ _______ _______ _____ _____    ______ ____
ROOT
ATOM     13  C   UNL     1      14.172   7.237  21.344  0.00  0.00    +0.105 C 
ENDROOT
BRANCH  13   9
ATOM      6  C   UNL     1      12.706  10.061  20.873  0.00  0.00    +0.001 C 
ATOM      7  C   UNL     1      13.063   8.965  19.858  0.00  0.00    +0.012 C 
ATOM      8  C   UNL     1      11.263   9.860  21.402  0.00  0.00    +0.040 C 
ATOM      9  C   UNL     1      12.957   7.552  20.465  0.00  0.00    +0.024 C 
ATOM     11  C   UNL     1      11.667   7.367  21.236  0.00  0.00    -0.073 C 
ATOM     12  C   UNL     1      10.917   8.409  21.635  0.00  0.00    -0.022 C 
ATOM     17  C   UNL     1      11.234   5.951  21.501  0.00  0.00    +0.039 C 
BRANCH   6  10
ATOM     10  C   UNL     1      12.891  11.440  20.232  0.00  0.00    -0.013 C 
ATOM     15  C   UNL     1      13.314  11.297  18.774  0.00  0.00    +0.007 C 
ATOM     16  C   UNL     1      13.913  12.258  21.015  0.00  0.00    +0.007 C 
ENDBRANCH   6  10
BRANCH   8  14
ATOM     14  C   UNL     1      11.032  10.655  22.691  0.00  0.00    +0.163 C 
BRANCH  14   1
ATOM      1  O   UNL     1      11.340   9.819  23.788  0.00  0.00    -0.394 OA
ATOM     27  H   UNL     1      10.635   9.151  23.847  0.00  0.00    +0.209 HD
ENDBRANCH  14   1
ENDBRANCH   8  14
ENDBRANCH  13   9
BRANCH  13  18
ATOM      2  O   UNL     1      16.558   6.780  21.107  0.00  0.00    -0.420 OA
ATOM      4  N   UNL     1      15.343   6.262  19.302  0.00  0.00    -0.112 NA
ATOM      5  N   UNL     1      16.663   5.956  19.031  0.00  0.00    -0.107 NA
ATOM     18  C   UNL     1      15.329   6.741  20.524  0.00  0.00    +0.218 A 
ATOM     19  C   UNL     1      17.336   6.275  20.112  0.00  0.00    +0.248 A 
BRANCH  19  20
ATOM     20  C   UNL     1      18.737   6.174  20.400  0.00  0.00    +0.039 A 
ATOM     21  C   UNL     1      19.406   7.246  20.993  0.00  0.00    +0.017 A 
ATOM     22  C   UNL     1      19.431   5.005  20.089  0.00  0.00    +0.017 A 
ATOM     23  C   UNL     1      20.768   7.148  21.273  0.00  0.00    +0.046 A 
ATOM     24  C   UNL     1      20.793   4.907  20.370  0.00  0.00    +0.046 A 
ATOM     25  C   UNL     1      21.463   5.978  20.963  0.00  0.00    +0.120 A 
BRANCH  25   3
ATOM      3  O   UNL     1      22.791   5.881  21.240  0.00  0.00    -0.495 OA
ATOM     26  C   UNL     1      23.170   5.897  22.615  0.00  0.00    +0.277 C 
ENDBRANCH  25   3
ENDBRANCH  19  20
ENDBRANCH  13  18
TORSDOF 7
ENDMDL
MODEL 2
REMARK VINA RESULT:      -6.4      2.768      8.906
REMARK  Name = 45784123
REMARK  11 active torsions:
REMARK  status: ('A' for Active; 'I' for Inactive)
REMARK    1  A    between atoms: O_1  and  C_14
REMARK    2  A    between atoms: O_3  and  C_25
REMARK    3  A    between atoms: O_3  and  C_26
REMARK    4  A    between atoms: C_6  and  C_10
REMARK    5  A    between atoms: C_8  and  C_14
REMARK    6  A    between atoms: C_9  and  C_13
REMARK    7  A    between atoms: C_10  and  C_15
REMARK    8  A    between atoms: C_10  and  C_16
REMARK    9  A    between atoms: C_11  and  C_17
REMARK   10  A    between atoms: C_13  and  C_18
REMARK   11  A    between atoms: C_19  and  C_20
REMARK                            x       y       z     vdW  Elec       q    Type
REMARK                         _______ _______ _______ _____ _____    ______ ____
ROOT
ATOM     13  C   UNL     1      18.583   6.711  21.499  0.00  0.00    +0.105 C 
ENDROOT
BRANCH  13   9
ATOM      6  C   UNL     1      21.602   5.855  22.211  0.00  0.00    +0.001 C 
ATOM      7  C   UNL     1      21.000   6.283  20.864  0.00  0.00    +0.012 C 
ATOM      8  C   UNL     1      22.205   7.079  22.947  0.00  0.00    +0.040 C 
ATOM      9  C   UNL     1      19.897   7.346  21.030  0.00  0.00    +0.024 C 
ATOM     11  C   UNL     1      20.325   8.460  21.964  0.00  0.00    -0.073 C 
ATOM     12  C   UNL     1      21.367   8.327  22.804  0.00  0.00    -0.022 C 
ATOM     17  C   UNL     1      19.554   9.748  21.879  0.00  0.00    +0.039 C 
BRANCH   6  10
ATOM     10  C   UNL     1      22.644   4.755  21.988  0.00  0.00    -0.013 C 
ATOM     15  C   UNL     1      23.064   4.711  20.523  0.00  0.00    +0.007 C 
ATOM     16  C   UNL     1      22.095   3.404  22.435  0.00  0.00    +0.007 C 
ENDBRANCH   6  10
BRANCH   8  14
ATOM     14  C   UNL     1      22.424   6.777  24.434  0.00  0.00    +0.163 C 
BRANCH  14   1
ATOM      1  O   UNL     1      21.256   6.161  24.937  0.00  0.00    -0.394 OA
ATOM     27  H   UNL     1      20.847   6.785  25.561  0.00  0.00    +0.209 HD
ENDBRANCH  14   1
ENDBRANCH   8  14
ENDBRANCH  13   9
BRANCH  13  18
ATOM      2  O   UNL     1      16.472   7.067  20.328  0.00  0.00    -0.420 OA
ATOM      4  N   UNL     1      17.849   5.625  19.315  0.00  0.00    -0.112 NA
ATOM      5  N   UNL     1      16.702   5.730  18.550  0.00  0.00    -0.107 NA
ATOM     18  C   UNL     1      17.670   6.422  20.342  0.00  0.00    +0.218 A 
ATOM     19  C   UNL     1      15.927   6.582  19.180  0.00  0.00    +0.248 A 
BRANCH  19  20
ATOM     20  C   UNL     1      14.620   7.071  18.850  0.00  0.00    +0.039 A 
ATOM     21  C   UNL     1      13.554   6.857  19.724  0.00  0.00    +0.017 A 
ATOM     22  C   UNL     1      14.415   7.762  17.655  0.00  0.00    +0.017 A 
ATOM     23  C   UNL     1      12.283   7.333  19.404  0.00  0.00    +0.046 A 
ATOM     24  C   UNL     1      13.144   8.237  17.334  0.00  0.00    +0.046 A 
ATOM     25  C   UNL     1      12.077   8.024  18.209  0.00  0.00    +0.120 A 
BRANCH  25   3
ATOM      3  O   UNL     1      10.838   8.492  17.898  0.00  0.00    -0.495 OA
ATOM     26  C   UNL     1      10.531   8.646  16.513  0.00  0.00    +0.277 C 
ENDBRANCH  25   3
ENDBRANCH  19  20
ENDBRANCH  13  18
TORSDOF 7
ENDMDL
MODEL 3
REMARK VINA RESULT:      -6.4     28.867     32.255
REMARK  Name = 45784123
REMARK  11 active torsions:
REMARK  status: ('A' for Active; 'I' for Inactive)
REMARK    1  A    between atoms: O_1  and  C_14
REMARK    2  A    between atoms: O_3  and  C_25
REMARK    3  A    between atoms: O_3  and  C_26
REMARK    4  A    between atoms: C_6  and  C_10
REMARK    5  A    between atoms: C_8  and  C_14
REMARK    6  A    between atoms: C_9  and  C_13
REMARK    7  A    between atoms: C_10  and  C_15
REMARK    8  A    between atoms: C_10  and  C_16
REMARK    9  A    between atoms: C_11  and  C_17
REMARK   10  A    between atoms: C_13  and  C_18
REMARK   11  A    between atoms: C_19  and  C_20
REMARK                            x       y       z     vdW  Elec       q    Type
REMARK                         _______ _______ _______ _____ _____    ______ ____
ROOT
ATOM     13  C   UNL     1     -15.614   4.395  31.978  0.00  0.00    +0.105 C 
ENDROOT
BRANCH  13   9
ATOM      6  C   UNL     1     -16.241   2.030  29.889  0.00  0.00    +0.001 C 
ATOM      7  C   UNL     1     -15.779   3.471  29.623  0.00  0.00    +0.012 C 
ATOM      8  C   UNL     1     -15.021   1.078  29.978  0.00  0.00    +0.040 C 
ATOM      9  C   UNL     1     -14.833   3.991  30.723  0.00  0.00    +0.024 C 
ATOM     11  C   UNL     1     -13.751   2.984  31.057  0.00  0.00    -0.073 C 
ATOM     12  C   UNL     1     -13.847   1.690  30.705  0.00  0.00    -0.022 C 
ATOM     17  C   UNL     1     -12.534   3.509  31.768  0.00  0.00    +0.039 C 
BRANCH   6  10
ATOM     10  C   UNL     1     -17.225   1.592  28.800  0.00  0.00    -0.013 C 
ATOM     15  C   UNL     1     -16.494   1.370  27.480  0.00  0.00    +0.007 C 
ATOM     16  C   UNL     1     -18.334   2.627  28.637  0.00  0.00    +0.007 C 
ENDBRANCH   6  10
BRANCH   8  14
ATOM     14  C   UNL     1     -15.402  -0.247  30.647  0.00  0.00    +0.163 C 
BRANCH  14   1
ATOM      1  O   UNL     1     -14.644  -1.279  30.048  0.00  0.00    -0.394 OA
ATOM     27  H   UNL     1     -14.226  -1.783  30.767  0.00  0.00    +0.209 HD
ENDBRANCH  14   1
ENDBRANCH   8  14
ENDBRANCH  13   9
BRANCH  13  18
ATOM      2  O   UNL     1     -14.029   6.197  32.419  0.00  0.00    -0.420 OA
ATOM      4  N   UNL     1     -16.173   6.785  32.659  0.00  0.00    -0.112 NA
ATOM      5  N   UNL     1     -15.394   7.892  32.938  0.00  0.00    -0.107 NA
ATOM     18  C   UNL     1     -15.335   5.820  32.362  0.00  0.00    +0.218 A 
ATOM     19  C   UNL     1     -14.149   7.502  32.785  0.00  0.00    +0.248 A 
BRANCH  19  20
ATOM     20  C   UNL     1     -12.921   8.226  32.941  0.00  0.00    +0.039 A 
ATOM     21  C   UNL     1     -12.092   8.438  31.838  0.00  0.00    +0.017 A 
ATOM     22  C   UNL     1     -12.555   8.719  34.193  0.00  0.00    +0.017 A 
ATOM     23  C   UNL     1     -10.898   9.142  31.990  0.00  0.00    +0.046 A 
ATOM     24  C   UNL     1     -11.361   9.423  34.345  0.00  0.00    +0.046 A 
ATOM     25  C   UNL     1     -10.532   9.635  33.243  0.00  0.00    +0.120 A 
BRANCH  25   3
ATOM      3  O   UNL     1      -9.368  10.325  33.390  0.00  0.00    -0.495 OA
ATOM     26  C   UNL     1      -8.649  10.133  34.606  0.00  0.00    +0.277 C 
ENDBRANCH  25   3
ENDBRANCH  19  20
ENDBRANCH  13  18
TORSDOF 7
ENDMDL
MODEL 4
REMARK VINA RESULT:      -6.4     26.388     29.547
REMARK  Name = 45784123
REMARK  11 active torsions:
REMARK  status: ('A' for Active; 'I' for Inactive)
REMARK    1  A    between atoms: O_1  and  C_14
REMARK    2  A    between atoms: O_3  and  C_25
REMARK    3  A    between atoms: O_3  and  C_26
REMARK    4  A    between atoms: C_6  and  C_10
REMARK    5  A    between atoms: C_8  and  C_14
REMARK    6  A    between atoms: C_9  and  C_13
REMARK    7  A    between atoms: C_10  and  C_15
REMARK    8  A    between atoms: C_10  and  C_16
REMARK    9  A    between atoms: C_11  and  C_17
REMARK   10  A    between atoms: C_13  and  C_18
REMARK   11  A    between atoms: C_19  and  C_20
REMARK                            x       y       z     vdW  Elec       q    Type
REMARK                         _______ _______ _______ _____ _____    ______ ____
ROOT
ATOM     13  C   UNL     1      -7.337 -10.454  19.138  0.00  0.00    +0.105 C 
ENDROOT
BRANCH  13   9
ATOM      6  C   UNL     1     -10.384  -9.645  18.494  0.00  0.00    +0.001 C 
ATOM      7  C   UNL     1      -9.379 -10.428  17.635  0.00  0.00    +0.012 C 
ATOM      8  C   UNL     1     -11.247 -10.618  19.339  0.00  0.00    +0.040 C 
ATOM      9  C   UNL     1      -8.438 -11.300  18.490  0.00  0.00    +0.024 C 
ATOM     11  C   UNL     1      -9.199 -12.093  19.533  0.00  0.00    -0.073 C 
ATOM     12  C   UNL     1     -10.457 -11.782  19.890  0.00  0.00    -0.022 C 
ATOM     17  C   UNL     1      -8.494 -13.282  20.125  0.00  0.00    +0.039 C 
BRANCH   6  10
ATOM     10  C   UNL     1     -11.246  -8.752  17.598  0.00  0.00    -0.013 C 
ATOM     15  C   UNL     1     -11.888  -9.575  16.486  0.00  0.00    +0.007 C 
ATOM     16  C   UNL     1     -10.411  -7.616  17.017  0.00  0.00    +0.007 C 
ENDBRANCH   6  10
BRANCH   8  14
ATOM     14  C   UNL     1     -11.943  -9.882  20.489  0.00  0.00    +0.163 C 
BRANCH  14   1
ATOM      1  O   UNL     1     -12.524 -10.846  21.344  0.00  0.00    -0.394 OA
ATOM     27  H   UNL     1     -13.237 -11.281  20.845  0.00  0.00    +0.209 HD
ENDBRANCH  14   1
ENDBRANCH   8  14
ENDBRANCH  13   9
BRANCH  13  18
ATOM      2  O   UNL     1      -5.598 -10.516  17.428  0.00  0.00    -0.420 OA
ATOM      4  N   UNL     1      -5.061 -11.583  19.319  0.00  0.00    -0.112 NA
ATOM      5  N   UNL     1      -3.995 -11.698  18.446  0.00  0.00    -0.107 NA
ATOM     18  C   UNL     1      -5.973 -10.887  18.682  0.00  0.00    +0.218 A 
ATOM     19  C   UNL     1      -4.353 -11.061  17.356  0.00  0.00    +0.248 A 
BRANCH  19  20
ATOM     20  C   UNL     1      -3.647 -10.854  16.124  0.00  0.00    +0.039 A 
ATOM     21  C   UNL     1      -4.329 -10.928  14.909  0.00  0.00    +0.017 A 
ATOM     22  C   UNL     1      -2.280 -10.578  16.141  0.00  0.00    +0.017 A 
ATOM     23  C   UNL     1      -3.644 -10.726  13.712  0.00  0.00    +0.046 A 
ATOM     24  C   UNL     1      -1.595 -10.376  14.944  0.00  0.00    +0.046 A 
ATOM     25  C   UNL     1      -2.276 -10.450  13.729  0.00  0.00    +0.120 A 
BRANCH  25   3
ATOM      3  O   UNL     1      -1.608 -10.250  12.560  0.00  0.00    -0.495 OA
ATOM     26  C   UNL     1      -2.395 -10.073  11.384  0.00  0.00    +0.277 C 
ENDBRANCH  25   3
ENDBRANCH  19  20
ENDBRANCH  13  18
TORSDOF 7
ENDMDL
MODEL 5
REMARK VINA RESULT:      -6.3     26.701     28.377
REMARK  Name = 45784123
REMARK  11 active torsions:
REMARK  status: ('A' for Active; 'I' for Inactive)
REMARK    1  A    between atoms: O_1  and  C_14
REMARK    2  A    between atoms: O_3  and  C_25
REMARK    3  A    between atoms: O_3  and  C_26
REMARK    4  A    between atoms: C_6  and  C_10
REMARK    5  A    between atoms: C_8  and  C_14
REMARK    6  A    between atoms: C_9  and  C_13
REMARK    7  A    between atoms: C_10  and  C_15
REMARK    8  A    between atoms: C_10  and  C_16
REMARK    9  A    between atoms: C_11  and  C_17
REMARK   10  A    between atoms: C_13  and  C_18
REMARK   11  A    between atoms: C_19  and  C_20
REMARK                            x       y       z     vdW  Elec       q    Type
REMARK                         _______ _______ _______ _____ _____    ______ ____
ROOT
ATOM     13  C   UNL     1     -12.763   9.948  20.199  0.00  0.00    +0.105 C 
ENDROOT
BRANCH  13   9
ATOM      6  C   UNL     1     -10.884   9.975  17.588  0.00  0.00    +0.001 C 
ATOM      7  C   UNL     1     -10.535  10.311  19.046  0.00  0.00    +0.012 C 
ATOM      8  C   UNL     1     -10.585   8.483  17.290  0.00  0.00    +0.040 C 
ATOM      9  C   UNL     1     -11.323   9.445  20.048  0.00  0.00    +0.024 C 
ATOM     11  C   UNL     1     -11.297   7.979  19.666  0.00  0.00    -0.073 C 
ATOM     12  C   UNL     1     -10.953   7.568  18.434  0.00  0.00    -0.022 C 
ATOM     17  C   UNL     1     -11.635   6.992  20.750  0.00  0.00    +0.039 C 
BRANCH   6  10
ATOM     10  C   UNL     1     -10.119  10.907  16.643  0.00  0.00    -0.013 C 
ATOM     15  C   UNL     1      -9.590  12.118  17.405  0.00  0.00    +0.007 C 
ATOM     16  C   UNL     1     -11.014  11.344  15.487  0.00  0.00    +0.007 C 
ENDBRANCH   6  10
BRANCH   8  14
ATOM     14  C   UNL     1     -11.298   8.021  16.015  0.00  0.00    +0.163 C 
BRANCH  14   1
ATOM      1  O   UNL     1     -10.356   7.356  15.198  0.00  0.00    -0.394 OA
ATOM     27  H   UNL     1     -10.152   6.506  15.626  0.00  0.00    +0.209 HD
ENDBRANCH  14   1
ENDBRANCH   8  14
ENDBRANCH  13   9
BRANCH  13  18
ATOM      2  O   UNL     1     -12.578  10.179  22.621  0.00  0.00    -0.420 OA
ATOM      4  N   UNL     1     -13.369  11.997  21.586  0.00  0.00    -0.112 NA
ATOM      5  N   UNL     1     -13.318  12.266  22.941  0.00  0.00    -0.107 NA
ATOM     18  C   UNL     1     -12.929  10.769  21.446  0.00  0.00    +0.218 A 
ATOM     19  C   UNL     1     -12.851  11.177  23.506  0.00  0.00    +0.248 A 
BRANCH  19  20
ATOM     20  C   UNL     1     -12.587  10.883  24.884  0.00  0.00    +0.039 A 
ATOM     21  C   UNL     1     -11.275  10.887  25.360  0.00  0.00    +0.017 A 
ATOM     22  C   UNL     1     -13.642  10.593  25.750  0.00  0.00    +0.017 A 
ATOM     23  C   UNL     1     -11.019  10.601  26.700  0.00  0.00    +0.046 A 
ATOM     24  C   UNL     1     -13.386  10.307  27.090  0.00  0.00    +0.046 A 
ATOM     25  C   UNL     1     -12.074  10.311  27.567  0.00  0.00    +0.120 A 
BRANCH  25   3
ATOM      3  O   UNL     1     -11.824  10.035  28.875  0.00  0.00    -0.495 OA
ATOM     26  C   UNL     1     -11.334  11.105  29.682  0.00  0.00    +0.277 C 
ENDBRANCH  25   3
ENDBRANCH  19  20
ENDBRANCH  13  18
TORSDOF 7
ENDMDL
MODEL 6
REMARK VINA RESULT:      -6.2     27.281     29.700
REMARK  Name = 45784123
REMARK  11 active torsions:
REMARK  status: ('A' for Active; 'I' for Inactive)
REMARK    1  A    between atoms: O_1  and  C_14
REMARK    2  A    between atoms: O_3  and  C_25
REMARK    3  A    between atoms: O_3  and  C_26
REMARK    4  A    between atoms: C_6  and  C_10
REMARK    5  A    between atoms: C_8  and  C_14
REMARK    6  A    between atoms: C_9  and  C_13
REMARK    7  A    between atoms: C_10  and  C_15
REMARK    8  A    between atoms: C_10  and  C_16
REMARK    9  A    between atoms: C_11  and  C_17
REMARK   10  A    between atoms: C_13  and  C_18
REMARK   11  A    between atoms: C_19  and  C_20
REMARK                            x       y       z     vdW  Elec       q    Type
REMARK                         _______ _______ _______ _____ _____    ______ ____
ROOT
ATOM     13  C   UNL     1      -4.578 -10.738  12.055  0.00  0.00    +0.105 C 
ENDROOT
BRANCH  13   9
ATOM      6  C   UNL     1      -6.405  -9.569   9.680  0.00  0.00    +0.001 C 
ATOM      7  C   UNL     1      -6.005  -8.920  11.014  0.00  0.00    +0.012 C 
ATOM      8  C   UNL     1      -5.407  -9.169   8.563  0.00  0.00    +0.040 C 
ATOM      9  C   UNL     1      -4.586  -9.328  11.457  0.00  0.00    +0.024 C 
ATOM     11  C   UNL     1      -3.588  -9.214  10.323  0.00  0.00    -0.073 C 
ATOM     12  C   UNL     1      -3.974  -9.131   9.037  0.00  0.00    -0.022 C 
ATOM     17  C   UNL     1      -2.134  -9.152  10.704  0.00  0.00    +0.039 C 
BRANCH   6  10
ATOM     10  C   UNL     1      -7.843  -9.179   9.325  0.00  0.00    -0.013 C 
ATOM     15  C   UNL     1      -7.895  -7.740   8.823  0.00  0.00    +0.007 C 
ATOM     16  C   UNL     1      -8.758  -9.365  10.531  0.00  0.00    +0.007 C 
ENDBRANCH   6  10
BRANCH   8  14
ATOM     14  C   UNL     1      -5.522 -10.108   7.357  0.00  0.00    +0.163 C 
BRANCH  14   1
ATOM      1  O   UNL     1      -6.044  -9.370   6.270  0.00  0.00    -0.394 OA
ATOM     27  H   UNL     1      -5.727  -8.455   6.365  0.00  0.00    +0.209 HD
ENDBRANCH  14   1
ENDBRANCH   8  14
ENDBRANCH  13   9
BRANCH  13  18
ATOM      2  O   UNL     1      -5.365 -10.739  14.365  0.00  0.00    -0.420 OA
ATOM      4  N   UNL     1      -3.140 -10.653  14.157  0.00  0.00    -0.112 NA
ATOM      5  N   UNL     1      -3.443 -10.646  15.506  0.00  0.00    -0.107 NA
ATOM     18  C   UNL     1      -4.291 -10.707  13.530  0.00  0.00    +0.218 A 
ATOM     19  C   UNL     1      -4.753 -10.697  15.580  0.00  0.00    +0.248 A 
BRANCH  19  20
ATOM     20  C   UNL     1      -5.621 -10.716  16.721  0.00  0.00    +0.039 A 
ATOM     21  C   UNL     1      -5.175 -11.258  17.928  0.00  0.00    +0.017 A 
ATOM     22  C   UNL     1      -6.910 -10.193  16.626  0.00  0.00    +0.017 A 
ATOM     23  C   UNL     1      -6.019 -11.276  19.037  0.00  0.00    +0.046 A 
ATOM     24  C   UNL     1      -7.754 -10.211  17.736  0.00  0.00    +0.046 A 
ATOM     25  C   UNL     1      -7.309 -10.752  18.942  0.00  0.00    +0.120 A 
BRANCH  25   3
ATOM      3  O   UNL     1      -8.131 -10.767  20.026  0.00  0.00    -0.495 OA
ATOM     26  C   UNL     1      -9.437 -11.310  19.843  0.00  0.00    +0.277 C 
ENDBRANCH  25   3
ENDBRANCH  19  20
ENDBRANCH  13  18
TORSDOF 7
ENDMDL
MODEL 7
REMARK VINA RESULT:      -6.2     27.509     29.371
REMARK  Name = 45784123
REMARK  11 active torsions:
REMARK  status: ('A' for Active; 'I' for Inactive)
REMARK    1  A    between atoms: O_1  and  C_14
REMARK    2  A    between atoms: O_3  and  C_25
REMARK    3  A    between atoms: O_3  and  C_26
REMARK    4  A    between atoms: C_6  and  C_10
REMARK    5  A    between atoms: C_8  and  C_14
REMARK    6  A    between atoms: C_9  and  C_13
REMARK    7  A    between atoms: C_10  and  C_15
REMARK    8  A    between atoms: C_10  and  C_16
REMARK    9  A    between atoms: C_11  and  C_17
REMARK   10  A    between atoms: C_13  and  C_18
REMARK   11  A    between atoms: C_19  and  C_20
REMARK                            x       y       z     vdW  Elec       q    Type
REMARK                         _______ _______ _______ _____ _____    ______ ____
ROOT
ATOM     13  C   UNL     1      -3.881 -10.702  16.595  0.00  0.00    +0.105 C 
ENDROOT
BRANCH  13   9
ATOM      6  C   UNL     1      -6.957 -11.645  16.656  0.00  0.00    +0.001 C 
ATOM      7  C   UNL     1      -5.705 -12.423  16.222  0.00  0.00    +0.012 C 
ATOM      8  C   UNL     1      -7.267 -11.910  18.151  0.00  0.00    +0.040 C 
ATOM      9  C   UNL     1      -4.465 -12.042  17.055  0.00  0.00    +0.024 C 
ATOM     11  C   UNL     1      -4.768 -12.022  18.539  0.00  0.00    -0.073 C 
ATOM     12  C   UNL     1      -6.026 -11.976  19.010  0.00  0.00    -0.022 C 
ATOM     17  C   UNL     1      -3.591 -12.099  19.471  0.00  0.00    +0.039 C 
BRANCH   6  10
ATOM     10  C   UNL     1      -8.137 -12.018  15.755  0.00  0.00    -0.013 C 
ATOM     15  C   UNL     1      -8.558 -13.463  16.001  0.00  0.00    +0.007 C 
ATOM     16  C   UNL     1      -7.776 -11.801  14.289  0.00  0.00    +0.007 C 
ENDBRANCH   6  10
BRANCH   8  14
ATOM     14  C   UNL     1      -8.224 -10.853  18.713  0.00  0.00    +0.163 C 
BRANCH  14   1
ATOM      1  O   UNL     1      -7.828 -10.559  20.038  0.00  0.00    -0.394 OA
ATOM     27  H   UNL     1      -8.633 -10.330  20.535  0.00  0.00    +0.209 HD
ENDBRANCH  14   1
ENDBRANCH   8  14
ENDBRANCH  13   9
BRANCH  13  18
ATOM      2  O   UNL     1      -4.021 -10.415  14.175  0.00  0.00    -0.420 OA
ATOM      4  N   UNL     1      -2.069 -11.244  14.888  0.00  0.00    -0.112 NA
ATOM      5  N   UNL     1      -2.010 -11.135  13.511  0.00  0.00    -0.107 NA
ATOM     18  C   UNL     1      -3.260 -10.813  15.231  0.00  0.00    +0.218 A 
ATOM     19  C   UNL     1      -3.170 -10.648  13.139  0.00  0.00    +0.248 A 
BRANCH  19  20
ATOM     20  C   UNL     1      -3.670 -10.328  11.833  0.00  0.00    +0.039 A 
ATOM     21  C   UNL     1      -4.942 -10.755  11.450  0.00  0.00    +0.017 A 
ATOM     22  C   UNL     1      -2.886  -9.590  10.947  0.00  0.00    +0.017 A 
ATOM     23  C   UNL     1      -5.429 -10.445  10.180  0.00  0.00    +0.046 A 
ATOM     24  C   UNL     1      -3.372  -9.279   9.678  0.00  0.00    +0.046 A 
ATOM     25  C   UNL     1      -4.644  -9.706   9.294  0.00  0.00    +0.120 A 
BRANCH  25   3
ATOM      3  O   UNL     1      -5.120  -9.399   8.057  0.00  0.00    -0.495 OA
ATOM     26  C   UNL     1      -6.439  -9.843   7.740  0.00  0.00    +0.277 C 
ENDBRANCH  25   3
ENDBRANCH  19  20
ENDBRANCH  13  18
TORSDOF 7
ENDMDL
MODEL 8
REMARK VINA RESULT:      -6.2     26.379     29.243
REMARK  Name = 45784123
REMARK  11 active torsions:
REMARK  status: ('A' for Active; 'I' for Inactive)
REMARK    1  A    between atoms: O_1  and  C_14
REMARK    2  A    between atoms: O_3  and  C_25
REMARK    3  A    between atoms: O_3  and  C_26
REMARK    4  A    between atoms: C_6  and  C_10
REMARK    5  A    between atoms: C_8  and  C_14
REMARK    6  A    between atoms: C_9  and  C_13
REMARK    7  A    between atoms: C_10  and  C_15
REMARK    8  A    between atoms: C_10  and  C_16
REMARK    9  A    between atoms: C_11  and  C_17
REMARK   10  A    between atoms: C_13  and  C_18
REMARK   11  A    between atoms: C_19  and  C_20
REMARK                            x       y       z     vdW  Elec       q    Type
REMARK                         _______ _______ _______ _____ _____    ______ ____
ROOT
ATOM     13  C   UNL     1     -10.636  10.298  19.250  0.00  0.00    +0.105 C 
ENDROOT
BRANCH  13   9
ATOM      6  C   UNL     1     -12.272   8.943  16.834  0.00  0.00    +0.001 C 
ATOM      7  C   UNL     1     -12.596  10.207  17.645  0.00  0.00    +0.012 C 
ATOM      8  C   UNL     1     -11.479   9.311  15.554  0.00  0.00    +0.040 C 
ATOM      9  C   UNL     1     -11.325  10.974  18.061  0.00  0.00    +0.024 C 
ATOM     11  C   UNL     1     -10.366  11.143  16.901  0.00  0.00    -0.073 C 
ATOM     12  C   UNL     1     -10.457  10.400  15.784  0.00  0.00    -0.022 C 
ATOM     17  C   UNL     1      -9.323  12.217  17.036  0.00  0.00    +0.039 C 
BRANCH   6  10
ATOM     10  C   UNL     1     -13.565   8.191  16.506  0.00  0.00    -0.013 C 
ATOM     15  C   UNL     1     -14.312   8.889  15.374  0.00  0.00    +0.007 C 
ATOM     16  C   UNL     1     -14.444   8.078  17.747  0.00  0.00    +0.007 C 
ENDBRANCH   6  10
BRANCH   8  14
ATOM     14  C   UNL     1     -10.788   8.079  14.959  0.00  0.00    +0.163 C 
BRANCH  14   1
ATOM      1  O   UNL     1     -10.131   7.391  16.005  0.00  0.00    -0.394 OA
ATOM     27  H   UNL     1     -10.769   7.299  16.733  0.00  0.00    +0.209 HD
ENDBRANCH  14   1
ENDBRANCH   8  14
ENDBRANCH  13   9
BRANCH  13  18
ATOM      2  O   UNL     1     -12.052   8.669  20.389  0.00  0.00    -0.420 OA
ATOM      4  N   UNL     1     -12.142  10.727  21.260  0.00  0.00    -0.112 NA
ATOM      5  N   UNL     1     -12.985   9.915  21.995  0.00  0.00    -0.107 NA
ATOM     18  C   UNL     1     -11.620   9.958  20.334  0.00  0.00    +0.218 A 
ATOM     19  C   UNL     1     -12.901   8.723  21.451  0.00  0.00    +0.248 A 
BRANCH  19  20
ATOM     20  C   UNL     1     -13.552   7.493  21.798  0.00  0.00    +0.039 A 
ATOM     21  C   UNL     1     -14.836   7.514  22.343  0.00  0.00    +0.017 A 
ATOM     22  C   UNL     1     -12.903   6.277  21.589  0.00  0.00    +0.017 A 
ATOM     23  C   UNL     1     -15.470   6.318  22.680  0.00  0.00    +0.046 A 
ATOM     24  C   UNL     1     -13.536   5.081  21.925  0.00  0.00    +0.046 A 
ATOM     25  C   UNL     1     -14.820   5.101  22.471  0.00  0.00    +0.120 A 
BRANCH  25   3
ATOM      3  O   UNL     1     -15.440   3.934  22.796  0.00  0.00    -0.495 OA
ATOM     26  C   UNL     1     -15.707   3.705  24.178  0.00  0.00    +0.277 C 
ENDBRANCH  25   3
ENDBRANCH  19  20
ENDBRANCH  13  18
TORSDOF 7
ENDMDL
MODEL 9
REMARK VINA RESULT:      -6.2     19.531     21.448
REMARK  Name = 45784123
REMARK  11 active torsions:
REMARK  status: ('A' for Active; 'I' for Inactive)
REMARK    1  A    between atoms: O_1  and  C_14
REMARK    2  A    between atoms: O_3  and  C_25
REMARK    3  A    between atoms: O_3  and  C_26
REMARK    4  A    between atoms: C_6  and  C_10
REMARK    5  A    between atoms: C_8  and  C_14
REMARK    6  A    between atoms: C_9  and  C_13
REMARK    7  A    between atoms: C_10  and  C_15
REMARK    8  A    between atoms: C_10  and  C_16
REMARK    9  A    between atoms: C_11  and  C_17
REMARK   10  A    between atoms: C_13  and  C_18
REMARK   11  A    between atoms: C_19  and  C_20
REMARK                            x       y       z     vdW  Elec       q    Type
REMARK                         _______ _______ _______ _____ _____    ______ ____
ROOT
ATOM     13  C   UNL     1      10.247   4.802   0.379  0.00  0.00    +0.105 C 
ENDROOT
BRANCH  13   9
ATOM      6  C   UNL     1       9.411   4.755  -2.728  0.00  0.00    +0.001 C 
ATOM      7  C   UNL     1      10.345   5.721  -1.982  0.00  0.00    +0.012 C 
ATOM      8  C   UNL     1      10.222   3.587  -3.346  0.00  0.00    +0.040 C 
ATOM      9  C   UNL     1      11.129   5.019  -0.855  0.00  0.00    +0.024 C 
ATOM     11  C   UNL     1      11.739   3.714  -1.323  0.00  0.00    -0.073 C 
ATOM     12  C   UNL     1      11.330   3.095  -2.445  0.00  0.00    -0.022 C 
ATOM     17  C   UNL     1      12.862   3.157  -0.493  0.00  0.00    +0.039 C 
BRANCH   6  10
ATOM     10  C   UNL     1       8.615   5.519  -3.790  0.00  0.00    -0.013 C 
ATOM     15  C   UNL     1       9.542   6.409  -4.611  0.00  0.00    +0.007 C 
ATOM     16  C   UNL     1       7.512   6.345  -3.136  0.00  0.00    +0.007 C 
ENDBRANCH   6  10
BRANCH   8  14
ATOM     14  C   UNL     1       9.307   2.415  -3.718  0.00  0.00    +0.163 C 
BRANCH  14   1
ATOM      1  O   UNL     1       9.297   2.292  -5.126  0.00  0.00    -0.394 OA
ATOM     27  H   UNL     1       8.587   2.867  -5.461  0.00  0.00    +0.209 HD
ENDBRANCH  14   1
ENDBRANCH   8  14
ENDBRANCH  13   9
BRANCH  13  18
ATOM      2  O   UNL     1      10.411   5.137   2.790  0.00  0.00    -0.420 OA
ATOM      4  N   UNL     1      11.461   6.695   1.576  0.00  0.00    -0.112 NA
ATOM      5  N   UNL     1      11.634   7.006   2.912  0.00  0.00    -0.107 NA
ATOM     18  C   UNL     1      10.742   5.598   1.553  0.00  0.00    +0.218 A 
ATOM     19  C   UNL     1      11.004   6.071   3.584  0.00  0.00    +0.248 A 
BRANCH  19  20
ATOM     20  C   UNL     1      10.849   5.883   4.997  0.00  0.00    +0.039 A 
ATOM     21  C   UNL     1      11.648   6.601   5.888  0.00  0.00    +0.017 A 
ATOM     22  C   UNL     1       9.899   4.984   5.481  0.00  0.00    +0.017 A 
ATOM     23  C   UNL     1      11.497   6.419   7.262  0.00  0.00    +0.046 A 
ATOM     24  C   UNL     1       9.748   4.802   6.855  0.00  0.00    +0.046 A 
ATOM     25  C   UNL     1      10.546   5.520   7.746  0.00  0.00    +0.120 A 
BRANCH  25   3
ATOM      3  O   UNL     1      10.396   5.345   9.087  0.00  0.00    -0.495 OA
ATOM     26  C   UNL     1       9.375   4.445   9.514  0.00  0.00    +0.277 C 
ENDBRANCH  25   3
ENDBRANCH  19  20
ENDBRANCH  13  18
TORSDOF 7
ENDMDL
MODEL 10
REMARK VINA RESULT:      -6.1     18.228     20.397
REMARK  Name = 45784123
REMARK  11 active torsions:
REMARK  status: ('A' for Active; 'I' for Inactive)
REMARK    1  A    between atoms: O_1  and  C_14
REMARK    2  A    between atoms: O_3  and  C_25
REMARK    3  A    between atoms: O_3  and  C_26
REMARK    4  A    between atoms: C_6  and  C_10
REMARK    5  A    between atoms: C_8  and  C_14
REMARK    6  A    between atoms: C_9  and  C_13
REMARK    7  A    between atoms: C_10  and  C_15
REMARK    8  A    between atoms: C_10  and  C_16
REMARK    9  A    between atoms: C_11  and  C_17
REMARK   10  A    between atoms: C_13  and  C_18
REMARK   11  A    between atoms: C_19  and  C_20
REMARK                            x       y       z     vdW  Elec       q    Type
REMARK                         _______ _______ _______ _____ _____    ______ ____
ROOT
ATOM     13  C   UNL     1      10.338   6.860   0.763  0.00  0.00    +0.105 C 
ENDROOT
BRANCH  13   9
ATOM      6  C   UNL     1      12.456   4.615  -0.143  0.00  0.00    +0.001 C 
ATOM      7  C   UNL     1      11.155   4.462   0.659  0.00  0.00    +0.012 C 
ATOM      8  C   UNL     1      12.189   4.394  -1.654  0.00  0.00    +0.040 C 
ATOM      9  C   UNL     1      10.070   5.459   0.204  0.00  0.00    +0.024 C 
ATOM     11  C   UNL     1       9.935   5.493  -1.304  0.00  0.00    -0.073 C 
ATOM     12  C   UNL     1      10.886   5.001  -2.118  0.00  0.00    -0.022 C 
ATOM     17  C   UNL     1       8.659   6.067  -1.856  0.00  0.00    +0.039 C 
BRANCH   6  10
ATOM     10  C   UNL     1      13.513   3.646   0.395  0.00  0.00    -0.013 C 
ATOM     15  C   UNL     1      13.046   3.026   1.708  0.00  0.00    +0.007 C 
ATOM     16  C   UNL     1      14.847   4.362   0.578  0.00  0.00    +0.007 C 
ENDBRANCH   6  10
BRANCH   8  14
ATOM     14  C   UNL     1      13.340   4.943  -2.504  0.00  0.00    +0.163 C 
BRANCH  14   1
ATOM      1  O   UNL     1      13.544   6.296  -2.152  0.00  0.00    -0.394 OA
ATOM     27  H   UNL     1      14.386   6.574  -2.552  0.00  0.00    +0.209 HD
ENDBRANCH  14   1
ENDBRANCH   8  14
ENDBRANCH  13   9
BRANCH  13  18
ATOM      2  O   UNL     1      10.059   6.255   3.111  0.00  0.00    -0.420 OA
ATOM      4  N   UNL     1       8.720   7.911   2.427  0.00  0.00    -0.112 NA
ATOM      5  N   UNL     1       8.457   7.674   3.763  0.00  0.00    -0.107 NA
ATOM     18  C   UNL     1       9.660   7.060   2.089  0.00  0.00    +0.218 A 
ATOM     19  C   UNL     1       9.262   6.700   4.120  0.00  0.00    +0.248 A 
BRANCH  19  20
ATOM     20  C   UNL     1       9.427   6.045   5.386  0.00  0.00    +0.039 A 
ATOM     21  C   UNL     1       9.268   6.766   6.570  0.00  0.00    +0.017 A 
ATOM     22  C   UNL     1       9.747   4.688   5.433  0.00  0.00    +0.017 A 
ATOM     23  C   UNL     1       9.429   6.130   7.800  0.00  0.00    +0.046 A 
ATOM     24  C   UNL     1       9.908   4.052   6.663  0.00  0.00    +0.046 A 
ATOM     25  C   UNL     1       9.749   4.772   7.847  0.00  0.00    +0.120 A 
BRANCH  25   3
ATOM      3  O   UNL     1       9.902   4.150   9.048  0.00  0.00    -0.495 OA
ATOM     26  C   UNL     1       9.099   4.620  10.129  0.00  0.00    +0.277 C 
ENDBRANCH  25   3
ENDBRANCH  19  20
ENDBRANCH  13  18
TORSDOF 7
ENDMDL
