MODEL 1
REMARK VINA RESULT:      -6.7      0.000      0.000
REMARK  Name = 45361093
REMARK  6 active torsions:
REMARK  status: ('A' for Active; 'I' for Inactive)
REMARK    1  A    between atoms: N_5  and  C_20
REMARK    2  A    between atoms: N_6  and  C_19
REMARK    3  A    between atoms: C_15  and  C_18
REMARK    4  A    between atoms: C_18  and  C_21
REMARK    5  A    between atoms: C_19  and  C_22
REMARK    6  A    between atoms: C_21  and  C_23
REMARK                            x       y       z     vdW  Elec       q    Type
REMARK                         _______ _______ _______ _____ _____    ______ ____
ROOT
ATOM      2  O   UNL     1      18.544   6.071  19.440  0.00  0.00    -0.274 OA
ATOM      5  N   UNL     1      16.294   9.173  19.995  0.00  0.00    -0.296 NA
ATOM      6  N   UNL     1      19.089   7.501  21.665  0.00  0.00    -0.284 NA
ATOM      7  N   UNL     1      16.274   6.317  19.594  0.00  0.00    -0.312 N 
ATOM     11  C   UNL     1      17.116   8.828  21.177  0.00  0.00    +0.084 C 
ATOM     12  C   UNL     1      17.666   7.376  21.298  0.00  0.00    +0.161 C 
ATOM     13  C   UNL     1      18.398   9.669  21.316  0.00  0.00    +0.036 C 
ATOM     14  C   UNL     1      19.270   8.834  22.229  0.00  0.00    +0.087 C 
ATOM     15  C   UNL     1      15.010   8.426  19.896  0.00  0.00    +0.074 C 
ATOM     16  C   UNL     1      17.568   6.540  20.025  0.00  0.00    +0.232 C 
ATOM     17  C   UNL     1      15.110   6.921  20.212  0.00  0.00    +0.123 C 
ATOM     20  C   UNL     1      16.046  10.624  19.937  0.00  0.00    +0.105 C 
ATOM     29  H   UNL     1      16.136   5.703  18.797  0.00  0.00    +0.149 HD
ENDROOT
BRANCH  15  18
ATOM     18  C   UNL     1      14.413   8.565  18.480  0.00  0.00    +0.029 C 
BRANCH  18  21
ATOM     21  C   UNL     1      13.064   9.258  18.500  0.00  0.00    +0.097 C 
BRANCH  21  23
ATOM      3  O   UNL     1      11.701   7.340  18.790  0.00  0.00    -0.276 OA
ATOM      4  O   UNL     1      11.047   9.653  23.111  0.00  0.00    -0.377 OA
ATOM      8  N   UNL     1      11.535   8.986  20.417  0.00  0.00    -0.297 N 
ATOM     23  C   UNL     1      12.040   8.437  19.241  0.00  0.00    +0.216 C 
ATOM     25  C   UNL     1      10.540   8.254  21.200  0.00  0.00    +0.136 C 
ATOM     26  C   UNL     1      11.817  10.337  20.914  0.00  0.00    +0.136 C 
ATOM     27  C   UNL     1      10.893   8.298  22.680  0.00  0.00    +0.179 C 
ATOM     28  C   UNL     1      12.113  10.298  22.410  0.00  0.00    +0.179 C 
ENDBRANCH  21  23
ENDBRANCH  18  21
ENDBRANCH  15  18
BRANCH   6  19
ATOM     19  C   UNL     1      19.545   6.456  22.572  0.00  0.00    +0.143 C 
BRANCH  19  22
ATOM      1  S   UNL     1      22.989   5.253  20.988  0.00  0.00    +0.028 S 
ATOM      9  N   UNL     1      21.487   4.956  22.971  0.00  0.00    -0.145 NA
ATOM     10  N   UNL     1      22.636   4.541  22.463  0.00  0.00    -0.110 NA
ATOM     22  C   UNL     1      20.869   5.880  22.142  0.00  0.00    +0.086 A 
ATOM     24  C   UNL     1      21.548   6.184  20.980  0.00  0.00    +0.093 A 
ENDBRANCH  19  22
ENDBRANCH   6  19
TORSDOF 5
ENDMDL
MODEL 2
REMARK VINA RESULT:      -6.2      2.522      4.036
REMARK  Name = 45361093
REMARK  6 active torsions:
REMARK  status: ('A' for Active; 'I' for Inactive)
REMARK    1  A    between atoms: N_5  and  C_20
REMARK    2  A    between atoms: N_6  and  C_19
REMARK    3  A    between atoms: C_15  and  C_18
REMARK    4  A    between atoms: C_18  and  C_21
REMARK    5  A    between atoms: C_19  and  C_22
REMARK    6  A    between atoms: C_21  and  C_23
REMARK                            x       y       z     vdW  Elec       q    Type
REMARK                         _______ _______ _______ _____ _____    ______ ____
ROOT
ATOM      2  O   UNL     1      20.026   6.362  23.932  0.00  0.00    -0.274 OA
ATOM      5  N   UNL     1      18.164   6.597  20.545  0.00  0.00    -0.296 NA
ATOM      6  N   UNL     1      21.421   5.487  21.791  0.00  0.00    -0.284 NA
ATOM      7  N   UNL     1      19.049   8.115  22.833  0.00  0.00    -0.312 N 
ATOM     11  C   UNL     1      19.607   6.302  20.399  0.00  0.00    +0.084 C 
ATOM     12  C   UNL     1      20.560   6.665  21.576  0.00  0.00    +0.161 C 
ATOM     13  C   UNL     1      19.921   4.810  20.181  0.00  0.00    +0.036 C 
ATOM     14  C   UNL     1      21.382   4.698  20.565  0.00  0.00    +0.087 C 
ATOM     15  C   UNL     1      17.840   8.045  20.672  0.00  0.00    +0.074 C 
ATOM     16  C   UNL     1      19.863   7.000  22.892  0.00  0.00    +0.232 C 
ATOM     17  C   UNL     1      18.773   8.838  21.607  0.00  0.00    +0.123 C 
ATOM     20  C   UNL     1      17.393   5.996  19.443  0.00  0.00    +0.105 C 
ATOM     29  H   UNL     1      18.618   8.437  23.694  0.00  0.00    +0.149 HD
ENDROOT
BRANCH  15  18
ATOM     18  C   UNL     1      16.397   8.232  21.186  0.00  0.00    +0.029 C 
BRANCH  18  21
ATOM     21  C   UNL     1      15.514   8.918  20.161  0.00  0.00    +0.097 C 
BRANCH  21  23
ATOM      3  O   UNL     1      13.807   7.381  20.745  0.00  0.00    -0.276 OA
ATOM      4  O   UNL     1      12.239   8.933  16.319  0.00  0.00    -0.377 OA
ATOM      8  N   UNL     1      13.761   8.208  18.577  0.00  0.00    -0.297 N 
ATOM     23  C   UNL     1      14.286   8.096  19.862  0.00  0.00    +0.216 C 
ATOM     25  C   UNL     1      12.568   7.448  18.204  0.00  0.00    +0.136 C 
ATOM     26  C   UNL     1      14.375   8.946  17.468  0.00  0.00    +0.136 C 
ATOM     27  C   UNL     1      11.591   8.335  17.445  0.00  0.00    +0.179 C 
ATOM     28  C   UNL     1      13.322   9.768  16.734  0.00  0.00    +0.179 C 
ENDBRANCH  21  23
ENDBRANCH  18  21
ENDBRANCH  15  18
BRANCH   6  19
ATOM     19  C   UNL     1      22.783   5.831  22.178  0.00  0.00    +0.143 C 
BRANCH  19  22
ATOM      1  S   UNL     1      24.818   3.316  24.491  0.00  0.00    +0.028 S 
ATOM      9  N   UNL     1      22.503   4.106  23.947  0.00  0.00    -0.145 NA
ATOM     10  N   UNL     1      23.160   3.262  24.725  0.00  0.00    -0.110 NA
ATOM     22  C   UNL     1      23.367   4.822  23.131  0.00  0.00    +0.086 A 
ATOM     24  C   UNL     1      24.707   4.528  23.282  0.00  0.00    +0.093 A 
ENDBRANCH  19  22
ENDBRANCH   6  19
TORSDOF 5
ENDMDL
MODEL 3
REMARK VINA RESULT:      -6.2      2.135      3.432
REMARK  Name = 45361093
REMARK  6 active torsions:
REMARK  status: ('A' for Active; 'I' for Inactive)
REMARK    1  A    between atoms: N_5  and  C_20
REMARK    2  A    between atoms: N_6  and  C_19
REMARK    3  A    between atoms: C_15  and  C_18
REMARK    4  A    between atoms: C_18  and  C_21
REMARK    5  A    between atoms: C_19  and  C_22
REMARK    6  A    between atoms: C_21  and  C_23
REMARK                            x       y       z     vdW  Elec       q    Type
REMARK                         _______ _______ _______ _____ _____    ______ ____
ROOT
ATOM      2  O   UNL     1      15.511   6.888  18.625  0.00  0.00    -0.274 OA
ATOM      5  N   UNL     1      14.186   9.038  21.560  0.00  0.00    -0.296 NA
ATOM      6  N   UNL     1      17.318   7.433  20.557  0.00  0.00    -0.284 NA
ATOM      7  N   UNL     1      13.755   6.609  20.065  0.00  0.00    -0.312 N 
ATOM     11  C   UNL     1      15.510   8.433  21.830  0.00  0.00    +0.084 C 
ATOM     12  C   UNL     1      15.935   7.183  21.004  0.00  0.00    +0.161 C 
ATOM     13  C   UNL     1      16.694   9.390  21.597  0.00  0.00    +0.036 C 
ATOM     14  C   UNL     1      17.874   8.455  21.436  0.00  0.00    +0.087 C 
ATOM     15  C   UNL     1      13.029   8.151  21.863  0.00  0.00    +0.074 C 
ATOM     16  C   UNL     1      15.075   6.897  19.776  0.00  0.00    +0.232 C 
ATOM     17  C   UNL     1      13.193   6.691  21.399  0.00  0.00    +0.123 C 
ATOM     20  C   UNL     1      14.044  10.322  22.268  0.00  0.00    +0.105 C 
ATOM     29  H   UNL     1      13.148   6.333  19.299  0.00  0.00    +0.149 HD
ENDROOT
BRANCH  15  18
ATOM     18  C   UNL     1      11.742   8.703  21.214  0.00  0.00    +0.029 C 
BRANCH  18  21
ATOM     21  C   UNL     1      12.045   9.700  20.112  0.00  0.00    +0.097 C 
BRANCH  21  23
ATOM      3  O   UNL     1      11.292   8.160  18.475  0.00  0.00    -0.276 OA
ATOM      4  O   UNL     1      14.703  10.681  15.933  0.00  0.00    -0.377 OA
ATOM      8  N   UNL     1      13.159   9.425  17.928  0.00  0.00    -0.297 N 
ATOM     23  C   UNL     1      12.125   9.020  18.769  0.00  0.00    +0.216 C 
ATOM     25  C   UNL     1      13.308   8.819  16.605  0.00  0.00    +0.136 C 
ATOM     26  C   UNL     1      14.239  10.348  18.291  0.00  0.00    +0.136 C 
ATOM     27  C   UNL     1      13.571   9.892  15.557  0.00  0.00    +0.179 C 
ATOM     28  C   UNL     1      14.470  11.357  17.171  0.00  0.00    +0.179 C 
ENDBRANCH  21  23
ENDBRANCH  18  21
ENDBRANCH  15  18
BRANCH   6  19
ATOM     19  C   UNL     1      18.140   6.231  20.526  0.00  0.00    +0.143 C 
BRANCH  19  22
ATOM      1  S   UNL     1      21.779   6.896  21.985  0.00  0.00    +0.028 S 
ATOM      9  N   UNL     1      19.479   6.132  22.619  0.00  0.00    -0.145 NA
ATOM     10  N   UNL     1      20.682   6.346  23.125  0.00  0.00    -0.110 NA
ATOM     22  C   UNL     1      19.440   6.421  21.263  0.00  0.00    +0.086 A 
ATOM     24  C   UNL     1      20.627   6.864  20.715  0.00  0.00    +0.093 A 
ENDBRANCH  19  22
ENDBRANCH   6  19
TORSDOF 5
ENDMDL
MODEL 4
REMARK VINA RESULT:      -6.2     27.303     29.566
REMARK  Name = 45361093
REMARK  6 active torsions:
REMARK  status: ('A' for Active; 'I' for Inactive)
REMARK    1  A    between atoms: N_5  and  C_20
REMARK    2  A    between atoms: N_6  and  C_19
REMARK    3  A    between atoms: C_15  and  C_18
REMARK    4  A    between atoms: C_18  and  C_21
REMARK    5  A    between atoms: C_19  and  C_22
REMARK    6  A    between atoms: C_21  and  C_23
REMARK                            x       y       z     vdW  Elec       q    Type
REMARK                         _______ _______ _______ _____ _____    ______ ____
ROOT
ATOM      2  O   UNL     1      -1.245 -10.560  15.479  0.00  0.00    -0.274 OA
ATOM      5  N   UNL     1      -4.328 -12.703  16.427  0.00  0.00    -0.296 NA
ATOM      6  N   UNL     1      -2.199 -12.136  13.504  0.00  0.00    -0.284 NA
ATOM      7  N   UNL     1      -3.305 -10.008  16.309  0.00  0.00    -0.312 N 
ATOM     11  C   UNL     1      -4.051 -12.687  14.972  0.00  0.00    +0.084 C 
ATOM     12  C   UNL     1      -3.202 -11.518  14.393  0.00  0.00    +0.161 C 
ATOM     13  C   UNL     1      -3.284 -13.923  14.468  0.00  0.00    +0.036 C 
ATOM     14  C   UNL     1      -2.698 -13.460  13.151  0.00  0.00    +0.087 C 
ATOM     15  C   UNL     1      -5.144 -11.556  16.912  0.00  0.00    +0.074 C 
ATOM     16  C   UNL     1      -2.470 -10.674  15.432  0.00  0.00    +0.232 C 
ATOM     17  C   UNL     1      -4.744 -10.185  16.331  0.00  0.00    +0.123 C 
ATOM     20  C   UNL     1      -4.950 -13.976  16.827  0.00  0.00    +0.105 C 
ATOM     29  H   UNL     1      -2.884  -9.368  16.975  0.00  0.00    +0.149 HD
ENDROOT
BRANCH  15  18
ATOM     18  C   UNL     1      -5.065 -11.450  18.450  0.00  0.00    +0.029 C 
BRANCH  18  21
ATOM     21  C   UNL     1      -6.017 -10.402  18.994  0.00  0.00    +0.097 C 
BRANCH  21  23
ATOM      3  O   UNL     1      -7.527 -11.865  20.088  0.00  0.00    -0.276 OA
ATOM      4  O   UNL     1     -10.641  -8.996  17.534  0.00  0.00    -0.377 OA
ATOM      8  N   UNL     1      -8.427 -10.467  18.469  0.00  0.00    -0.297 N 
ATOM     23  C   UNL     1      -7.386 -10.983  19.238  0.00  0.00    +0.216 C 
ATOM     25  C   UNL     1      -9.788 -10.972  18.645  0.00  0.00    +0.136 C 
ATOM     26  C   UNL     1      -8.277  -9.513  17.365  0.00  0.00    +0.136 C 
ATOM     27  C   UNL     1     -10.779  -9.817  18.696  0.00  0.00    +0.179 C 
ATOM     28  C   UNL     1      -9.335  -8.420  17.465  0.00  0.00    +0.179 C 
ENDBRANCH  21  23
ENDBRANCH  18  21
ENDBRANCH  15  18
BRANCH   6  19
ATOM     19  C   UNL     1      -1.898 -11.332  12.327  0.00  0.00    +0.143 C 
BRANCH  19  22
ATOM      1  S   UNL     1      -5.027 -11.117   9.882  0.00  0.00    +0.028 S 
ATOM      9  N   UNL     1      -3.855  -9.915  11.742  0.00  0.00    -0.145 NA
ATOM     10  N   UNL     1      -4.902  -9.823  10.937  0.00  0.00    -0.110 NA
ATOM     22  C   UNL     1      -3.127 -11.070  11.497  0.00  0.00    +0.086 A 
ATOM     24  C   UNL     1      -3.618 -11.880  10.493  0.00  0.00    +0.093 A 
ENDBRANCH  19  22
ENDBRANCH   6  19
TORSDOF 5
ENDMDL
MODEL 5
REMARK VINA RESULT:      -6.1      4.043      8.929
REMARK  Name = 45361093
REMARK  6 active torsions:
REMARK  status: ('A' for Active; 'I' for Inactive)
REMARK    1  A    between atoms: N_5  and  C_20
REMARK    2  A    between atoms: N_6  and  C_19
REMARK    3  A    between atoms: C_15  and  C_18
REMARK    4  A    between atoms: C_18  and  C_21
REMARK    5  A    between atoms: C_19  and  C_22
REMARK    6  A    between atoms: C_21  and  C_23
REMARK                            x       y       z     vdW  Elec       q    Type
REMARK                         _______ _______ _______ _____ _____    ______ ____
ROOT
ATOM      2  O   UNL     1      13.531  11.644  20.636  0.00  0.00    -0.274 OA
ATOM      5  N   UNL     1      13.221   7.800  20.987  0.00  0.00    -0.296 NA
ATOM      6  N   UNL     1      11.688  10.799  22.421  0.00  0.00    -0.284 NA
ATOM      7  N   UNL     1      15.060  10.018  21.139  0.00  0.00    -0.312 N 
ATOM     11  C   UNL     1      12.506   8.544  22.049  0.00  0.00    +0.084 C 
ATOM     12  C   UNL     1      12.934  10.012  22.341  0.00  0.00    +0.161 C 
ATOM     13  C   UNL     1      10.994   8.694  21.798  0.00  0.00    +0.036 C 
ATOM     14  C   UNL     1      10.605   9.858  22.684  0.00  0.00    +0.087 C 
ATOM     15  C   UNL     1      14.667   7.575  21.258  0.00  0.00    +0.074 C 
ATOM     16  C   UNL     1      13.837  10.644  21.286  0.00  0.00    +0.232 C 
ATOM     17  C   UNL     1      15.418   8.794  21.829  0.00  0.00    +0.123 C 
ATOM     20  C   UNL     1      12.549   6.521  20.702  0.00  0.00    +0.105 C 
ATOM     29  H   UNL     1      15.737  10.436  20.509  0.00  0.00    +0.149 HD
ENDROOT
BRANCH  15  18
ATOM     18  C   UNL     1      15.397   7.141  19.969  0.00  0.00    +0.029 C 
BRANCH  18  21
ATOM     21  C   UNL     1      16.875   7.483  20.013  0.00  0.00    +0.097 C 
BRANCH  21  23
ATOM      3  O   UNL     1      17.454   5.635  18.646  0.00  0.00    -0.276 OA
ATOM      4  O   UNL     1      21.312   5.799  21.735  0.00  0.00    -0.377 OA
ATOM      8  N   UNL     1      18.778   5.996  20.517  0.00  0.00    -0.297 N 
ATOM     23  C   UNL     1      17.721   6.287  19.658  0.00  0.00    +0.216 C 
ATOM     25  C   UNL     1      19.653   4.856  20.244  0.00  0.00    +0.136 C 
ATOM     26  C   UNL     1      19.048   6.670  21.792  0.00  0.00    +0.136 C 
ATOM     27  C   UNL     1      21.111   5.250  20.430  0.00  0.00    +0.179 C 
ATOM     28  C   UNL     1      20.534   6.984  21.918  0.00  0.00    +0.179 C 
ENDBRANCH  21  23
ENDBRANCH  18  21
ENDBRANCH  15  18
BRANCH   6  19
ATOM     19  C   UNL     1      11.742  11.864  23.413  0.00  0.00    +0.143 C 
BRANCH  19  22
ATOM      1  S   UNL     1       9.207  14.905  23.032  0.00  0.00    +0.028 S 
ATOM      9  N   UNL     1      10.691  13.363  21.730  0.00  0.00    -0.145 NA
ATOM     10  N   UNL     1       9.851  14.373  21.579  0.00  0.00    -0.110 NA
ATOM     22  C   UNL     1      10.820  13.003  23.063  0.00  0.00    +0.086 A 
ATOM     24  C   UNL     1      10.071  13.745  23.954  0.00  0.00    +0.093 A 
ENDBRANCH  19  22
ENDBRANCH   6  19
TORSDOF 5
ENDMDL
MODEL 6
REMARK VINA RESULT:      -6.1     27.807     30.228
REMARK  Name = 45361093
REMARK  6 active torsions:
REMARK  status: ('A' for Active; 'I' for Inactive)
REMARK    1  A    between atoms: N_5  and  C_20
REMARK    2  A    between atoms: N_6  and  C_19
REMARK    3  A    between atoms: C_15  and  C_18
REMARK    4  A    between atoms: C_18  and  C_21
REMARK    5  A    between atoms: C_19  and  C_22
REMARK    6  A    between atoms: C_21  and  C_23
REMARK                            x       y       z     vdW  Elec       q    Type
REMARK                         _______ _______ _______ _____ _____    ______ ____
ROOT
ATOM      2  O   UNL     1      -6.444  -9.461  16.391  0.00  0.00    -0.274 OA
ATOM      5  N   UNL     1      -4.317 -12.460  15.177  0.00  0.00    -0.296 NA
ATOM      6  N   UNL     1      -6.934 -11.800  17.649  0.00  0.00    -0.284 NA
ATOM      7  N   UNL     1      -4.183  -9.782  16.241  0.00  0.00    -0.312 N 
ATOM     11  C   UNL     1      -5.055 -12.736  16.430  0.00  0.00    +0.084 C 
ATOM     12  C   UNL     1      -5.528 -11.529  17.292  0.00  0.00    +0.161 C 
ATOM     13  C   UNL     1      -6.366 -13.518  16.225  0.00  0.00    +0.036 C 
ATOM     14  C   UNL     1      -7.147 -13.234  17.491  0.00  0.00    +0.087 C 
ATOM     15  C   UNL     1      -3.006 -11.781  15.370  0.00  0.00    +0.074 C 
ATOM     16  C   UNL     1      -5.460 -10.172  16.596  0.00  0.00    +0.232 C 
ATOM     17  C   UNL     1      -3.017 -10.630  16.396  0.00  0.00    +0.123 C 
ATOM     20  C   UNL     1      -4.142 -13.694  14.391  0.00  0.00    +0.105 C 
ATOM     29  H   UNL     1      -4.060  -8.856  15.845  0.00  0.00    +0.149 HD
ENDROOT
BRANCH  15  18
ATOM     18  C   UNL     1      -2.494 -11.206  14.032  0.00  0.00    +0.029 C 
BRANCH  18  21
ATOM     21  C   UNL     1      -3.619 -10.620  13.200  0.00  0.00    +0.097 C 
BRANCH  21  23
ATOM      3  O   UNL     1      -1.967 -10.455  11.508  0.00  0.00    -0.276 OA
ATOM      4  O   UNL     1      -5.992  -8.916   9.082  0.00  0.00    -0.377 OA
ATOM      8  N   UNL     1      -4.045  -9.545  11.020  0.00  0.00    -0.297 N 
ATOM     23  C   UNL     1      -3.128 -10.202  11.837  0.00  0.00    +0.216 C 
ATOM     25  C   UNL     1      -3.653  -9.109   9.680  0.00  0.00    +0.136 C 
ATOM     26  C   UNL     1      -5.389  -9.116  11.423  0.00  0.00    +0.136 C 
ATOM     27  C   UNL     1      -4.735  -9.461   8.670  0.00  0.00    +0.179 C 
ATOM     28  C   UNL     1      -6.401  -9.463  10.337  0.00  0.00    +0.179 C 
ENDBRANCH  21  23
ENDBRANCH  18  21
ENDBRANCH  15  18
BRANCH   6  19
ATOM     19  C   UNL     1      -7.290 -11.337  18.984  0.00  0.00    +0.143 C 
BRANCH  19  22
ATOM      1  S   UNL     1     -10.934  -9.792  18.601  0.00  0.00    +0.028 S 
ATOM      9  N   UNL     1      -9.415 -10.958  20.217  0.00  0.00    -0.145 NA
ATOM     10  N   UNL     1     -10.632 -10.450  20.112  0.00  0.00    -0.110 NA
ATOM     22  C   UNL     1      -8.700 -10.812  19.038  0.00  0.00    +0.086 A 
ATOM     24  C   UNL     1      -9.373 -10.184  18.009  0.00  0.00    +0.093 A 
ENDBRANCH  19  22
ENDBRANCH   6  19
TORSDOF 5
ENDMDL
MODEL 7
REMARK VINA RESULT:      -6.1      3.586      9.278
REMARK  Name = 45361093
REMARK  6 active torsions:
REMARK  status: ('A' for Active; 'I' for Inactive)
REMARK    1  A    between atoms: N_5  and  C_20
REMARK    2  A    between atoms: N_6  and  C_19
REMARK    3  A    between atoms: C_15  and  C_18
REMARK    4  A    between atoms: C_18  and  C_21
REMARK    5  A    between atoms: C_19  and  C_22
REMARK    6  A    between atoms: C_21  and  C_23
REMARK                            x       y       z     vdW  Elec       q    Type
REMARK                         _______ _______ _______ _____ _____    ______ ____
ROOT
ATOM      2  O   UNL     1      18.158   9.623  20.873  0.00  0.00    -0.274 OA
ATOM      5  N   UNL     1      20.027   6.232  20.916  0.00  0.00    -0.296 NA
ATOM      6  N   UNL     1      16.643   7.469  20.273  0.00  0.00    -0.284 NA
ATOM      7  N   UNL     1      19.384   8.563  22.489  0.00  0.00    -0.312 N 
ATOM     11  C   UNL     1      18.556   6.087  20.843  0.00  0.00    +0.084 C 
ATOM     12  C   UNL     1      17.671   7.278  21.314  0.00  0.00    +0.161 C 
ATOM     13  C   UNL     1      18.022   5.833  19.421  0.00  0.00    +0.036 C 
ATOM     14  C   UNL     1      16.562   6.222  19.519  0.00  0.00    +0.087 C 
ATOM     15  C   UNL     1      20.564   6.393  22.295  0.00  0.00    +0.074 C 
ATOM     16  C   UNL     1      18.412   8.598  21.507  0.00  0.00    +0.232 C 
ATOM     17  C   UNL     1      19.762   7.354  23.194  0.00  0.00    +0.123 C 
ATOM     20  C   UNL     1      20.697   5.111  20.235  0.00  0.00    +0.105 C 
ATOM     29  H   UNL     1      19.860   9.429  22.720  0.00  0.00    +0.149 HD
ENDROOT
BRANCH  15  18
ATOM     18  C   UNL     1      22.020   6.904  22.251  0.00  0.00    +0.029 C 
BRANCH  18  21
ATOM     21  C   UNL     1      22.865   6.301  23.357  0.00  0.00    +0.097 C 
BRANCH  21  23
ATOM      3  O   UNL     1      22.086   4.200  24.130  0.00  0.00    -0.276 OA
ATOM      4  O   UNL     1      24.526   2.882  20.035  0.00  0.00    -0.377 OA
ATOM      8  N   UNL     1      23.594   4.163  22.365  0.00  0.00    -0.297 N 
ATOM     23  C   UNL     1      22.809   4.795  23.327  0.00  0.00    +0.216 C 
ATOM     25  C   UNL     1      23.595   2.704  22.264  0.00  0.00    +0.136 C 
ATOM     26  C   UNL     1      24.558   4.828  21.482  0.00  0.00    +0.136 C 
ATOM     27  C   UNL     1      23.487   2.274  20.807  0.00  0.00    +0.179 C 
ATOM     28  C   UNL     1      24.415   4.307  20.057  0.00  0.00    +0.179 C 
ENDBRANCH  21  23
ENDBRANCH  18  21
ENDBRANCH  15  18
BRANCH   6  19
ATOM     19  C   UNL     1      15.349   7.872  20.806  0.00  0.00    +0.143 C 
BRANCH  19  22
ATOM      1  S   UNL     1      12.774   8.160  17.789  0.00  0.00    +0.028 S 
ATOM      9  N   UNL     1      13.255   6.889  19.894  0.00  0.00    -0.145 NA
ATOM     10  N   UNL     1      12.385   6.968  18.900  0.00  0.00    -0.110 NA
ATOM     22  C   UNL     1      14.270   7.824  19.756  0.00  0.00    +0.086 A 
ATOM     24  C   UNL     1      14.185   8.634  18.641  0.00  0.00    +0.093 A 
ENDBRANCH  19  22
ENDBRANCH   6  19
TORSDOF 5
ENDMDL
MODEL 8
REMARK VINA RESULT:      -6.1      2.031      3.282
REMARK  Name = 45361093
REMARK  6 active torsions:
REMARK  status: ('A' for Active; 'I' for Inactive)
REMARK    1  A    between atoms: N_5  and  C_20
REMARK    2  A    between atoms: N_6  and  C_19
REMARK    3  A    between atoms: C_15  and  C_18
REMARK    4  A    between atoms: C_18  and  C_21
REMARK    5  A    between atoms: C_19  and  C_22
REMARK    6  A    between atoms: C_21  and  C_23
REMARK                            x       y       z     vdW  Elec       q    Type
REMARK                         _______ _______ _______ _____ _____    ______ ____
ROOT
ATOM      2  O   UNL     1      19.969   6.325  23.824  0.00  0.00    -0.274 OA
ATOM      5  N   UNL     1      18.062   6.452  20.456  0.00  0.00    -0.296 NA
ATOM      6  N   UNL     1      21.369   5.469  21.679  0.00  0.00    -0.284 NA
ATOM      7  N   UNL     1      18.921   8.030  22.714  0.00  0.00    -0.312 N 
ATOM     11  C   UNL     1      19.513   6.204  20.298  0.00  0.00    +0.084 C 
ATOM     12  C   UNL     1      20.466   6.615  21.458  0.00  0.00    +0.161 C 
ATOM     13  C   UNL     1      19.875   4.721  20.095  0.00  0.00    +0.036 C 
ATOM     14  C   UNL     1      21.342   4.663  20.464  0.00  0.00    +0.087 C 
ATOM     15  C   UNL     1      17.691   7.890  20.567  0.00  0.00    +0.074 C 
ATOM     16  C   UNL     1      19.772   6.944  22.778  0.00  0.00    +0.232 C 
ATOM     17  C   UNL     1      18.607   8.727  21.482  0.00  0.00    +0.123 C 
ATOM     20  C   UNL     1      17.300   5.811  19.371  0.00  0.00    +0.105 C 
ATOM     29  H   UNL     1      18.489   8.349  23.575  0.00  0.00    +0.149 HD
ENDROOT
BRANCH  15  18
ATOM     18  C   UNL     1      16.249   8.036  21.096  0.00  0.00    +0.029 C 
BRANCH  18  21
ATOM     21  C   UNL     1      15.368   8.810  20.134  0.00  0.00    +0.097 C 
BRANCH  21  23
ATOM      3  O   UNL     1      14.184   7.040  19.092  0.00  0.00    -0.276 OA
ATOM      4  O   UNL     1      10.673   8.983  21.981  0.00  0.00    -0.377 OA
ATOM      8  N   UNL     1      12.926   8.529  20.352  0.00  0.00    -0.297 N 
ATOM     23  C   UNL     1      14.112   8.043  19.806  0.00  0.00    +0.216 C 
ATOM     25  C   UNL     1      11.662   7.843  20.088  0.00  0.00    +0.136 C 
ATOM     26  C   UNL     1      12.785   9.785  21.097  0.00  0.00    +0.136 C 
ATOM     27  C   UNL     1      10.857   7.703  21.372  0.00  0.00    +0.179 C 
ATOM     28  C   UNL     1      11.927   9.567  22.339  0.00  0.00    +0.179 C 
ENDBRANCH  21  23
ENDBRANCH  18  21
ENDBRANCH  15  18
BRANCH   6  19
ATOM     19  C   UNL     1      22.722   5.863  22.046  0.00  0.00    +0.143 C 
BRANCH  19  22
ATOM      1  S   UNL     1      24.876   3.432  24.341  0.00  0.00    +0.028 S 
ATOM      9  N   UNL     1      22.529   4.151  23.837  0.00  0.00    -0.145 NA
ATOM     10  N   UNL     1      23.225   3.334  24.611  0.00  0.00    -0.110 NA
ATOM     22  C   UNL     1      23.354   4.882  22.997  0.00  0.00    +0.086 A 
ATOM     24  C   UNL     1      24.705   4.627  23.122  0.00  0.00    +0.093 A 
ENDBRANCH  19  22
ENDBRANCH   6  19
TORSDOF 5
ENDMDL
MODEL 9
REMARK VINA RESULT:      -6.0     27.419     29.966
REMARK  Name = 45361093
REMARK  6 active torsions:
REMARK  status: ('A' for Active; 'I' for Inactive)
REMARK    1  A    between atoms: N_5  and  C_20
REMARK    2  A    between atoms: N_6  and  C_19
REMARK    3  A    between atoms: C_15  and  C_18
REMARK    4  A    between atoms: C_18  and  C_21
REMARK    5  A    between atoms: C_19  and  C_22
REMARK    6  A    between atoms: C_21  and  C_23
REMARK                            x       y       z     vdW  Elec       q    Type
REMARK                         _______ _______ _______ _____ _____    ______ ____
ROOT
ATOM      2  O   UNL     1      -5.984  -9.547  13.378  0.00  0.00    -0.274 OA
ATOM      5  N   UNL     1      -3.215 -10.869  15.741  0.00  0.00    -0.296 NA
ATOM      6  N   UNL     1      -3.832 -10.613  12.142  0.00  0.00    -0.284 NA
ATOM      7  N   UNL     1      -6.016 -11.076  15.081  0.00  0.00    -0.312 N 
ATOM     11  C   UNL     1      -3.030 -11.285  14.332  0.00  0.00    +0.084 C 
ATOM     12  C   UNL     1      -4.267 -11.273  13.387  0.00  0.00    +0.161 C 
ATOM     13  C   UNL     1      -2.022 -10.421  13.552  0.00  0.00    +0.036 C 
ATOM     14  C   UNL     1      -2.376 -10.688  12.104  0.00  0.00    +0.087 C 
ATOM     15  C   UNL     1      -4.122 -11.748  16.529  0.00  0.00    +0.074 C 
ATOM     16  C   UNL     1      -5.486 -10.529  13.928  0.00  0.00    +0.232 C 
ATOM     17  C   UNL     1      -5.406 -12.180  15.795  0.00  0.00    +0.123 C 
ATOM     20  C   UNL     1      -1.916 -10.734  16.421  0.00  0.00    +0.105 C 
ATOM     29  H   UNL     1      -6.873 -10.675  15.448  0.00  0.00    +0.149 HD
ENDROOT
BRANCH  15  18
ATOM     18  C   UNL     1      -4.547 -11.049  17.838  0.00  0.00    +0.029 C 
BRANCH  18  21
ATOM     21  C   UNL     1      -5.311 -11.983  18.757  0.00  0.00    +0.097 C 
BRANCH  21  23
ATOM      3  O   UNL     1      -6.312 -10.363  20.169  0.00  0.00    -0.276 OA
ATOM      4  O   UNL     1     -10.256 -12.101  17.745  0.00  0.00    -0.377 OA
ATOM      8  N   UNL     1      -7.756 -11.751  18.997  0.00  0.00    -0.297 N 
ATOM     23  C   UNL     1      -6.498 -11.289  19.376  0.00  0.00    +0.216 C 
ATOM     25  C   UNL     1      -8.961 -11.131  19.547  0.00  0.00    +0.136 C 
ATOM     26  C   UNL     1      -8.014 -12.928  18.160  0.00  0.00    +0.136 C 
ATOM     27  C   UNL     1      -9.981 -10.884  18.444  0.00  0.00    +0.179 C 
ATOM     28  C   UNL     1      -9.078 -12.609  17.116  0.00  0.00    +0.179 C 
ENDBRANCH  21  23
ENDBRANCH  18  21
ENDBRANCH  15  18
BRANCH   6  19
ATOM     19  C   UNL     1      -4.442 -11.178  10.946  0.00  0.00    +0.143 C 
BRANCH  19  22
ATOM      1  S   UNL     1      -6.739  -8.864   8.669  0.00  0.00    +0.028 S 
ATOM      9  N   UNL     1      -4.830  -8.812  10.291  0.00  0.00    -0.145 NA
ATOM     10  N   UNL     1      -5.582  -8.023   9.541  0.00  0.00    -0.110 NA
ATOM     22  C   UNL     1      -5.198 -10.142  10.158  0.00  0.00    +0.086 A 
ATOM     24  C   UNL     1      -6.249 -10.384   9.295  0.00  0.00    +0.093 A 
ENDBRANCH  19  22
ENDBRANCH   6  19
TORSDOF 5
ENDMDL
MODEL 10
REMARK VINA RESULT:      -6.0     27.958     30.546
REMARK  Name = 45361093
REMARK  6 active torsions:
REMARK  status: ('A' for Active; 'I' for Inactive)
REMARK    1  A    between atoms: N_5  and  C_20
REMARK    2  A    between atoms: N_6  and  C_19
REMARK    3  A    between atoms: C_15  and  C_18
REMARK    4  A    between atoms: C_18  and  C_21
REMARK    5  A    between atoms: C_19  and  C_22
REMARK    6  A    between atoms: C_21  and  C_23
REMARK                            x       y       z     vdW  Elec       q    Type
REMARK                         _______ _______ _______ _____ _____    ______ ____
ROOT
ATOM      2  O   UNL     1      -5.729  -9.256  16.338  0.00  0.00    -0.274 OA
ATOM      5  N   UNL     1      -8.753 -10.467  18.431  0.00  0.00    -0.296 NA
ATOM      6  N   UNL     1      -5.620 -11.838  17.125  0.00  0.00    -0.284 NA
ATOM      7  N   UNL     1      -7.979  -9.266  15.925  0.00  0.00    -0.312 N 
ATOM     11  C   UNL     1      -7.879 -11.571  17.974  0.00  0.00    +0.084 C 
ATOM     12  C   UNL     1      -6.950 -11.322  16.749  0.00  0.00    +0.161 C 
ATOM     13  C   UNL     1      -6.881 -12.061  19.039  0.00  0.00    +0.036 C 
ATOM     14  C   UNL     1      -5.820 -12.773  18.227  0.00  0.00    +0.087 C 
ATOM     15  C   UNL     1      -9.779 -10.042  17.440  0.00  0.00    +0.074 C 
ATOM     16  C   UNL     1      -6.802  -9.859  16.338  0.00  0.00    +0.232 C 
ATOM     17  C   UNL     1      -9.270  -9.922  15.990  0.00  0.00    +0.123 C 
ATOM     20  C   UNL     1      -9.392 -10.804  19.714  0.00  0.00    +0.105 C 
ATOM     29  H   UNL     1      -7.934  -8.318  15.565  0.00  0.00    +0.149 HD
ENDROOT
BRANCH  15  18
ATOM     18  C   UNL     1     -10.379  -8.676  17.835  0.00  0.00    +0.029 C 
BRANCH  18  21
ATOM     21  C   UNL     1     -11.569  -8.308  16.970  0.00  0.00    +0.097 C 
BRANCH  21  23
ATOM      3  O   UNL     1     -10.080  -6.762  15.964  0.00  0.00    -0.276 OA
ATOM      4  O   UNL     1     -14.258  -5.830  13.489  0.00  0.00    -0.377 OA
ATOM      8  N   UNL     1     -12.323  -6.556  15.403  0.00  0.00    -0.297 N 
ATOM     23  C   UNL     1     -11.249  -7.140  16.071  0.00  0.00    +0.216 C 
ATOM     25  C   UNL     1     -12.100  -5.421  14.508  0.00  0.00    +0.136 C 
ATOM     26  C   UNL     1     -13.735  -6.896  15.604  0.00  0.00    +0.136 C 
ATOM     27  C   UNL     1     -12.873  -5.610  13.211  0.00  0.00    +0.179 C 
ATOM     28  C   UNL     1     -14.445  -7.018  14.260  0.00  0.00    +0.179 C 
ENDBRANCH  21  23
ENDBRANCH  18  21
ENDBRANCH  15  18
BRANCH   6  19
ATOM     19  C   UNL     1      -4.901 -12.445  16.014  0.00  0.00    +0.143 C 
BRANCH  19  22
ATOM      1  S   UNL     1      -1.719 -10.550  14.565  0.00  0.00    +0.028 S 
ATOM      9  N   UNL     1      -2.939 -11.076  16.689  0.00  0.00    -0.145 NA
ATOM     10  N   UNL     1      -1.874 -10.440  16.229  0.00  0.00    -0.110 NA
ATOM     22  C   UNL     1      -3.655 -11.675  15.664  0.00  0.00    +0.086 A 
ATOM     24  C   UNL     1      -3.138 -11.499  14.396  0.00  0.00    +0.093 A 
ENDBRANCH  19  22
ENDBRANCH   6  19
TORSDOF 5
ENDMDL
