MODEL 1
REMARK VINA RESULT:      -8.1      0.000      0.000
REMARK  Name = 11913066
REMARK  9 active torsions:
REMARK  status: ('A' for Active; 'I' for Inactive)
REMARK    1  A    between atoms: O_3  and  C_14
REMARK    2  A    between atoms: O_3  and  C_18
REMARK    3  A    between atoms: O_5  and  C_28
REMARK    4  A    between atoms: O_5  and  C_34
REMARK    5  A    between atoms: O_6  and  C_33
REMARK    6  A    between atoms: O_6  and  C_35
REMARK    7  A    between atoms: N_7  and  C_13
REMARK    8  A    between atoms: N_10  and  C_22
REMARK    9  A    between atoms: C_19  and  C_23
REMARK                            x       y       z     vdW  Elec       q    Type
REMARK                         _______ _______ _______ _____ _____    ______ ____
ROOT
ATOM      1  O   UNL     1     -15.447   7.016  23.513  0.00  0.00    -0.368 OA
ATOM      2  O   UNL     1     -15.896   4.568  21.718  0.00  0.00    -0.368 OA
ATOM     11  C   UNL     1     -15.410   4.686  23.071  0.00  0.00    +0.173 C 
ATOM     12  C   UNL     1     -14.569   5.946  23.127  0.00  0.00    +0.192 C 
ATOM     13  C   UNL     1     -16.557   4.971  24.011  0.00  0.00    +0.130 C 
ATOM     14  C   UNL     1     -14.104   6.093  21.698  0.00  0.00    +0.235 C 
ATOM     15  C   UNL     1     -16.728   6.474  23.868  0.00  0.00    +0.185 C 
ATOM     16  C   UNL     1     -15.305   5.604  20.920  0.00  0.00    +0.207 C 
ENDROOT
BRANCH  13   7
ATOM      7  N   UNL     1     -16.189   4.635  25.370  0.00  0.00    -0.306 N 
ATOM      8  N   UNL     1     -16.002   3.234  27.212  0.00  0.00    -0.214 NA
ATOM      9  N   UNL     1     -16.991   2.467  25.152  0.00  0.00    -0.223 NA
ATOM     17  C   UNL     1     -16.404   3.391  25.936  0.00  0.00    +0.216 A 
ATOM     19  C   UNL     1     -16.227   2.009  27.732  0.00  0.00    +0.076 A 
ATOM     20  C   UNL     1     -17.185   1.266  25.736  0.00  0.00    +0.116 A 
ATOM     21  C   UNL     1     -16.820   0.976  27.035  0.00  0.00    +0.048 A 
ATOM     36  H   UNL     1     -15.786   5.347  25.969  0.00  0.00    +0.149 HD
BRANCH  19  23
ATOM     23  C   UNL     1     -15.799   1.836  29.100  0.00  0.00    +0.001 A 
ATOM     26  C   UNL     1     -15.596   2.951  29.913  0.00  0.00    +0.013 A 
ATOM     27  C   UNL     1     -15.588   0.554  29.609  0.00  0.00    +0.013 A 
ATOM     30  C   UNL     1     -15.182   2.785  31.235  0.00  0.00    +0.046 A 
ATOM     31  C   UNL     1     -15.174   0.387  30.930  0.00  0.00    +0.046 A 
ATOM     33  C   UNL     1     -14.971   1.503  31.742  0.00  0.00    +0.120 A 
BRANCH  33   6
ATOM      6  O   UNL     1     -14.569   1.341  33.034  0.00  0.00    -0.495 OA
ATOM     35  C   UNL     1     -14.623   2.490  33.878  0.00  0.00    +0.277 C 
ENDBRANCH  33   6
ENDBRANCH  19  23
ENDBRANCH  13   7
BRANCH  14   3
ATOM      3  O   UNL     1     -13.749   7.413  21.354  0.00  0.00    -0.442 OA
BRANCH   3  18
ATOM      4  O   UNL     1     -11.548   6.969  20.918  0.00  0.00    -0.226 OA
ATOM     10  N   UNL     1     -12.768   8.507  19.643  0.00  0.00    -0.251 N 
ATOM     18  C   UNL     1     -12.576   7.580  20.649  0.00  0.00    +0.405 C 
ATOM     37  H   UNL     1     -13.701   8.910  19.575  0.00  0.00    +0.158 HD
BRANCH  10  22
ATOM     22  C   UNL     1     -11.830   8.970  18.693  0.00  0.00    +0.040 A 
ATOM     24  C   UNL     1     -11.532   8.196  17.572  0.00  0.00    +0.069 A 
ATOM     25  C   UNL     1     -11.200  10.202  18.878  0.00  0.00    +0.023 A 
ATOM     28  C   UNL     1     -10.605   8.654  16.635  0.00  0.00    +0.122 A 
ATOM     29  C   UNL     1     -10.274  10.659  17.941  0.00  0.00    +0.005 A 
ATOM     32  C   UNL     1      -9.977   9.885  16.819  0.00  0.00    +0.046 A 
BRANCH  28   5
ATOM      5  O   UNL     1     -10.315   7.899  15.540  0.00  0.00    -0.495 OA
ATOM     34  C   UNL     1     -10.717   8.413  14.272  0.00  0.00    +0.277 C 
ENDBRANCH  28   5
ENDBRANCH  10  22
ENDBRANCH   3  18
ENDBRANCH  14   3
TORSDOF 7
ENDMDL
MODEL 2
REMARK VINA RESULT:      -7.5     19.294     23.086
REMARK  Name = 11913066
REMARK  9 active torsions:
REMARK  status: ('A' for Active; 'I' for Inactive)
REMARK    1  A    between atoms: O_3  and  C_14
REMARK    2  A    between atoms: O_3  and  C_18
REMARK    3  A    between atoms: O_5  and  C_28
REMARK    4  A    between atoms: O_5  and  C_34
REMARK    5  A    between atoms: O_6  and  C_33
REMARK    6  A    between atoms: O_6  and  C_35
REMARK    7  A    between atoms: N_7  and  C_13
REMARK    8  A    between atoms: N_10  and  C_22
REMARK    9  A    between atoms: C_19  and  C_23
REMARK                            x       y       z     vdW  Elec       q    Type
REMARK                         _______ _______ _______ _____ _____    ______ ____
ROOT
ATOM      1  O   UNL     1      -2.553 -10.203  12.633  0.00  0.00    -0.368 OA
ATOM      2  O   UNL     1      -3.172 -12.945  11.401  0.00  0.00    -0.368 OA
ATOM     11  C   UNL     1      -4.015 -11.806  11.675  0.00  0.00    +0.173 C 
ATOM     12  C   UNL     1      -3.527 -11.202  12.977  0.00  0.00    +0.192 C 
ATOM     13  C   UNL     1      -3.768 -10.721  10.653  0.00  0.00    +0.130 C 
ATOM     14  C   UNL     1      -2.895 -12.385  13.670  0.00  0.00    +0.235 C 
ATOM     15  C   UNL     1      -2.534 -10.029  11.208  0.00  0.00    +0.185 C 
ATOM     16  C   UNL     1      -2.287 -13.144  12.513  0.00  0.00    +0.207 C 
ENDROOT
BRANCH  13   7
ATOM      7  N   UNL     1      -4.885  -9.801  10.616  0.00  0.00    -0.306 N 
ATOM      8  N   UNL     1      -6.643  -8.670   9.607  0.00  0.00    -0.214 NA
ATOM      9  N   UNL     1      -5.273 -10.215   8.364  0.00  0.00    -0.223 NA
ATOM     17  C   UNL     1      -5.632  -9.551   9.480  0.00  0.00    +0.216 A 
ATOM     19  C   UNL     1      -7.351  -8.450   8.480  0.00  0.00    +0.076 A 
ATOM     20  C   UNL     1      -6.023  -9.948   7.275  0.00  0.00    +0.116 A 
ATOM     21  C   UNL     1      -7.084  -9.065   7.273  0.00  0.00    +0.048 A 
ATOM     36  H   UNL     1      -5.124  -9.273  11.447  0.00  0.00    +0.149 HD
BRANCH  19  23
ATOM     23  C   UNL     1      -8.435  -7.505   8.611  0.00  0.00    +0.001 A 
ATOM     26  C   UNL     1      -8.247  -6.174   8.239  0.00  0.00    +0.013 A 
ATOM     27  C   UNL     1      -9.670  -7.923   9.109  0.00  0.00    +0.013 A 
ATOM     30  C   UNL     1      -9.293  -5.260   8.367  0.00  0.00    +0.046 A 
ATOM     31  C   UNL     1     -10.716  -7.010   9.236  0.00  0.00    +0.046 A 
ATOM     33  C   UNL     1     -10.527  -5.678   8.865  0.00  0.00    +0.120 A 
BRANCH  33   6
ATOM      6  O   UNL     1     -11.549  -4.786   8.987  0.00  0.00    -0.495 OA
ATOM     35  C   UNL     1     -11.197  -3.429   9.254  0.00  0.00    +0.277 C 
ENDBRANCH  33   6
ENDBRANCH  19  23
ENDBRANCH  13   7
BRANCH  14   3
ATOM      3  O   UNL     1      -1.931 -12.024  14.634  0.00  0.00    -0.442 OA
BRANCH   3  18
ATOM      4  O   UNL     1      -1.775 -10.429  16.265  0.00  0.00    -0.226 OA
ATOM     10  N   UNL     1      -3.589 -11.906  16.159  0.00  0.00    -0.251 N 
ATOM     18  C   UNL     1      -2.386 -11.359  15.753  0.00  0.00    +0.405 C 
ATOM     37  H   UNL     1      -3.942 -12.680  15.600  0.00  0.00    +0.158 HD
BRANCH  10  22
ATOM     22  C   UNL     1      -4.392 -11.524  17.257  0.00  0.00    +0.040 A 
ATOM     24  C   UNL     1      -5.504 -10.708  17.058  0.00  0.00    +0.069 A 
ATOM     25  C   UNL     1      -4.071 -11.965  18.542  0.00  0.00    +0.023 A 
ATOM     28  C   UNL     1      -6.297 -10.332  18.143  0.00  0.00    +0.122 A 
ATOM     29  C   UNL     1      -4.864 -11.589  19.626  0.00  0.00    +0.005 A 
ATOM     32  C   UNL     1      -5.977 -10.773  19.426  0.00  0.00    +0.046 A 
BRANCH  28   5
ATOM      5  O   UNL     1      -7.383  -9.536  17.949  0.00  0.00    -0.495 OA
ATOM     34  C   UNL     1      -7.837  -9.372  16.606  0.00  0.00    +0.277 C 
ENDBRANCH  28   5
ENDBRANCH  10  22
ENDBRANCH   3  18
ENDBRANCH  14   3
TORSDOF 7
ENDMDL
MODEL 3
REMARK VINA RESULT:      -7.5     18.461     22.508
REMARK  Name = 11913066
REMARK  9 active torsions:
REMARK  status: ('A' for Active; 'I' for Inactive)
REMARK    1  A    between atoms: O_3  and  C_14
REMARK    2  A    between atoms: O_3  and  C_18
REMARK    3  A    between atoms: O_5  and  C_28
REMARK    4  A    between atoms: O_5  and  C_34
REMARK    5  A    between atoms: O_6  and  C_33
REMARK    6  A    between atoms: O_6  and  C_35
REMARK    7  A    between atoms: N_7  and  C_13
REMARK    8  A    between atoms: N_10  and  C_22
REMARK    9  A    between atoms: C_19  and  C_23
REMARK                            x       y       z     vdW  Elec       q    Type
REMARK                         _______ _______ _______ _____ _____    ______ ____
ROOT
ATOM      1  O   UNL     1      -3.845  -8.977  10.508  0.00  0.00    -0.368 OA
ATOM      2  O   UNL     1      -4.803 -11.728   9.545  0.00  0.00    -0.368 OA
ATOM     11  C   UNL     1      -5.526 -10.585  10.049  0.00  0.00    +0.173 C 
ATOM     12  C   UNL     1      -4.670  -9.970  11.138  0.00  0.00    +0.192 C 
ATOM     13  C   UNL     1      -5.598  -9.510   8.990  0.00  0.00    +0.130 C 
ATOM     14  C   UNL     1      -3.858 -11.148  11.621  0.00  0.00    +0.235 C 
ATOM     15  C   UNL     1      -4.255  -8.815   9.142  0.00  0.00    +0.185 C 
ATOM     16  C   UNL     1      -3.625 -11.919  10.341  0.00  0.00    +0.207 C 
ENDROOT
BRANCH  13   7
ATOM      7  N   UNL     1      -6.676  -8.589   9.282  0.00  0.00    -0.306 N 
ATOM      8  N   UNL     1      -8.476  -7.224   8.749  0.00  0.00    -0.214 NA
ATOM      9  N   UNL     1      -7.296  -8.459   7.048  0.00  0.00    -0.223 NA
ATOM     17  C   UNL     1      -7.519  -8.068   8.318  0.00  0.00    +0.216 A 
ATOM     19  C   UNL     1      -9.281  -6.735   7.782  0.00  0.00    +0.076 A 
ATOM     20  C   UNL     1      -8.138  -7.933   6.134  0.00  0.00    +0.116 A 
ATOM     21  C   UNL     1      -9.158  -7.057   6.446  0.00  0.00    +0.048 A 
ATOM     36  H   UNL     1      -6.812  -8.265  10.233  0.00  0.00    +0.149 HD
BRANCH  19  23
ATOM     23  C   UNL     1     -10.308  -5.830   8.239  0.00  0.00    +0.001 A 
ATOM     26  C   UNL     1      -9.957  -4.584   8.761  0.00  0.00    +0.013 A 
ATOM     27  C   UNL     1     -11.652  -6.199   8.160  0.00  0.00    +0.013 A 
ATOM     30  C   UNL     1     -10.948  -3.708   9.203  0.00  0.00    +0.046 A 
ATOM     31  C   UNL     1     -12.643  -5.324   8.602  0.00  0.00    +0.046 A 
ATOM     33  C   UNL     1     -12.291  -4.079   9.124  0.00  0.00    +0.120 A 
BRANCH  33   6
ATOM      6  O   UNL     1     -13.259  -3.223   9.554  0.00  0.00    -0.495 OA
ATOM     35  C   UNL     1     -14.281  -2.877   8.621  0.00  0.00    +0.277 C 
ENDBRANCH  33   6
ENDBRANCH  19  23
ENDBRANCH  13   7
BRANCH  14   3
ATOM      3  O   UNL     1      -2.650 -10.780  12.247  0.00  0.00    -0.442 OA
BRANCH   3  18
ATOM      4  O   UNL     1      -1.731 -10.142  14.242  0.00  0.00    -0.226 OA
ATOM     10  N   UNL     1      -3.958 -10.849  14.083  0.00  0.00    -0.251 N 
ATOM     18  C   UNL     1      -2.696 -10.550  13.606  0.00  0.00    +0.405 C 
ATOM     37  H   UNL     1      -4.632 -11.177  13.395  0.00  0.00    +0.158 HD
BRANCH  10  22
ATOM     22  C   UNL     1      -4.432 -10.754  15.411  0.00  0.00    +0.040 A 
ATOM     24  C   UNL     1      -5.600 -10.044  15.686  0.00  0.00    +0.069 A 
ATOM     25  C   UNL     1      -3.729 -11.371  16.447  0.00  0.00    +0.023 A 
ATOM     28  C   UNL     1      -6.067  -9.952  16.998  0.00  0.00    +0.122 A 
ATOM     29  C   UNL     1      -4.197 -11.279  17.757  0.00  0.00    +0.005 A 
ATOM     32  C   UNL     1      -5.366 -10.569  18.033  0.00  0.00    +0.046 A 
BRANCH  28   5
ATOM      5  O   UNL     1      -7.208  -9.260  17.267  0.00  0.00    -0.495 OA
ATOM     34  C   UNL     1      -8.355  -9.569  16.478  0.00  0.00    +0.277 C 
ENDBRANCH  28   5
ENDBRANCH  10  22
ENDBRANCH   3  18
ENDBRANCH  14   3
TORSDOF 7
ENDMDL
MODEL 4
REMARK VINA RESULT:      -7.2     18.944     22.329
REMARK  Name = 11913066
REMARK  9 active torsions:
REMARK  status: ('A' for Active; 'I' for Inactive)
REMARK    1  A    between atoms: O_3  and  C_14
REMARK    2  A    between atoms: O_3  and  C_18
REMARK    3  A    between atoms: O_5  and  C_28
REMARK    4  A    between atoms: O_5  and  C_34
REMARK    5  A    between atoms: O_6  and  C_33
REMARK    6  A    between atoms: O_6  and  C_35
REMARK    7  A    between atoms: N_7  and  C_13
REMARK    8  A    between atoms: N_10  and  C_22
REMARK    9  A    between atoms: C_19  and  C_23
REMARK                            x       y       z     vdW  Elec       q    Type
REMARK                         _______ _______ _______ _____ _____    ______ ____
ROOT
ATOM      1  O   UNL     1      -6.161 -10.097  17.422  0.00  0.00    -0.368 OA
ATOM      2  O   UNL     1      -4.438 -12.389  18.515  0.00  0.00    -0.368 OA
ATOM     11  C   UNL     1      -5.075 -12.197  17.234  0.00  0.00    +0.173 C 
ATOM     12  C   UNL     1      -6.400 -11.512  17.501  0.00  0.00    +0.192 C 
ATOM     13  C   UNL     1      -4.300 -11.189  16.417  0.00  0.00    +0.130 C 
ATOM     14  C   UNL     1      -6.715 -11.947  18.912  0.00  0.00    +0.235 C 
ATOM     15  C   UNL     1      -4.823  -9.867  16.954  0.00  0.00    +0.185 C 
ATOM     16  C   UNL     1      -5.344 -11.979  19.549  0.00  0.00    +0.207 C 
ENDROOT
BRANCH  13   7
ATOM      7  N   UNL     1      -4.625 -11.324  15.013  0.00  0.00    -0.306 N 
ATOM      8  N   UNL     1      -4.192 -11.206  12.735  0.00  0.00    -0.214 NA
ATOM      9  N   UNL     1      -2.523 -10.585  14.359  0.00  0.00    -0.223 NA
ATOM     17  C   UNL     1      -3.742 -11.025  13.991  0.00  0.00    +0.216 A 
ATOM     19  C   UNL     1      -3.306 -10.905  11.764  0.00  0.00    +0.076 A 
ATOM     20  C   UNL     1      -1.687 -10.304  13.338  0.00  0.00    +0.116 A 
ATOM     21  C   UNL     1      -2.027 -10.445  12.008  0.00  0.00    +0.048 A 
ATOM     36  H   UNL     1      -5.557 -11.615  14.741  0.00  0.00    +0.149 HD
BRANCH  19  23
ATOM     23  C   UNL     1      -3.784 -11.096  10.416  0.00  0.00    +0.001 A 
ATOM     26  C   UNL     1      -3.830 -12.378   9.868  0.00  0.00    +0.013 A 
ATOM     27  C   UNL     1      -4.201 -10.000   9.660  0.00  0.00    +0.013 A 
ATOM     30  C   UNL     1      -4.292 -12.564   8.565  0.00  0.00    +0.046 A 
ATOM     31  C   UNL     1      -4.663 -10.185   8.357  0.00  0.00    +0.046 A 
ATOM     33  C   UNL     1      -4.708 -11.467   7.810  0.00  0.00    +0.120 A 
BRANCH  33   6
ATOM      6  O   UNL     1      -5.160 -11.649   6.539  0.00  0.00    -0.495 OA
ATOM     35  C   UNL     1      -5.830 -10.549   5.924  0.00  0.00    +0.277 C 
ENDBRANCH  33   6
ENDBRANCH  19  23
ENDBRANCH  13   7
BRANCH  14   3
ATOM      3  O   UNL     1      -7.595 -11.077  19.587  0.00  0.00    -0.442 OA
BRANCH   3  18
ATOM      4  O   UNL     1      -9.702 -11.768  19.028  0.00  0.00    -0.226 OA
ATOM     10  N   UNL     1      -8.933  -9.618  18.506  0.00  0.00    -0.251 N 
ATOM     18  C   UNL     1      -8.842 -10.894  19.029  0.00  0.00    +0.405 C 
ATOM     37  H   UNL     1      -8.107  -9.032  18.605  0.00  0.00    +0.158 HD
BRANCH  10  22
ATOM     22  C   UNL     1     -10.033  -9.023  17.848  0.00  0.00    +0.040 A 
ATOM     24  C   UNL     1      -9.845  -7.887  17.063  0.00  0.00    +0.069 A 
ATOM     25  C   UNL     1     -11.308  -9.573  17.986  0.00  0.00    +0.023 A 
ATOM     28  C   UNL     1     -10.932  -7.300  16.413  0.00  0.00    +0.122 A 
ATOM     29  C   UNL     1     -12.394  -8.986  17.337  0.00  0.00    +0.005 A 
ATOM     32  C   UNL     1     -12.205  -7.850  16.550  0.00  0.00    +0.046 A 
BRANCH  28   5
ATOM      5  O   UNL     1     -10.748  -6.191  15.646  0.00  0.00    -0.495 OA
ATOM     34  C   UNL     1     -11.853  -5.759  14.854  0.00  0.00    +0.277 C 
ENDBRANCH  28   5
ENDBRANCH  10  22
ENDBRANCH   3  18
ENDBRANCH  14   3
TORSDOF 7
ENDMDL
MODEL 5
REMARK VINA RESULT:      -7.0     18.886     22.634
REMARK  Name = 11913066
REMARK  9 active torsions:
REMARK  status: ('A' for Active; 'I' for Inactive)
REMARK    1  A    between atoms: O_3  and  C_14
REMARK    2  A    between atoms: O_3  and  C_18
REMARK    3  A    between atoms: O_5  and  C_28
REMARK    4  A    between atoms: O_5  and  C_34
REMARK    5  A    between atoms: O_6  and  C_33
REMARK    6  A    between atoms: O_6  and  C_35
REMARK    7  A    between atoms: N_7  and  C_13
REMARK    8  A    between atoms: N_10  and  C_22
REMARK    9  A    between atoms: C_19  and  C_23
REMARK                            x       y       z     vdW  Elec       q    Type
REMARK                         _______ _______ _______ _____ _____    ______ ____
ROOT
ATOM      1  O   UNL     1      -6.251  -9.970  17.574  0.00  0.00    -0.368 OA
ATOM      2  O   UNL     1      -4.203 -12.067  18.482  0.00  0.00    -0.368 OA
ATOM     11  C   UNL     1      -4.904 -11.892  17.233  0.00  0.00    +0.173 C 
ATOM     12  C   UNL     1      -6.298 -11.406  17.576  0.00  0.00    +0.192 C 
ATOM     13  C   UNL     1      -4.299 -10.746  16.456  0.00  0.00    +0.130 C 
ATOM     14  C   UNL     1      -6.503 -11.957  18.967  0.00  0.00    +0.235 C 
ATOM     15  C   UNL     1      -4.973  -9.537  17.083  0.00  0.00    +0.185 C 
ATOM     16  C   UNL     1      -5.118 -11.839  19.563  0.00  0.00    +0.207 C 
ENDROOT
BRANCH  13   7
ATOM      7  N   UNL     1      -4.652 -10.846  15.055  0.00  0.00    -0.306 N 
ATOM      8  N   UNL     1      -4.231 -10.800  12.773  0.00  0.00    -0.214 NA
ATOM      9  N   UNL     1      -2.479 -10.393  14.377  0.00  0.00    -0.223 NA
ATOM     17  C   UNL     1      -3.748 -10.672  14.024  0.00  0.00    +0.216 A 
ATOM     19  C   UNL     1      -3.322 -10.624  11.791  0.00  0.00    +0.076 A 
ATOM     20  C   UNL     1      -1.623 -10.230  13.346  0.00  0.00    +0.116 A 
ATOM     21  C   UNL     1      -1.992 -10.334  12.020  0.00  0.00    +0.048 A 
ATOM     36  H   UNL     1      -5.617 -11.014  14.794  0.00  0.00    +0.149 HD
BRANCH  19  23
ATOM     23  C   UNL     1      -3.835 -10.760  10.449  0.00  0.00    +0.001 A 
ATOM     26  C   UNL     1      -4.014 -12.028   9.896  0.00  0.00    +0.013 A 
ATOM     27  C   UNL     1      -4.151  -9.623   9.704  0.00  0.00    +0.013 A 
ATOM     30  C   UNL     1      -4.509 -12.160   8.599  0.00  0.00    +0.046 A 
ATOM     31  C   UNL     1      -4.646  -9.754   8.407  0.00  0.00    +0.046 A 
ATOM     33  C   UNL     1      -4.824 -11.023   7.855  0.00  0.00    +0.120 A 
BRANCH  33   6
ATOM      6  O   UNL     1      -5.309 -11.152   6.589  0.00  0.00    -0.495 OA
ATOM     35  C   UNL     1      -4.454 -11.765   5.626  0.00  0.00    +0.277 C 
ENDBRANCH  33   6
ENDBRANCH  19  23
ENDBRANCH  13   7
BRANCH  14   3
ATOM      3  O   UNL     1      -7.465 -11.251  19.717  0.00  0.00    -0.442 OA
BRANCH   3  18
ATOM      4  O   UNL     1      -9.236 -12.557  19.094  0.00  0.00    -0.226 OA
ATOM     10  N   UNL     1      -9.468 -10.252  19.438  0.00  0.00    -0.251 N 
ATOM     18  C   UNL     1      -8.788 -11.454  19.384  0.00  0.00    +0.405 C 
ATOM     37  H   UNL     1      -8.920  -9.437  19.702  0.00  0.00    +0.158 HD
BRANCH  10  22
ATOM     22  C   UNL     1     -10.835 -10.013  19.171  0.00  0.00    +0.040 A 
ATOM     24  C   UNL     1     -11.225  -9.494  17.937  0.00  0.00    +0.069 A 
ATOM     25  C   UNL     1     -11.795 -10.297  20.144  0.00  0.00    +0.023 A 
ATOM     28  C   UNL     1     -12.575  -9.258  17.675  0.00  0.00    +0.122 A 
ATOM     29  C   UNL     1     -13.144 -10.061  19.881  0.00  0.00    +0.005 A 
ATOM     32  C   UNL     1     -13.534  -9.542  18.646  0.00  0.00    +0.046 A 
BRANCH  28   5
ATOM      5  O   UNL     1     -12.956  -8.752  16.471  0.00  0.00    -0.495 OA
ATOM     34  C   UNL     1     -13.487  -9.671  15.518  0.00  0.00    +0.277 C 
ENDBRANCH  28   5
ENDBRANCH  10  22
ENDBRANCH   3  18
ENDBRANCH  14   3
TORSDOF 7
ENDMDL
MODEL 6
REMARK VINA RESULT:      -7.0     23.295     28.206
REMARK  Name = 11913066
REMARK  9 active torsions:
REMARK  status: ('A' for Active; 'I' for Inactive)
REMARK    1  A    between atoms: O_3  and  C_14
REMARK    2  A    between atoms: O_3  and  C_18
REMARK    3  A    between atoms: O_5  and  C_28
REMARK    4  A    between atoms: O_5  and  C_34
REMARK    5  A    between atoms: O_6  and  C_33
REMARK    6  A    between atoms: O_6  and  C_35
REMARK    7  A    between atoms: N_7  and  C_13
REMARK    8  A    between atoms: N_10  and  C_22
REMARK    9  A    between atoms: C_19  and  C_23
REMARK                            x       y       z     vdW  Elec       q    Type
REMARK                         _______ _______ _______ _____ _____    ______ ____
ROOT
ATOM      1  O   UNL     1       3.358  10.171   2.418  0.00  0.00    -0.368 OA
ATOM      2  O   UNL     1       4.664  12.935   2.162  0.00  0.00    -0.368 OA
ATOM     11  C   UNL     1       4.772  11.916   3.177  0.00  0.00    +0.173 C 
ATOM     12  C   UNL     1       3.399  11.290   3.318  0.00  0.00    +0.192 C 
ATOM     13  C   UNL     1       5.641  10.783   2.685  0.00  0.00    +0.130 C 
ATOM     14  C   UNL     1       2.483  12.403   2.869  0.00  0.00    +0.235 C 
ATOM     15  C   UNL     1       4.665   9.959   1.862  0.00  0.00    +0.185 C 
ATOM     16  C   UNL     1       3.290  13.053   1.766  0.00  0.00    +0.207 C 
ENDROOT
BRANCH  13   7
ATOM      7  N   UNL     1       6.137  10.007   3.801  0.00  0.00    -0.306 N 
ATOM      8  N   UNL     1       7.535   8.470   4.836  0.00  0.00    -0.214 NA
ATOM      9  N   UNL     1       7.759   8.983   2.492  0.00  0.00    -0.223 NA
ATOM     17  C   UNL     1       7.189   9.114   3.706  0.00  0.00    +0.216 A 
ATOM     19  C   UNL     1       8.565   7.607   4.707  0.00  0.00    +0.076 A 
ATOM     20  C   UNL     1       8.782   8.105   2.435  0.00  0.00    +0.116 A 
ATOM     21  C   UNL     1       9.232   7.381   3.520  0.00  0.00    +0.048 A 
ATOM     36  H   UNL     1       5.678  10.078   4.702  0.00  0.00    +0.149 HD
BRANCH  19  23
ATOM     23  C   UNL     1       8.938   6.912   5.916  0.00  0.00    +0.001 A 
ATOM     26  C   UNL     1       9.468   5.624   5.844  0.00  0.00    +0.013 A 
ATOM     27  C   UNL     1       8.770   7.529   7.157  0.00  0.00    +0.013 A 
ATOM     30  C   UNL     1       9.828   4.951   7.012  0.00  0.00    +0.046 A 
ATOM     31  C   UNL     1       9.130   6.857   8.324  0.00  0.00    +0.046 A 
ATOM     33  C   UNL     1       9.659   5.568   8.251  0.00  0.00    +0.120 A 
BRANCH  33   6
ATOM      6  O   UNL     1      10.013   4.912   9.391  0.00  0.00    -0.495 OA
ATOM     35  C   UNL     1       8.959   4.532  10.275  0.00  0.00    +0.277 C 
ENDBRANCH  33   6
ENDBRANCH  19  23
ENDBRANCH  13   7
BRANCH  14   3
ATOM      3  O   UNL     1       1.229  11.952   2.413  0.00  0.00    -0.442 OA
BRANCH   3  18
ATOM      4  O   UNL     1       0.111  12.355   4.367  0.00  0.00    -0.226 OA
ATOM     10  N   UNL     1      -0.387  10.502   3.026  0.00  0.00    -0.251 N 
ATOM     18  C   UNL     1       0.284  11.658   3.374  0.00  0.00    +0.405 C 
ATOM     37  H   UNL     1      -0.100  10.060   2.155  0.00  0.00    +0.158 HD
BRANCH  10  22
ATOM     22  C   UNL     1      -1.427   9.852   3.729  0.00  0.00    +0.040 A 
ATOM     24  C   UNL     1      -2.722   9.851   3.215  0.00  0.00    +0.069 A 
ATOM     25  C   UNL     1      -1.156   9.213   4.940  0.00  0.00    +0.023 A 
ATOM     28  C   UNL     1      -3.748   9.209   3.910  0.00  0.00    +0.122 A 
ATOM     29  C   UNL     1      -2.181   8.572   5.634  0.00  0.00    +0.005 A 
ATOM     32  C   UNL     1      -3.477   8.570   5.119  0.00  0.00    +0.046 A 
BRANCH  28   5
ATOM      5  O   UNL     1      -5.013   9.207   3.408  0.00  0.00    -0.495 OA
ATOM     34  C   UNL     1      -6.034   9.791   4.215  0.00  0.00    +0.277 C 
ENDBRANCH  28   5
ENDBRANCH  10  22
ENDBRANCH   3  18
ENDBRANCH  14   3
TORSDOF 7
ENDMDL
MODEL 7
REMARK VINA RESULT:      -7.0     17.855     20.604
REMARK  Name = 11913066
REMARK  9 active torsions:
REMARK  status: ('A' for Active; 'I' for Inactive)
REMARK    1  A    between atoms: O_3  and  C_14
REMARK    2  A    between atoms: O_3  and  C_18
REMARK    3  A    between atoms: O_5  and  C_28
REMARK    4  A    between atoms: O_5  and  C_34
REMARK    5  A    between atoms: O_6  and  C_33
REMARK    6  A    between atoms: O_6  and  C_35
REMARK    7  A    between atoms: N_7  and  C_13
REMARK    8  A    between atoms: N_10  and  C_22
REMARK    9  A    between atoms: C_19  and  C_23
REMARK                            x       y       z     vdW  Elec       q    Type
REMARK                         _______ _______ _______ _____ _____    ______ ____
ROOT
ATOM      1  O   UNL     1      -9.748  -8.472   8.665  0.00  0.00    -0.368 OA
ATOM      2  O   UNL     1      -7.439  -8.002   6.699  0.00  0.00    -0.368 OA
ATOM     11  C   UNL     1      -7.459  -8.150   8.134  0.00  0.00    +0.173 C 
ATOM     12  C   UNL     1      -8.719  -7.469   8.629  0.00  0.00    +0.192 C 
ATOM     13  C   UNL     1      -7.660  -9.602   8.503  0.00  0.00    +0.130 C 
ATOM     14  C   UNL     1      -8.978  -6.441   7.554  0.00  0.00    +0.235 C 
ATOM     15  C   UNL     1      -9.168  -9.757   8.396  0.00  0.00    +0.185 C 
ATOM     16  C   UNL     1      -8.538  -7.169   6.304  0.00  0.00    +0.207 C 
ENDROOT
BRANCH  13   7
ATOM      7  N   UNL     1      -7.226  -9.840   9.863  0.00  0.00    -0.306 N 
ATOM      8  N   UNL     1      -5.655 -10.127  11.548  0.00  0.00    -0.214 NA
ATOM      9  N   UNL     1      -4.984  -9.723   9.268  0.00  0.00    -0.223 NA
ATOM     17  C   UNL     1      -5.897  -9.900  10.243  0.00  0.00    +0.216 A 
ATOM     19  C   UNL     1      -4.349 -10.178  11.883  0.00  0.00    +0.076 A 
ATOM     20  C   UNL     1      -3.699  -9.787   9.674  0.00  0.00    +0.116 A 
ATOM     21  C   UNL     1      -3.317 -10.015  10.980  0.00  0.00    +0.048 A 
ATOM     36  H   UNL     1      -7.916 -10.015  10.584  0.00  0.00    +0.149 HD
BRANCH  19  23
ATOM     23  C   UNL     1      -4.084 -10.423  13.281  0.00  0.00    +0.001 A 
ATOM     26  C   UNL     1      -5.133 -10.421  14.200  0.00  0.00    +0.013 A 
ATOM     27  C   UNL     1      -2.778 -10.661  13.714  0.00  0.00    +0.013 A 
ATOM     30  C   UNL     1      -4.878 -10.656  15.551  0.00  0.00    +0.046 A 
ATOM     31  C   UNL     1      -2.523 -10.897  15.064  0.00  0.00    +0.046 A 
ATOM     33  C   UNL     1      -3.573 -10.894  15.982  0.00  0.00    +0.120 A 
BRANCH  33   6
ATOM      6  O   UNL     1      -3.325 -11.125  17.301  0.00  0.00    -0.495 OA
ATOM     35  C   UNL     1      -4.447 -11.429  18.129  0.00  0.00    +0.277 C 
ENDBRANCH  33   6
ENDBRANCH  19  23
ENDBRANCH  13   7
BRANCH  14   3
ATOM      3  O   UNL     1     -10.324  -6.028   7.482  0.00  0.00    -0.442 OA
BRANCH   3  18
ATOM      4  O   UNL     1      -9.950  -4.252   8.874  0.00  0.00    -0.226 OA
ATOM     10  N   UNL     1     -12.090  -5.155   8.581  0.00  0.00    -0.251 N 
ATOM     18  C   UNL     1     -10.727  -5.056   8.374  0.00  0.00    +0.405 C 
ATOM     37  H   UNL     1     -12.570  -5.893   8.070  0.00  0.00    +0.158 HD
BRANCH  10  22
ATOM     22  C   UNL     1     -12.904  -4.357   9.416  0.00  0.00    +0.040 A 
ATOM     24  C   UNL     1     -12.667  -4.316  10.789  0.00  0.00    +0.069 A 
ATOM     25  C   UNL     1     -13.946  -3.610   8.865  0.00  0.00    +0.023 A 
ATOM     28  C   UNL     1     -13.472  -3.528  11.613  0.00  0.00    +0.122 A 
ATOM     29  C   UNL     1     -14.750  -2.822   9.688  0.00  0.00    +0.005 A 
ATOM     32  C   UNL     1     -14.512  -2.781  11.062  0.00  0.00    +0.046 A 
BRANCH  28   5
ATOM      5  O   UNL     1     -13.240  -3.487  12.953  0.00  0.00    -0.495 OA
ATOM     34  C   UNL     1     -13.126  -4.737  13.630  0.00  0.00    +0.277 C 
ENDBRANCH  28   5
ENDBRANCH  10  22
ENDBRANCH   3  18
ENDBRANCH  14   3
TORSDOF 7
ENDMDL
MODEL 8
REMARK VINA RESULT:      -7.0      3.682      6.786
REMARK  Name = 11913066
REMARK  9 active torsions:
REMARK  status: ('A' for Active; 'I' for Inactive)
REMARK    1  A    between atoms: O_3  and  C_14
REMARK    2  A    between atoms: O_3  and  C_18
REMARK    3  A    between atoms: O_5  and  C_28
REMARK    4  A    between atoms: O_5  and  C_34
REMARK    5  A    between atoms: O_6  and  C_33
REMARK    6  A    between atoms: O_6  and  C_35
REMARK    7  A    between atoms: N_7  and  C_13
REMARK    8  A    between atoms: N_10  and  C_22
REMARK    9  A    between atoms: C_19  and  C_23
REMARK                            x       y       z     vdW  Elec       q    Type
REMARK                         _______ _______ _______ _____ _____    ______ ____
ROOT
ATOM      1  O   UNL     1     -17.689   3.740  27.430  0.00  0.00    -0.368 OA
ATOM      2  O   UNL     1     -16.312   1.036  27.887  0.00  0.00    -0.368 OA
ATOM     11  C   UNL     1     -15.948   2.374  28.284  0.00  0.00    +0.173 C 
ATOM     12  C   UNL     1     -16.352   3.295  27.149  0.00  0.00    +0.192 C 
ATOM     13  C   UNL     1     -16.808   2.823  29.442  0.00  0.00    +0.130 C 
ATOM     14  C   UNL     1     -16.309   2.376  25.952  0.00  0.00    +0.235 C 
ATOM     15  C   UNL     1     -18.070   3.299  28.742  0.00  0.00    +0.185 C 
ATOM     16  C   UNL     1     -16.795   1.068  26.536  0.00  0.00    +0.207 C 
ENDROOT
BRANCH  13   7
ATOM      7  N   UNL     1     -16.177   3.922  30.141  0.00  0.00    -0.306 N 
ATOM      8  N   UNL     1     -15.033   4.913  31.901  0.00  0.00    -0.214 NA
ATOM      9  N   UNL     1     -15.607   2.573  31.943  0.00  0.00    -0.223 NA
ATOM     17  C   UNL     1     -15.580   3.797  31.382  0.00  0.00    +0.216 A 
ATOM     19  C   UNL     1     -14.459   4.755  33.112  0.00  0.00    +0.076 A 
ATOM     20  C   UNL     1     -15.015   2.487  33.152  0.00  0.00    +0.116 A 
ATOM     21  C   UNL     1     -14.420   3.555  33.792  0.00  0.00    +0.048 A 
ATOM     36  H   UNL     1     -16.197   4.850  29.735  0.00  0.00    +0.149 HD
BRANCH  19  23
ATOM     23  C   UNL     1     -13.872   5.949  33.673  0.00  0.00    +0.001 A 
ATOM     26  C   UNL     1     -13.699   6.058  35.053  0.00  0.00    +0.013 A 
ATOM     27  C   UNL     1     -13.479   6.994  32.836  0.00  0.00    +0.013 A 
ATOM     30  C   UNL     1     -13.133   7.211  35.596  0.00  0.00    +0.046 A 
ATOM     31  C   UNL     1     -12.913   8.147  33.379  0.00  0.00    +0.046 A 
ATOM     33  C   UNL     1     -12.741   8.255  34.759  0.00  0.00    +0.120 A 
BRANCH  33   6
ATOM      6  O   UNL     1     -12.186   9.380  35.289  0.00  0.00    -0.495 OA
ATOM     35  C   UNL     1     -11.271   9.205  36.370  0.00  0.00    +0.277 C 
ENDBRANCH  33   6
ENDBRANCH  19  23
ENDBRANCH  13   7
BRANCH  14   3
ATOM      3  O   UNL     1     -17.113   2.810  24.879  0.00  0.00    -0.442 OA
BRANCH   3  18
ATOM      4  O   UNL     1     -16.462   2.425  22.721  0.00  0.00    -0.226 OA
ATOM     10  N   UNL     1     -15.858   4.381  23.857  0.00  0.00    -0.251 N 
ATOM     18  C   UNL     1     -16.465   3.148  23.710  0.00  0.00    +0.405 C 
ATOM     37  H   UNL     1     -15.974   4.834  24.761  0.00  0.00    +0.158 HD
BRANCH  10  22
ATOM     22  C   UNL     1     -15.094   5.095  22.907  0.00  0.00    +0.040 A 
ATOM     24  C   UNL     1     -15.726   5.938  21.994  0.00  0.00    +0.069 A 
ATOM     25  C   UNL     1     -13.705   4.954  22.882  0.00  0.00    +0.023 A 
ATOM     28  C   UNL     1     -14.970   6.642  21.056  0.00  0.00    +0.122 A 
ATOM     29  C   UNL     1     -12.951   5.659  21.944  0.00  0.00    +0.005 A 
ATOM     32  C   UNL     1     -13.584   6.503  21.031  0.00  0.00    +0.046 A 
BRANCH  28   5
ATOM      5  O   UNL     1     -15.588   7.466  20.165  0.00  0.00    -0.495 OA
ATOM     34  C   UNL     1     -16.507   8.420  20.693  0.00  0.00    +0.277 C 
ENDBRANCH  28   5
ENDBRANCH  10  22
ENDBRANCH   3  18
ENDBRANCH  14   3
TORSDOF 7
ENDMDL
MODEL 9
REMARK VINA RESULT:      -7.0      3.218      5.653
REMARK  Name = 11913066
REMARK  9 active torsions:
REMARK  status: ('A' for Active; 'I' for Inactive)
REMARK    1  A    between atoms: O_3  and  C_14
REMARK    2  A    between atoms: O_3  and  C_18
REMARK    3  A    between atoms: O_5  and  C_28
REMARK    4  A    between atoms: O_5  and  C_34
REMARK    5  A    between atoms: O_6  and  C_33
REMARK    6  A    between atoms: O_6  and  C_35
REMARK    7  A    between atoms: N_7  and  C_13
REMARK    8  A    between atoms: N_10  and  C_22
REMARK    9  A    between atoms: C_19  and  C_23
REMARK                            x       y       z     vdW  Elec       q    Type
REMARK                         _______ _______ _______ _____ _____    ______ ____
ROOT
ATOM      1  O   UNL     1     -18.947   2.467  25.790  0.00  0.00    -0.368 OA
ATOM      2  O   UNL     1     -17.013   0.161  25.194  0.00  0.00    -0.368 OA
ATOM     11  C   UNL     1     -16.890   1.317  26.049  0.00  0.00    +0.173 C 
ATOM     12  C   UNL     1     -17.583   2.463  25.341  0.00  0.00    +0.192 C 
ATOM     13  C   UNL     1     -17.704   1.119  27.307  0.00  0.00    +0.130 C 
ATOM     14  C   UNL     1     -17.473   2.064  23.888  0.00  0.00    +0.235 C 
ATOM     15  C   UNL     1     -19.100   1.516  26.854  0.00  0.00    +0.185 C 
ATOM     16  C   UNL     1     -17.625   0.561  23.959  0.00  0.00    +0.207 C 
ENDROOT
BRANCH  13   7
ATOM      7  N   UNL     1     -17.243   2.010  28.350  0.00  0.00    -0.306 N 
ATOM      8  N   UNL     1     -16.054   2.567  30.265  0.00  0.00    -0.214 NA
ATOM      9  N   UNL     1     -16.000   0.332  29.365  0.00  0.00    -0.223 NA
ATOM     17  C   UNL     1     -16.396   1.620  29.371  0.00  0.00    +0.216 A 
ATOM     19  C   UNL     1     -15.227   2.151  31.247  0.00  0.00    +0.076 A 
ATOM     20  C   UNL     1     -15.175  -0.015  30.374  0.00  0.00    +0.116 A 
ATOM     21  C   UNL     1     -14.751   0.860  31.353  0.00  0.00    +0.048 A 
ATOM     36  H   UNL     1     -17.577   2.967  28.374  0.00  0.00    +0.149 HD
BRANCH  19  23
ATOM     23  C   UNL     1     -14.859   3.163  32.208  0.00  0.00    +0.001 A 
ATOM     26  C   UNL     1     -14.483   4.434  31.772  0.00  0.00    +0.013 A 
ATOM     27  C   UNL     1     -14.880   2.872  33.573  0.00  0.00    +0.013 A 
ATOM     30  C   UNL     1     -14.126   5.412  32.700  0.00  0.00    +0.046 A 
ATOM     31  C   UNL     1     -14.524   3.849  34.501  0.00  0.00    +0.046 A 
ATOM     33  C   UNL     1     -14.146   5.119  34.064  0.00  0.00    +0.120 A 
BRANCH  33   6
ATOM      6  O   UNL     1     -13.800   6.076  34.970  0.00  0.00    -0.495 OA
ATOM     35  C   UNL     1     -13.428   7.353  34.454  0.00  0.00    +0.277 C 
ENDBRANCH  33   6
ENDBRANCH  19  23
ENDBRANCH  13   7
BRANCH  14   3
ATOM      3  O   UNL     1     -18.452   2.658  23.066  0.00  0.00    -0.442 OA
BRANCH   3  18
ATOM      4  O   UNL     1     -18.929   4.889  22.914  0.00  0.00    -0.226 OA
ATOM     10  N   UNL     1     -17.055   3.959  21.863  0.00  0.00    -0.251 N 
ATOM     18  C   UNL     1     -18.205   3.943  22.631  0.00  0.00    +0.405 C 
ATOM     37  H   UNL     1     -16.585   3.065  21.739  0.00  0.00    +0.158 HD
BRANCH  10  22
ATOM     22  C   UNL     1     -16.448   5.065  21.227  0.00  0.00    +0.040 A 
ATOM     24  C   UNL     1     -15.406   5.745  21.854  0.00  0.00    +0.069 A 
ATOM     25  C   UNL     1     -16.894   5.476  19.970  0.00  0.00    +0.023 A 
ATOM     28  C   UNL     1     -14.807   6.837  21.224  0.00  0.00    +0.122 A 
ATOM     29  C   UNL     1     -16.295   6.567  19.341  0.00  0.00    +0.005 A 
ATOM     32  C   UNL     1     -15.252   7.247  19.968  0.00  0.00    +0.046 A 
BRANCH  28   5
ATOM      5  O   UNL     1     -13.789   7.501  21.836  0.00  0.00    -0.495 OA
ATOM     34  C   UNL     1     -12.801   8.093  20.994  0.00  0.00    +0.277 C 
ENDBRANCH  28   5
ENDBRANCH  10  22
ENDBRANCH   3  18
ENDBRANCH  14   3
TORSDOF 7
ENDMDL
MODEL 10
REMARK VINA RESULT:      -7.0     17.375     19.425
REMARK  Name = 11913066
REMARK  9 active torsions:
REMARK  status: ('A' for Active; 'I' for Inactive)
REMARK    1  A    between atoms: O_3  and  C_14
REMARK    2  A    between atoms: O_3  and  C_18
REMARK    3  A    between atoms: O_5  and  C_28
REMARK    4  A    between atoms: O_5  and  C_34
REMARK    5  A    between atoms: O_6  and  C_33
REMARK    6  A    between atoms: O_6  and  C_35
REMARK    7  A    between atoms: N_7  and  C_13
REMARK    8  A    between atoms: N_10  and  C_22
REMARK    9  A    between atoms: C_19  and  C_23
REMARK                            x       y       z     vdW  Elec       q    Type
REMARK                         _______ _______ _______ _____ _____    ______ ____
ROOT
ATOM      1  O   UNL     1      -6.715 -11.404  16.383  0.00  0.00    -0.368 OA
ATOM      2  O   UNL     1      -6.588 -10.690  19.364  0.00  0.00    -0.368 OA
ATOM     11  C   UNL     1      -7.031  -9.935  18.217  0.00  0.00    +0.173 C 
ATOM     12  C   UNL     1      -6.109 -10.297  17.070  0.00  0.00    +0.192 C 
ATOM     13  C   UNL     1      -8.387 -10.427  17.766  0.00  0.00    +0.130 C 
ATOM     14  C   UNL     1      -4.844 -10.708  17.784  0.00  0.00    +0.235 C 
ATOM     15  C   UNL     1      -8.027 -11.636  16.918  0.00  0.00    +0.185 C 
ATOM     16  C   UNL     1      -5.384 -11.391  19.021  0.00  0.00    +0.207 C 
ENDROOT
BRANCH  13   7
ATOM      7  N   UNL     1      -9.041  -9.422  16.955  0.00  0.00    -0.306 N 
ATOM      8  N   UNL     1     -10.864  -8.227  16.155  0.00  0.00    -0.214 NA
ATOM      9  N   UNL     1     -11.137  -9.982  17.784  0.00  0.00    -0.223 NA
ATOM     17  C   UNL     1     -10.407  -9.201  16.965  0.00  0.00    +0.216 A 
ATOM     19  C   UNL     1     -12.199  -8.038  16.190  0.00  0.00    +0.076 A 
ATOM     20  C   UNL     1     -12.464  -9.739  17.770  0.00  0.00    +0.116 A 
ATOM     21  C   UNL     1     -13.057  -8.771  16.985  0.00  0.00    +0.048 A 
ATOM     36  H   UNL     1      -8.493  -8.866  16.309  0.00  0.00    +0.149 HD
BRANCH  19  23
ATOM     23  C   UNL     1     -12.694  -6.996  15.323  0.00  0.00    +0.001 A 
ATOM     26  C   UNL     1     -14.055  -6.929  15.020  0.00  0.00    +0.013 A 
ATOM     27  C   UNL     1     -11.813  -6.056  14.786  0.00  0.00    +0.013 A 
ATOM     30  C   UNL     1     -14.534  -5.923  14.181  0.00  0.00    +0.046 A 
ATOM     31  C   UNL     1     -12.292  -5.050  13.948  0.00  0.00    +0.046 A 
ATOM     33  C   UNL     1     -13.652  -4.984  13.645  0.00  0.00    +0.120 A 
BRANCH  33   6
ATOM      6  O   UNL     1     -14.121  -4.000  12.828  0.00  0.00    -0.495 OA
ATOM     35  C   UNL     1     -13.205  -3.452  11.882  0.00  0.00    +0.277 C 
ENDBRANCH  33   6
ENDBRANCH  19  23
ENDBRANCH  13   7
BRANCH  14   3
ATOM      3  O   UNL     1      -4.019 -11.561  17.024  0.00  0.00    -0.442 OA
BRANCH   3  18
ATOM      4  O   UNL     1      -2.221 -10.384  16.242  0.00  0.00    -0.226 OA
ATOM     10  N   UNL     1      -3.891 -11.178  14.805  0.00  0.00    -0.251 N 
ATOM     18  C   UNL     1      -3.271 -10.978  16.024  0.00  0.00    +0.405 C 
ATOM     37  H   UNL     1      -4.764 -11.701  14.826  0.00  0.00    +0.158 HD
BRANCH  10  22
ATOM     22  C   UNL     1      -3.464 -10.747  13.529  0.00  0.00    +0.040 A 
ATOM     24  C   UNL     1      -4.396 -10.293  12.597  0.00  0.00    +0.069 A 
ATOM     25  C   UNL     1      -2.107 -10.776  13.202  0.00  0.00    +0.023 A 
ATOM     28  C   UNL     1      -3.973  -9.868  11.337  0.00  0.00    +0.122 A 
ATOM     29  C   UNL     1      -1.685 -10.351  11.943  0.00  0.00    +0.005 A 
ATOM     32  C   UNL     1      -2.618  -9.896  11.011  0.00  0.00    +0.046 A 
BRANCH  28   5
ATOM      5  O   UNL     1      -4.883  -9.424  10.428  0.00  0.00    -0.495 OA
ATOM     34  C   UNL     1      -4.709  -9.846   9.076  0.00  0.00    +0.277 C 
ENDBRANCH  28   5
ENDBRANCH  10  22
ENDBRANCH   3  18
ENDBRANCH  14   3
TORSDOF 7
ENDMDL
