MODEL 1
REMARK VINA RESULT:      -7.3      0.000      0.000
REMARK  Name = 51137308
REMARK  5 active torsions:
REMARK  status: ('A' for Active; 'I' for Inactive)
REMARK    1  A    between atoms: N_4  and  C_13
REMARK    2  A    between atoms: N_7  and  C_21
REMARK    3  A    between atoms: C_9  and  C_14
REMARK    4  A    between atoms: C_13  and  C_15
REMARK    5  A    between atoms: C_18  and  C_22
REMARK                            x       y       z     vdW  Elec       q    Type
REMARK                         _______ _______ _______ _____ _____    ______ ____
ROOT
ATOM      4  N   UNL     1      15.797   7.276  20.625  0.00  0.00    -0.297 NA
ATOM      9  C   UNL     1      13.533   7.033  21.183  0.00  0.00    +0.092 C 
ATOM     10  C   UNL     1      13.685   7.066  19.653  0.00  0.00    +0.029 C 
ATOM     11  C   UNL     1      14.867   7.568  21.718  0.00  0.00    +0.097 C 
ATOM     12  C   UNL     1      15.074   7.641  19.406  0.00  0.00    +0.085 C 
ENDROOT
BRANCH   9  14
ATOM      1  O   UNL     1      12.527   9.098  22.029  0.00  0.00    -0.420 OA
ATOM      5  N   UNL     1      11.115   7.365  21.941  0.00  0.00    -0.112 NA
ATOM      6  N   UNL     1      10.422   8.456  22.433  0.00  0.00    -0.107 NA
ATOM     14  C   UNL     1      12.337   7.786  21.720  0.00  0.00    +0.222 A 
ATOM     18  C   UNL     1      11.286   9.445  22.467  0.00  0.00    +0.248 A 
BRANCH  18  22
ATOM      8  N   UNL     1      10.809  13.460  23.708  0.00  0.00    -0.263 NA
ATOM     22  C   UNL     1      11.125  10.806  22.886  0.00  0.00    +0.041 A 
ATOM     23  C   UNL     1      11.171  11.835  21.953  0.00  0.00    +0.033 A 
ATOM     24  C   UNL     1      10.921  11.103  24.230  0.00  0.00    +0.033 A 
ATOM     25  C   UNL     1      11.009  13.134  22.411  0.00  0.00    +0.111 A 
ATOM     26  C   UNL     1      10.770  12.433  24.585  0.00  0.00    +0.111 A 
ENDBRANCH  18  22
ENDBRANCH   9  14
BRANCH   4  13
ATOM     13  C   UNL     1      17.055   7.995  20.758  0.00  0.00    +0.119 C 
BRANCH  13  15
ATOM     15  C   UNL     1      18.238   7.064  20.747  0.00  0.00    -0.033 A 
ATOM     16  C   UNL     1      19.337   7.322  21.566  0.00  0.00    +0.007 A 
ATOM     17  C   UNL     1      18.234   5.943  19.917  0.00  0.00    +0.007 A 
ATOM     19  C   UNL     1      20.433   6.459  21.555  0.00  0.00    +0.033 A 
ATOM     20  C   UNL     1      19.330   5.080  19.906  0.00  0.00    +0.033 A 
ATOM     21  C   UNL     1      20.429   5.338  20.724  0.00  0.00    +0.126 A 
BRANCH  21   7
ATOM      2  O   UNL     1      21.375   3.254  21.016  0.00  0.00    -0.126 OA
ATOM      3  O   UNL     1      22.672   4.914  20.400  0.00  0.00    -0.126 OA
ATOM      7  N   UNL     1      21.545   4.460  20.713  0.00  0.00    +0.056 N 
ENDBRANCH  21   7
ENDBRANCH  13  15
ENDBRANCH   4  13
TORSDOF 5
ENDMDL
MODEL 2
REMARK VINA RESULT:      -7.3     18.499     21.206
REMARK  Name = 51137308
REMARK  5 active torsions:
REMARK  status: ('A' for Active; 'I' for Inactive)
REMARK    1  A    between atoms: N_4  and  C_13
REMARK    2  A    between atoms: N_7  and  C_21
REMARK    3  A    between atoms: C_9  and  C_14
REMARK    4  A    between atoms: C_13  and  C_15
REMARK    5  A    between atoms: C_18  and  C_22
REMARK                            x       y       z     vdW  Elec       q    Type
REMARK                         _______ _______ _______ _____ _____    ______ ____
ROOT
ATOM      4  N   UNL     1      11.004   5.380   3.900  0.00  0.00    -0.297 NA
ATOM      9  C   UNL     1      12.298   4.375   2.222  0.00  0.00    +0.092 C 
ATOM     10  C   UNL     1      12.766   5.825   2.434  0.00  0.00    +0.029 C 
ATOM     11  C   UNL     1      10.927   4.305   2.908  0.00  0.00    +0.097 C 
ATOM     12  C   UNL     1      11.632   6.498   3.196  0.00  0.00    +0.085 C 
ENDROOT
BRANCH   9  14
ATOM      1  O   UNL     1      11.197   4.336   0.036  0.00  0.00    -0.420 OA
ATOM      5  N   UNL     1      13.109   3.177   0.116  0.00  0.00    -0.112 NA
ATOM      6  N   UNL     1      12.597   3.071  -1.165  0.00  0.00    -0.107 NA
ATOM     14  C   UNL     1      12.259   3.923   0.780  0.00  0.00    +0.222 A 
ATOM     18  C   UNL     1      11.482   3.763  -1.165  0.00  0.00    +0.248 A 
BRANCH  18  22
ATOM      8  N   UNL     1       8.693   4.465  -4.266  0.00  0.00    -0.263 NA
ATOM     22  C   UNL     1      10.536   4.002  -2.216  0.00  0.00    +0.041 A 
ATOM     23  C   UNL     1       9.703   5.113  -2.167  0.00  0.00    +0.033 A 
ATOM     24  C   UNL     1      10.448   3.121  -3.289  0.00  0.00    +0.033 A 
ATOM     25  C   UNL     1       8.807   5.299  -3.208  0.00  0.00    +0.111 A 
ATOM     26  C   UNL     1       9.519   3.396  -4.279  0.00  0.00    +0.111 A 
ENDBRANCH  18  22
ENDBRANCH   9  14
BRANCH   4  13
ATOM     13  C   UNL     1       9.700   5.729   4.443  0.00  0.00    +0.119 C 
BRANCH  13  15
ATOM     15  C   UNL     1       9.632   5.502   5.930  0.00  0.00    -0.033 A 
ATOM     16  C   UNL     1       9.346   6.565   6.786  0.00  0.00    +0.007 A 
ATOM     17  C   UNL     1       9.854   4.227   6.451  0.00  0.00    +0.007 A 
ATOM     19  C   UNL     1       9.283   6.354   8.164  0.00  0.00    +0.033 A 
ATOM     20  C   UNL     1       9.792   4.016   7.827  0.00  0.00    +0.033 A 
ATOM     21  C   UNL     1       9.506   5.078   8.684  0.00  0.00    +0.126 A 
BRANCH  21   7
ATOM      2  O   UNL     1      10.508   4.851  10.749  0.00  0.00    -0.126 OA
ATOM      3  O   UNL     1       8.322   4.695  10.625  0.00  0.00    -0.126 OA
ATOM      7  N   UNL     1       9.443   4.864  10.086  0.00  0.00    +0.056 N 
ENDBRANCH  21   7
ENDBRANCH  13  15
ENDBRANCH   4  13
TORSDOF 5
ENDMDL
MODEL 3
REMARK VINA RESULT:      -7.2      3.400     10.526
REMARK  Name = 51137308
REMARK  5 active torsions:
REMARK  status: ('A' for Active; 'I' for Inactive)
REMARK    1  A    between atoms: N_4  and  C_13
REMARK    2  A    between atoms: N_7  and  C_21
REMARK    3  A    between atoms: C_9  and  C_14
REMARK    4  A    between atoms: C_13  and  C_15
REMARK    5  A    between atoms: C_18  and  C_22
REMARK                            x       y       z     vdW  Elec       q    Type
REMARK                         _______ _______ _______ _____ _____    ______ ____
ROOT
ATOM      4  N   UNL     1      17.638   7.767  20.840  0.00  0.00    -0.297 NA
ATOM      9  C   UNL     1      19.702   6.660  20.948  0.00  0.00    +0.092 C 
ATOM     10  C   UNL     1      18.703   5.809  20.146  0.00  0.00    +0.029 C 
ATOM     11  C   UNL     1      18.833   7.690  21.682  0.00  0.00    +0.097 C 
ATOM     12  C   UNL     1      17.333   6.379  20.490  0.00  0.00    +0.085 C 
ENDROOT
BRANCH   9  14
ATOM      1  O   UNL     1      21.306   4.851  21.330  0.00  0.00    -0.420 OA
ATOM      5  N   UNL     1      20.815   6.035  23.162  0.00  0.00    -0.112 NA
ATOM      6  N   UNL     1      21.723   5.056  23.518  0.00  0.00    -0.107 NA
ATOM     14  C   UNL     1      20.601   5.878  21.878  0.00  0.00    +0.222 A 
ATOM     18  C   UNL     1      21.982   4.389  22.417  0.00  0.00    +0.248 A 
BRANCH  18  22
ATOM      8  N   UNL     1      24.540   1.089  21.743  0.00  0.00    -0.263 NA
ATOM     22  C   UNL     1      22.849   3.270  22.190  0.00  0.00    +0.041 A 
ATOM     23  C   UNL     1      23.131   2.383  23.222  0.00  0.00    +0.033 A 
ATOM     24  C   UNL     1      23.412   3.067  20.934  0.00  0.00    +0.033 A 
ATOM     25  C   UNL     1      23.975   1.318  22.950  0.00  0.00    +0.111 A 
ATOM     26  C   UNL     1      24.242   1.972  20.764  0.00  0.00    +0.111 A 
ENDBRANCH  18  22
ENDBRANCH   9  14
BRANCH   4  13
ATOM     13  C   UNL     1      16.527   8.425  21.511  0.00  0.00    +0.119 C 
BRANCH  13  15
ATOM     15  C   UNL     1      15.251   8.320  20.719  0.00  0.00    -0.033 A 
ATOM     16  C   UNL     1      14.166   7.611  21.234  0.00  0.00    +0.007 A 
ATOM     17  C   UNL     1      15.154   8.933  19.470  0.00  0.00    +0.007 A 
ATOM     19  C   UNL     1      12.984   7.513  20.499  0.00  0.00    +0.033 A 
ATOM     20  C   UNL     1      13.973   8.836  18.735  0.00  0.00    +0.033 A 
ATOM     21  C   UNL     1      12.888   8.126  19.249  0.00  0.00    +0.126 A 
BRANCH  21   7
ATOM      2  O   UNL     1      10.638   8.546  18.960  0.00  0.00    -0.126 OA
ATOM      3  O   UNL     1      11.701   7.422  17.403  0.00  0.00    -0.126 OA
ATOM      7  N   UNL     1      11.685   8.027  18.502  0.00  0.00    +0.056 N 
ENDBRANCH  21   7
ENDBRANCH  13  15
ENDBRANCH   4  13
TORSDOF 5
ENDMDL
MODEL 4
REMARK VINA RESULT:      -7.1      2.483      9.253
REMARK  Name = 51137308
REMARK  5 active torsions:
REMARK  status: ('A' for Active; 'I' for Inactive)
REMARK    1  A    between atoms: N_4  and  C_13
REMARK    2  A    between atoms: N_7  and  C_21
REMARK    3  A    between atoms: C_9  and  C_14
REMARK    4  A    between atoms: C_13  and  C_15
REMARK    5  A    between atoms: C_18  and  C_22
REMARK                            x       y       z     vdW  Elec       q    Type
REMARK                         _______ _______ _______ _____ _____    ______ ____
ROOT
ATOM      4  N   UNL     1      12.833   8.405  19.609  0.00  0.00    -0.297 NA
ATOM      9  C   UNL     1      15.050   7.967  18.985  0.00  0.00    +0.092 C 
ATOM     10  C   UNL     1      14.114   7.682  17.797  0.00  0.00    +0.029 C 
ATOM     11  C   UNL     1      14.120   8.038  20.203  0.00  0.00    +0.097 C 
ATOM     12  C   UNL     1      12.722   7.580  18.407  0.00  0.00    +0.085 C 
ENDROOT
BRANCH   9  14
ATOM      1  O   UNL     1      17.128   7.281  20.082  0.00  0.00    -0.420 OA
ATOM      5  N   UNL     1      16.386   5.833  18.547  0.00  0.00    -0.112 NA
ATOM      6  N   UNL     1      17.555   5.326  19.082  0.00  0.00    -0.107 NA
ATOM     14  C   UNL     1      16.176   6.974  19.159  0.00  0.00    +0.222 A 
ATOM     18  C   UNL     1      17.953   6.204  19.974  0.00  0.00    +0.248 A 
BRANCH  18  22
ATOM      8  N   UNL     1      21.336   6.202  22.511  0.00  0.00    -0.263 NA
ATOM     22  C   UNL     1      19.100   6.202  20.833  0.00  0.00    +0.041 A 
ATOM     23  C   UNL     1      20.178   5.370  20.558  0.00  0.00    +0.033 A 
ATOM     24  C   UNL     1      19.139   7.035  21.947  0.00  0.00    +0.033 A 
ATOM     25  C   UNL     1      21.263   5.406  21.420  0.00  0.00    +0.111 A 
ATOM     26  C   UNL     1      20.269   6.997  22.746  0.00  0.00    +0.111 A 
ENDBRANCH  18  22
ENDBRANCH   9  14
BRANCH   4  13
ATOM     13  C   UNL     1      11.720   8.202  20.525  0.00  0.00    +0.119 C 
BRANCH  13  15
ATOM     15  C   UNL     1      11.511   9.389  21.426  0.00  0.00    -0.033 A 
ATOM     16  C   UNL     1      11.761  10.678  20.953  0.00  0.00    +0.007 A 
ATOM     17  C   UNL     1      11.067   9.201  22.735  0.00  0.00    +0.007 A 
ATOM     19  C   UNL     1      11.568  11.777  21.790  0.00  0.00    +0.033 A 
ATOM     20  C   UNL     1      10.874  10.300  23.571  0.00  0.00    +0.033 A 
ATOM     21  C   UNL     1      11.124  11.588  23.099  0.00  0.00    +0.126 A 
BRANCH  21   7
ATOM      2  O   UNL     1      11.519  13.783  23.688  0.00  0.00    -0.126 OA
ATOM      3  O   UNL     1      10.167  12.592  24.940  0.00  0.00    -0.126 OA
ATOM      7  N   UNL     1      10.928  12.708  23.949  0.00  0.00    +0.056 N 
ENDBRANCH  21   7
ENDBRANCH  13  15
ENDBRANCH   4  13
TORSDOF 5
ENDMDL
MODEL 5
REMARK VINA RESULT:      -6.9      2.953     10.585
REMARK  Name = 51137308
REMARK  5 active torsions:
REMARK  status: ('A' for Active; 'I' for Inactive)
REMARK    1  A    between atoms: N_4  and  C_13
REMARK    2  A    between atoms: N_7  and  C_21
REMARK    3  A    between atoms: C_9  and  C_14
REMARK    4  A    between atoms: C_13  and  C_15
REMARK    5  A    between atoms: C_18  and  C_22
REMARK                            x       y       z     vdW  Elec       q    Type
REMARK                         _______ _______ _______ _____ _____    ______ ____
ROOT
ATOM      4  N   UNL     1      17.749   7.880  21.471  0.00  0.00    -0.297 NA
ATOM      9  C   UNL     1      19.499   6.434  22.060  0.00  0.00    +0.092 C 
ATOM     10  C   UNL     1      19.752   7.823  22.669  0.00  0.00    +0.029 C 
ATOM     11  C   UNL     1      18.419   6.668  20.995  0.00  0.00    +0.097 C 
ATOM     12  C   UNL     1      18.832   8.764  21.903  0.00  0.00    +0.085 C 
ENDROOT
BRANCH   9  14
ATOM      1  O   UNL     1      21.152   4.631  22.168  0.00  0.00    -0.420 OA
ATOM      5  N   UNL     1      21.471   6.061  20.478  0.00  0.00    -0.112 NA
ATOM      6  N   UNL     1      22.466   5.103  20.421  0.00  0.00    -0.107 NA
ATOM     14  C   UNL     1      20.728   5.746  21.512  0.00  0.00    +0.222 A 
ATOM     18  C   UNL     1      22.240   4.290  21.426  0.00  0.00    +0.248 A 
BRANCH  18  22
ATOM      8  N   UNL     1      24.337   0.839  22.683  0.00  0.00    -0.263 NA
ATOM     22  C   UNL     1      22.951   3.120  21.853  0.00  0.00    +0.041 A 
ATOM     23  C   UNL     1      22.991   2.780  23.200  0.00  0.00    +0.033 A 
ATOM     24  C   UNL     1      23.604   2.321  20.921  0.00  0.00    +0.033 A 
ATOM     25  C   UNL     1      23.692   1.640  23.561  0.00  0.00    +0.111 A 
ATOM     26  C   UNL     1      24.275   1.201  21.383  0.00  0.00    +0.111 A 
ENDBRANCH  18  22
ENDBRANCH   9  14
BRANCH   4  13
ATOM     13  C   UNL     1      16.911   8.489  20.450  0.00  0.00    +0.119 C 
BRANCH  13  15
ATOM     15  C   UNL     1      15.473   8.059  20.574  0.00  0.00    -0.033 A 
ATOM     16  C   UNL     1      14.769   8.311  21.752  0.00  0.00    +0.007 A 
ATOM     17  C   UNL     1      14.845   7.409  19.512  0.00  0.00    +0.007 A 
ATOM     19  C   UNL     1      13.437   7.912  21.867  0.00  0.00    +0.033 A 
ATOM     20  C   UNL     1      13.514   7.010  19.627  0.00  0.00    +0.033 A 
ATOM     21  C   UNL     1      12.810   7.262  20.804  0.00  0.00    +0.126 A 
BRANCH  21   7
ATOM      2  O   UNL     1      10.547   7.708  20.766  0.00  0.00    -0.126 OA
ATOM      3  O   UNL     1      11.200   5.654  21.180  0.00  0.00    -0.126 OA
ATOM      7  N   UNL     1      11.455   6.856  20.923  0.00  0.00    +0.056 N 
ENDBRANCH  21   7
ENDBRANCH  13  15
ENDBRANCH   4  13
TORSDOF 5
ENDMDL
MODEL 6
REMARK VINA RESULT:      -6.9      3.474      8.553
REMARK  Name = 51137308
REMARK  5 active torsions:
REMARK  status: ('A' for Active; 'I' for Inactive)
REMARK    1  A    between atoms: N_4  and  C_13
REMARK    2  A    between atoms: N_7  and  C_21
REMARK    3  A    between atoms: C_9  and  C_14
REMARK    4  A    between atoms: C_13  and  C_15
REMARK    5  A    between atoms: C_18  and  C_22
REMARK                            x       y       z     vdW  Elec       q    Type
REMARK                         _______ _______ _______ _____ _____    ______ ____
ROOT
ATOM      4  N   UNL     1      12.614   7.938  20.688  0.00  0.00    -0.297 NA
ATOM      9  C   UNL     1      14.560   6.640  20.856  0.00  0.00    +0.092 C 
ATOM     10  C   UNL     1      14.591   7.754  21.916  0.00  0.00    +0.029 C 
ATOM     11  C   UNL     1      13.466   7.072  19.871  0.00  0.00    +0.097 C 
ATOM     12  C   UNL     1      13.544   8.762  21.460  0.00  0.00    +0.085 C 
ENDROOT
BRANCH   9  14
ATOM      1  O   UNL     1      16.998   6.454  20.961  0.00  0.00    -0.420 OA
ATOM      5  N   UNL     1      16.138   6.044  18.937  0.00  0.00    -0.112 NA
ATOM      6  N   UNL     1      17.511   5.906  18.853  0.00  0.00    -0.107 NA
ATOM     14  C   UNL     1      15.885   6.364  20.184  0.00  0.00    +0.222 A 
ATOM     18  C   UNL     1      17.971   6.154  20.058  0.00  0.00    +0.248 A 
BRANCH  18  22
ATOM      8  N   UNL     1      21.936   6.162  21.530  0.00  0.00    -0.263 NA
ATOM     22  C   UNL     1      19.315   6.158  20.557  0.00  0.00    +0.041 A 
ATOM     23  C   UNL     1      19.803   7.264  21.243  0.00  0.00    +0.033 A 
ATOM     24  C   UNL     1      20.137   5.054  20.356  0.00  0.00    +0.033 A 
ATOM     25  C   UNL     1      21.109   7.217  21.705  0.00  0.00    +0.111 A 
ATOM     26  C   UNL     1      21.427   5.106  20.858  0.00  0.00    +0.111 A 
ENDBRANCH  18  22
ENDBRANCH   9  14
BRANCH   4  13
ATOM     13  C   UNL     1      11.701   8.737  19.885  0.00  0.00    +0.119 C 
BRANCH  13  15
ATOM     15  C   UNL     1      12.364   9.270  18.644  0.00  0.00    -0.033 A 
ATOM     16  C   UNL     1      13.233  10.358  18.729  0.00  0.00    +0.007 A 
ATOM     17  C   UNL     1      12.110   8.676  17.407  0.00  0.00    +0.007 A 
ATOM     19  C   UNL     1      13.847  10.853  17.578  0.00  0.00    +0.033 A 
ATOM     20  C   UNL     1      12.723   9.170  16.257  0.00  0.00    +0.033 A 
ATOM     21  C   UNL     1      13.592  10.258  16.342  0.00  0.00    +0.126 A 
BRANCH  21   7
ATOM      2  O   UNL     1      15.049  10.043  14.567  0.00  0.00    -0.126 OA
ATOM      3  O   UNL     1      13.919  11.914  14.771  0.00  0.00    -0.126 OA
ATOM      7  N   UNL     1      14.217  10.762  15.171  0.00  0.00    +0.056 N 
ENDBRANCH  21   7
ENDBRANCH  13  15
ENDBRANCH   4  13
TORSDOF 5
ENDMDL
MODEL 7
REMARK VINA RESULT:      -6.8      3.826      4.880
REMARK  Name = 51137308
REMARK  5 active torsions:
REMARK  status: ('A' for Active; 'I' for Inactive)
REMARK    1  A    between atoms: N_4  and  C_13
REMARK    2  A    between atoms: N_7  and  C_21
REMARK    3  A    between atoms: C_9  and  C_14
REMARK    4  A    between atoms: C_13  and  C_15
REMARK    5  A    between atoms: C_18  and  C_22
REMARK                            x       y       z     vdW  Elec       q    Type
REMARK                         _______ _______ _______ _____ _____    ______ ____
ROOT
ATOM      4  N   UNL     1      18.434   6.371  20.666  0.00  0.00    -0.297 NA
ATOM      9  C   UNL     1      16.172   6.947  20.439  0.00  0.00    +0.092 C 
ATOM     10  C   UNL     1      16.547   5.905  19.371  0.00  0.00    +0.029 C 
ATOM     11  C   UNL     1      17.517   7.475  20.956  0.00  0.00    +0.097 C 
ATOM     12  C   UNL     1      18.070   5.921  19.322  0.00  0.00    +0.085 C 
ENDROOT
BRANCH   9  14
ATOM      1  O   UNL     1      14.462   7.762  18.889  0.00  0.00    -0.420 OA
ATOM      5  N   UNL     1      15.092   9.263  20.423  0.00  0.00    -0.112 NA
ATOM      6  N   UNL     1      14.131   9.850  19.621  0.00  0.00    -0.107 NA
ATOM     14  C   UNL     1      15.253   8.047  19.959  0.00  0.00    +0.222 A 
ATOM     18  C   UNL     1      13.793   8.938  18.740  0.00  0.00    +0.248 A 
BRANCH  18  22
ATOM      8  N   UNL     1      10.998   9.092  15.569  0.00  0.00    -0.263 NA
ATOM     22  C   UNL     1      12.844   8.989  17.665  0.00  0.00    +0.041 A 
ATOM     23  C   UNL     1      11.544   8.539  17.859  0.00  0.00    +0.033 A 
ATOM     24  C   UNL     1      13.223   9.490  16.424  0.00  0.00    +0.033 A 
ATOM     25  C   UNL     1      10.666   8.611  16.788  0.00  0.00    +0.111 A 
ATOM     26  C   UNL     1      12.271   9.520  15.419  0.00  0.00    +0.111 A 
ENDBRANCH  18  22
ENDBRANCH   9  14
BRANCH   4  13
ATOM     13  C   UNL     1      19.830   6.769  20.758  0.00  0.00    +0.119 C 
BRANCH  13  15
ATOM     15  C   UNL     1      20.691   5.671  21.325  0.00  0.00    -0.033 A 
ATOM     16  C   UNL     1      20.851   4.477  20.623  0.00  0.00    +0.007 A 
ATOM     17  C   UNL     1      21.329   5.849  22.552  0.00  0.00    +0.007 A 
ATOM     19  C   UNL     1      21.647   3.459  21.149  0.00  0.00    +0.033 A 
ATOM     20  C   UNL     1      22.125   4.833  23.078  0.00  0.00    +0.033 A 
ATOM     21  C   UNL     1      22.285   3.638  22.377  0.00  0.00    +0.126 A 
BRANCH  21   7
ATOM      2  O   UNL     1      22.930   2.254  24.106  0.00  0.00    -0.126 OA
ATOM      3  O   UNL     1      23.956   2.063  22.175  0.00  0.00    -0.126 OA
ATOM      7  N   UNL     1      23.096   2.603  22.912  0.00  0.00    +0.056 N 
ENDBRANCH  21   7
ENDBRANCH  13  15
ENDBRANCH   4  13
TORSDOF 5
ENDMDL
MODEL 8
REMARK VINA RESULT:      -6.7     18.481     21.315
REMARK  Name = 51137308
REMARK  5 active torsions:
REMARK  status: ('A' for Active; 'I' for Inactive)
REMARK    1  A    between atoms: N_4  and  C_13
REMARK    2  A    between atoms: N_7  and  C_21
REMARK    3  A    between atoms: C_9  and  C_14
REMARK    4  A    between atoms: C_13  and  C_15
REMARK    5  A    between atoms: C_18  and  C_22
REMARK                            x       y       z     vdW  Elec       q    Type
REMARK                         _______ _______ _______ _____ _____    ______ ____
ROOT
ATOM      4  N   UNL     1      10.711   5.502   3.968  0.00  0.00    -0.297 NA
ATOM      9  C   UNL     1      11.577   4.451   2.059  0.00  0.00    +0.092 C 
ATOM     10  C   UNL     1      12.515   5.592   2.488  0.00  0.00    +0.029 C 
ATOM     11  C   UNL     1      10.267   4.721   2.811  0.00  0.00    +0.097 C 
ATOM     12  C   UNL     1      11.683   6.454   3.430  0.00  0.00    +0.085 C 
ENDROOT
BRANCH   9  14
ATOM      1  O   UNL     1      12.467   4.558  -0.219  0.00  0.00    -0.420 OA
ATOM      5  N   UNL     1      10.304   3.996  -0.110  0.00  0.00    -0.112 NA
ATOM      6  N   UNL     1      10.673   4.019  -1.443  0.00  0.00    -0.107 NA
ATOM     14  C   UNL     1      11.382   4.316   0.566  0.00  0.00    +0.222 A 
ATOM     18  C   UNL     1      11.943   4.351  -1.458  0.00  0.00    +0.248 A 
BRANCH  18  22
ATOM      8  N   UNL     1      14.605   4.871  -4.704  0.00  0.00    -0.263 NA
ATOM     22  C   UNL     1      12.845   4.527  -2.559  0.00  0.00    +0.041 A 
ATOM     23  C   UNL     1      12.370   4.487  -3.864  0.00  0.00    +0.033 A 
ATOM     24  C   UNL     1      14.199   4.739  -2.325  0.00  0.00    +0.033 A 
ATOM     25  C   UNL     1      13.282   4.663  -4.893  0.00  0.00    +0.111 A 
ATOM     26  C   UNL     1      15.029   4.904  -3.421  0.00  0.00    +0.111 A 
ENDBRANCH  18  22
ENDBRANCH   9  14
BRANCH   4  13
ATOM     13  C   UNL     1       9.607   6.163   4.649  0.00  0.00    +0.119 C 
BRANCH  13  15
ATOM     15  C   UNL     1       9.556   5.806   6.110  0.00  0.00    -0.033 A 
ATOM     16  C   UNL     1       9.859   4.509   6.523  0.00  0.00    +0.007 A 
ATOM     17  C   UNL     1       9.204   6.773   7.052  0.00  0.00    +0.007 A 
ATOM     19  C   UNL     1       9.810   4.178   7.878  0.00  0.00    +0.033 A 
ATOM     20  C   UNL     1       9.155   6.443   8.405  0.00  0.00    +0.033 A 
ATOM     21  C   UNL     1       9.458   5.146   8.819  0.00  0.00    +0.126 A 
BRANCH  21   7
ATOM      2  O   UNL     1      10.471   4.811  10.864  0.00  0.00    -0.126 OA
ATOM      3  O   UNL     1       8.301   4.519  10.712  0.00  0.00    -0.126 OA
ATOM      7  N   UNL     1       9.408   4.809  10.197  0.00  0.00    +0.056 N 
ENDBRANCH  21   7
ENDBRANCH  13  15
ENDBRANCH   4  13
TORSDOF 5
ENDMDL
MODEL 9
REMARK VINA RESULT:      -6.6     17.914     20.826
REMARK  Name = 51137308
REMARK  5 active torsions:
REMARK  status: ('A' for Active; 'I' for Inactive)
REMARK    1  A    between atoms: N_4  and  C_13
REMARK    2  A    between atoms: N_7  and  C_21
REMARK    3  A    between atoms: C_9  and  C_14
REMARK    4  A    between atoms: C_13  and  C_15
REMARK    5  A    between atoms: C_18  and  C_22
REMARK                            x       y       z     vdW  Elec       q    Type
REMARK                         _______ _______ _______ _____ _____    ______ ____
ROOT
ATOM      4  N   UNL     1      10.664   6.626   4.065  0.00  0.00    -0.297 NA
ATOM      9  C   UNL     1      12.549   6.016   2.812  0.00  0.00    +0.092 C 
ATOM     10  C   UNL     1      12.042   7.390   2.342  0.00  0.00    +0.029 C 
ATOM     11  C   UNL     1      11.389   5.431   3.628  0.00  0.00    +0.097 C 
ATOM     12  C   UNL     1      10.624   7.495   2.888  0.00  0.00    +0.085 C 
ENDROOT
BRANCH   9  14
ATOM      1  O   UNL     1      12.215   5.007   0.606  0.00  0.00    -0.420 OA
ATOM      5  N   UNL     1      14.091   4.352   1.634  0.00  0.00    -0.112 NA
ATOM      6  N   UNL     1      14.028   3.712   0.410  0.00  0.00    -0.107 NA
ATOM     14  C   UNL     1      13.013   5.097   1.705  0.00  0.00    +0.222 A 
ATOM     18  C   UNL     1      12.917   4.124  -0.155  0.00  0.00    +0.248 A 
BRANCH  18  22
ATOM      8  N   UNL     1      11.223   3.148  -3.905  0.00  0.00    -0.263 NA
ATOM     22  C   UNL     1      12.341   3.793  -1.426  0.00  0.00    +0.041 A 
ATOM     23  C   UNL     1      10.962   3.799  -1.591  0.00  0.00    +0.033 A 
ATOM     24  C   UNL     1      13.163   3.465  -2.500  0.00  0.00    +0.033 A 
ATOM     25  C   UNL     1      10.456   3.471  -2.839  0.00  0.00    +0.111 A 
ATOM     26  C   UNL     1      12.559   3.154  -3.706  0.00  0.00    +0.111 A 
ENDBRANCH  18  22
ENDBRANCH   9  14
BRANCH   4  13
ATOM     13  C   UNL     1       9.335   6.316   4.570  0.00  0.00    +0.119 C 
BRANCH  13  15
ATOM     15  C   UNL     1       9.361   5.946   6.029  0.00  0.00    -0.033 A 
ATOM     16  C   UNL     1       8.986   6.883   6.993  0.00  0.00    +0.007 A 
ATOM     17  C   UNL     1       9.759   4.667   6.418  0.00  0.00    +0.007 A 
ATOM     19  C   UNL     1       9.011   6.540   8.345  0.00  0.00    +0.033 A 
ATOM     20  C   UNL     1       9.784   4.325   7.769  0.00  0.00    +0.033 A 
ATOM     21  C   UNL     1       9.410   5.261   8.733  0.00  0.00    +0.126 A 
BRANCH  21   7
ATOM      2  O   UNL     1      10.536   4.896  10.713  0.00  0.00    -0.126 OA
ATOM      3  O   UNL     1       8.357   4.632  10.685  0.00  0.00    -0.126 OA
ATOM      7  N   UNL     1       9.436   4.913  10.109  0.00  0.00    +0.056 N 
ENDBRANCH  21   7
ENDBRANCH  13  15
ENDBRANCH   4  13
TORSDOF 5
ENDMDL
MODEL 10
REMARK VINA RESULT:      -6.5     27.240     30.620
REMARK  Name = 51137308
REMARK  5 active torsions:
REMARK  status: ('A' for Active; 'I' for Inactive)
REMARK    1  A    between atoms: N_4  and  C_13
REMARK    2  A    between atoms: N_7  and  C_21
REMARK    3  A    between atoms: C_9  and  C_14
REMARK    4  A    between atoms: C_13  and  C_15
REMARK    5  A    between atoms: C_18  and  C_22
REMARK                            x       y       z     vdW  Elec       q    Type
REMARK                         _______ _______ _______ _____ _____    ______ ____
ROOT
ATOM      4  N   UNL     1     -15.001   5.714  22.236  0.00  0.00    -0.297 NA
ATOM      9  C   UNL     1     -15.758   3.763  23.294  0.00  0.00    +0.092 C 
ATOM     10  C   UNL     1     -16.948   4.494  22.649  0.00  0.00    +0.029 C 
ATOM     11  C   UNL     1     -14.632   4.805  23.323  0.00  0.00    +0.097 C 
ATOM     12  C   UNL     1     -16.444   5.906  22.378  0.00  0.00    +0.085 C 
ENDROOT
BRANCH   9  14
ATOM      1  O   UNL     1     -15.830   3.962  25.733  0.00  0.00    -0.420 OA
ATOM      5  N   UNL     1     -16.468   1.962  24.961  0.00  0.00    -0.112 NA
ATOM      6  N   UNL     1     -16.555   1.936  26.341  0.00  0.00    -0.107 NA
ATOM     14  C   UNL     1     -16.041   3.163  24.652  0.00  0.00    +0.222 A 
ATOM     18  C   UNL     1     -16.173   3.124  26.748  0.00  0.00    +0.248 A 
BRANCH  18  22
ATOM      8  N   UNL     1     -15.853   4.710  30.656  0.00  0.00    -0.263 NA
ATOM     22  C   UNL     1     -16.065   3.663  28.072  0.00  0.00    +0.041 A 
ATOM     23  C   UNL     1     -16.797   4.788  28.431  0.00  0.00    +0.033 A 
ATOM     24  C   UNL     1     -15.226   3.060  29.004  0.00  0.00    +0.033 A 
ATOM     25  C   UNL     1     -16.657   5.269  29.724  0.00  0.00    +0.111 A 
ATOM     26  C   UNL     1     -15.157   3.618  30.270  0.00  0.00    +0.111 A 
ENDBRANCH  18  22
ENDBRANCH   9  14
BRANCH   4  13
ATOM     13  C   UNL     1     -14.267   6.970  22.288  0.00  0.00    +0.119 C 
BRANCH  13  15
ATOM     15  C   UNL     1     -13.568   7.267  20.989  0.00  0.00    -0.033 A 
ATOM     16  C   UNL     1     -12.204   7.006  20.855  0.00  0.00    +0.007 A 
ATOM     17  C   UNL     1     -14.284   7.802  19.918  0.00  0.00    +0.007 A 
ATOM     19  C   UNL     1     -11.556   7.282  19.650  0.00  0.00    +0.033 A 
ATOM     20  C   UNL     1     -13.637   8.077  18.714  0.00  0.00    +0.033 A 
ATOM     21  C   UNL     1     -12.274   7.818  18.580  0.00  0.00    +0.126 A 
BRANCH  21   7
ATOM      2  O   UNL     1     -12.299   8.408  16.350  0.00  0.00    -0.126 OA
ATOM      3  O   UNL     1     -10.361   8.029  17.309  0.00  0.00    -0.126 OA
ATOM      7  N   UNL     1     -11.613   8.098  17.354  0.00  0.00    +0.056 N 
ENDBRANCH  21   7
ENDBRANCH  13  15
ENDBRANCH   4  13
TORSDOF 5
ENDMDL
