MODEL 1
REMARK VINA RESULT:      -6.5      0.000      0.000
REMARK  Name = 26743050
REMARK  7 active torsions:
REMARK  status: ('A' for Active; 'I' for Inactive)
REMARK    1  A    between atoms: O_3  and  C_25
REMARK    2  A    between atoms: O_3  and  C_30
REMARK    3  A    between atoms: C_9  and  C_13
REMARK    4  A    between atoms: C_10  and  C_15
REMARK    5  A    between atoms: C_13  and  C_16
REMARK    6  A    between atoms: C_15  and  C_17
REMARK    7  A    between atoms: C_24  and  C_25
REMARK                            x       y       z     vdW  Elec       q    Type
REMARK                         _______ _______ _______ _____ _____    ______ ____
ROOT
ATOM      4  N   UNL     1     -18.351  -0.094  27.621  0.00  0.00    -0.316 NA
ATOM      9  C   UNL     1     -16.842   1.852  25.995  0.00  0.00    +0.004 C 
ATOM     10  C   UNL     1     -16.486   1.539  27.468  0.00  0.00    +0.012 C 
ATOM     11  C   UNL     1     -17.588   0.650  25.393  0.00  0.00    +0.019 C 
ATOM     12  C   UNL     1     -17.714   1.060  28.259  0.00  0.00    +0.085 C 
ATOM     14  C   UNL     1     -18.769   0.205  26.254  0.00  0.00    +0.081 C 
ATOM     31  H   UNL     1     -19.164  -0.376  28.168  0.00  0.00    +0.122 HD
ENDROOT
BRANCH   9  13
ATOM     13  C   UNL     1     -17.648   3.143  25.810  0.00  0.00    +0.100 C 
BRANCH  13  16
ATOM      1  O   UNL     1     -18.900   3.045  23.794  0.00  0.00    -0.276 OA
ATOM      5  N   UNL     1     -16.824   4.084  23.683  0.00  0.00    -0.298 N 
ATOM      6  N   UNL     1     -14.841   5.651  22.271  0.00  0.00    -0.312 N 
ATOM      8  N   UNL     1     -12.628   5.991  21.520  0.00  0.00    -0.240 NA
ATOM     16  C   UNL     1     -17.858   3.415  24.340  0.00  0.00    +0.216 C 
ATOM     18  C   UNL     1     -16.949   4.379  22.257  0.00  0.00    +0.126 C 
ATOM     19  C   UNL     1     -15.591   4.532  24.334  0.00  0.00    +0.126 C 
ATOM     20  C   UNL     1     -16.254   5.686  21.882  0.00  0.00    +0.125 C 
ATOM     21  C   UNL     1     -14.442   4.742  23.349  0.00  0.00    +0.125 C 
ATOM     23  C   UNL     1     -13.902   6.436  21.608  0.00  0.00    +0.121 A 
ATOM     26  C   UNL     1     -14.341   7.638  21.075  0.00  0.00    +0.043 A 
ATOM     27  C   UNL     1     -13.415   8.432  20.409  0.00  0.00    +0.005 A 
ATOM     28  C   UNL     1     -11.756   6.790  20.867  0.00  0.00    +0.113 A 
ATOM     29  C   UNL     1     -12.095   8.008  20.299  0.00  0.00    +0.020 A 
ENDBRANCH  13  16
ENDBRANCH   9  13
BRANCH  10  15
ATOM     15  C   UNL     1     -15.810   2.710  28.184  0.00  0.00    +0.064 C 
BRANCH  15  17
ATOM      2  O   UNL     1     -14.221   1.267  31.074  0.00  0.00    -0.357 OA
ATOM      7  N   UNL     1     -14.408   1.380  29.702  0.00  0.00    -0.083 NA
ATOM     17  C   UNL     1     -15.349   2.318  29.558  0.00  0.00    +0.084 A 
ATOM     22  C   UNL     1     -15.788   2.828  30.791  0.00  0.00    +0.073 A 
ATOM     24  C   UNL     1     -15.048   2.135  31.712  0.00  0.00    +0.163 A 
BRANCH  24  25
ATOM     25  C   UNL     1     -14.979   2.147  33.179  0.00  0.00    +0.236 C 
BRANCH  25   3
ATOM      3  O   UNL     1     -14.208   3.265  33.629  0.00  0.00    -0.375 OA
ATOM     30  C   UNL     1     -15.044   4.338  34.028  0.00  0.00    +0.194 C 
ENDBRANCH  25   3
ENDBRANCH  24  25
ENDBRANCH  15  17
ENDBRANCH  10  15
TORSDOF 6
ENDMDL
MODEL 2
REMARK VINA RESULT:      -6.5     20.496     23.121
REMARK  Name = 26743050
REMARK  7 active torsions:
REMARK  status: ('A' for Active; 'I' for Inactive)
REMARK    1  A    between atoms: O_3  and  C_25
REMARK    2  A    between atoms: O_3  and  C_30
REMARK    3  A    between atoms: C_9  and  C_13
REMARK    4  A    between atoms: C_10  and  C_15
REMARK    5  A    between atoms: C_13  and  C_16
REMARK    6  A    between atoms: C_15  and  C_17
REMARK    7  A    between atoms: C_24  and  C_25
REMARK                            x       y       z     vdW  Elec       q    Type
REMARK                         _______ _______ _______ _____ _____    ______ ____
ROOT
ATOM      4  N   UNL     1      -3.160 -15.709  12.701  0.00  0.00    -0.316 NA
ATOM      9  C   UNL     1      -4.036 -13.072  13.696  0.00  0.00    +0.004 C 
ATOM     10  C   UNL     1      -2.917 -13.238  12.640  0.00  0.00    +0.012 C 
ATOM     11  C   UNL     1      -4.956 -14.304  13.650  0.00  0.00    +0.019 C 
ATOM     12  C   UNL     1      -2.210 -14.597  12.770  0.00  0.00    +0.085 C 
ATOM     14  C   UNL     1      -4.180 -15.617  13.743  0.00  0.00    +0.081 C 
ATOM     31  H   UNL     1      -2.656 -16.590  12.800  0.00  0.00    +0.122 HD
ENDROOT
BRANCH   9  13
ATOM     13  C   UNL     1      -3.519 -12.832  15.119  0.00  0.00    +0.100 C 
BRANCH  13  16
ATOM      1  O   UNL     1      -3.082 -10.500  15.224  0.00  0.00    -0.276 OA
ATOM      5  N   UNL     1      -4.987 -11.254  16.320  0.00  0.00    -0.298 N 
ATOM      6  N   UNL     1      -7.465 -10.764  17.733  0.00  0.00    -0.312 N 
ATOM      8  N   UNL     1      -8.904 -11.130  19.570  0.00  0.00    -0.240 NA
ATOM     16  C   UNL     1      -3.834 -11.421  15.552  0.00  0.00    +0.216 C 
ATOM     18  C   UNL     1      -5.357  -9.919  16.783  0.00  0.00    +0.126 C 
ATOM     19  C   UNL     1      -5.885 -12.347  16.701  0.00  0.00    +0.126 C 
ATOM     20  C   UNL     1      -6.872  -9.742  16.865  0.00  0.00    +0.125 C 
ATOM     21  C   UNL     1      -6.732 -12.017  17.929  0.00  0.00    +0.125 C 
ATOM     23  C   UNL     1      -8.677 -10.530  18.379  0.00  0.00    +0.121 A 
ATOM     26  C   UNL     1      -9.579  -9.687  17.751  0.00  0.00    +0.043 A 
ATOM     27  C   UNL     1     -10.793  -9.444  18.385  0.00  0.00    +0.005 A 
ATOM     28  C   UNL     1     -10.094 -10.871  20.155  0.00  0.00    +0.113 A 
ATOM     29  C   UNL     1     -11.063 -10.043  19.610  0.00  0.00    +0.020 A 
ENDBRANCH  13  16
ENDBRANCH   9  13
BRANCH  10  15
ATOM     15  C   UNL     1      -1.898 -12.098  12.662  0.00  0.00    +0.064 C 
BRANCH  15  17
ATOM      2  O   UNL     1      -2.148  -9.118  10.658  0.00  0.00    -0.357 OA
ATOM      7  N   UNL     1      -1.502  -9.924  11.587  0.00  0.00    -0.083 NA
ATOM     17  C   UNL     1      -2.290 -10.995  11.722  0.00  0.00    +0.084 A 
ATOM     22  C   UNL     1      -3.435 -10.920  10.912  0.00  0.00    +0.073 A 
ATOM     24  C   UNL     1      -3.298  -9.722  10.263  0.00  0.00    +0.163 A 
BRANCH  24  25
ATOM     25  C   UNL     1      -4.111  -9.002   9.275  0.00  0.00    +0.236 C 
BRANCH  25   3
ATOM      3  O   UNL     1      -5.067  -8.166   9.933  0.00  0.00    -0.375 OA
ATOM     30  C   UNL     1      -6.300  -8.841  10.113  0.00  0.00    +0.194 C 
ENDBRANCH  25   3
ENDBRANCH  24  25
ENDBRANCH  15  17
ENDBRANCH  10  15
TORSDOF 6
ENDMDL
MODEL 3
REMARK VINA RESULT:      -6.5      2.834      5.555
REMARK  Name = 26743050
REMARK  7 active torsions:
REMARK  status: ('A' for Active; 'I' for Inactive)
REMARK    1  A    between atoms: O_3  and  C_25
REMARK    2  A    between atoms: O_3  and  C_30
REMARK    3  A    between atoms: C_9  and  C_13
REMARK    4  A    between atoms: C_10  and  C_15
REMARK    5  A    between atoms: C_13  and  C_16
REMARK    6  A    between atoms: C_15  and  C_17
REMARK    7  A    between atoms: C_24  and  C_25
REMARK                            x       y       z     vdW  Elec       q    Type
REMARK                         _______ _______ _______ _____ _____    ______ ____
ROOT
ATOM      4  N   UNL     1     -18.854   5.479  22.702  0.00  0.00    -0.316 NA
ATOM      9  C   UNL     1     -15.999   4.986  22.138  0.00  0.00    +0.004 C 
ATOM     10  C   UNL     1     -16.694   4.492  23.430  0.00  0.00    +0.012 C 
ATOM     11  C   UNL     1     -17.057   5.164  21.037  0.00  0.00    +0.019 C 
ATOM     12  C   UNL     1     -17.894   5.379  23.803  0.00  0.00    +0.085 C 
ATOM     14  C   UNL     1     -18.237   6.021  21.493  0.00  0.00    +0.081 C 
ATOM     31  H   UNL     1     -19.628   6.080  22.983  0.00  0.00    +0.122 HD
ENDROOT
BRANCH   9  13
ATOM     13  C   UNL     1     -15.182   6.269  22.321  0.00  0.00    +0.100 C 
BRANCH  13  16
ATOM      1  O   UNL     1     -13.184   4.985  22.364  0.00  0.00    -0.276 OA
ATOM      5  N   UNL     1     -13.106   6.998  21.205  0.00  0.00    -0.298 N 
ATOM      6  N   UNL     1     -11.765   8.863  19.444  0.00  0.00    -0.312 N 
ATOM      8  N   UNL     1     -11.001  11.039  18.933  0.00  0.00    -0.240 NA
ATOM     16  C   UNL     1     -13.736   6.016  21.971  0.00  0.00    +0.216 C 
ATOM     18  C   UNL     1     -11.704   6.829  20.829  0.00  0.00    +0.126 C 
ATOM     19  C   UNL     1     -13.764   8.217  20.729  0.00  0.00    +0.126 C 
ATOM     20  C   UNL     1     -11.401   7.443  19.464  0.00  0.00    +0.125 C 
ATOM     21  C   UNL     1     -12.776   9.333  20.395  0.00  0.00    +0.125 C 
ATOM     23  C   UNL     1     -11.137   9.744  18.567  0.00  0.00    +0.121 A 
ATOM     26  C   UNL     1     -10.689   9.229  17.361  0.00  0.00    +0.043 A 
ATOM     27  C   UNL     1     -10.060  10.097  16.476  0.00  0.00    +0.005 A 
ATOM     28  C   UNL     1     -10.386  11.853  18.047  0.00  0.00    +0.113 A 
ATOM     29  C   UNL     1      -9.901  11.436  16.817  0.00  0.00    +0.020 A 
ENDBRANCH  13  16
ENDBRANCH   9  13
BRANCH  10  15
ATOM     15  C   UNL     1     -15.735   4.362  24.614  0.00  0.00    +0.064 C 
BRANCH  15  17
ATOM      2  O   UNL     1     -16.589   1.133  25.959  0.00  0.00    -0.357 OA
ATOM      7  N   UNL     1     -16.304   1.988  24.902  0.00  0.00    -0.083 NA
ATOM     17  C   UNL     1     -16.081   3.177  25.469  0.00  0.00    +0.084 A 
ATOM     22  C   UNL     1     -16.210   3.133  26.868  0.00  0.00    +0.073 A 
ATOM     24  C   UNL     1     -16.530   1.827  27.125  0.00  0.00    +0.163 A 
BRANCH  24  25
ATOM     25  C   UNL     1     -16.807   1.071  28.352  0.00  0.00    +0.236 C 
BRANCH  25   3
ATOM      3  O   UNL     1     -15.916   1.476  29.396  0.00  0.00    -0.375 OA
ATOM     30  C   UNL     1     -15.139   0.385  29.859  0.00  0.00    +0.194 C 
ENDBRANCH  25   3
ENDBRANCH  24  25
ENDBRANCH  15  17
ENDBRANCH  10  15
TORSDOF 6
ENDMDL
MODEL 4
REMARK VINA RESULT:      -6.4     18.344     20.196
REMARK  Name = 26743050
REMARK  7 active torsions:
REMARK  status: ('A' for Active; 'I' for Inactive)
REMARK    1  A    between atoms: O_3  and  C_25
REMARK    2  A    between atoms: O_3  and  C_30
REMARK    3  A    between atoms: C_9  and  C_13
REMARK    4  A    between atoms: C_10  and  C_15
REMARK    5  A    between atoms: C_13  and  C_16
REMARK    6  A    between atoms: C_15  and  C_17
REMARK    7  A    between atoms: C_24  and  C_25
REMARK                            x       y       z     vdW  Elec       q    Type
REMARK                         _______ _______ _______ _____ _____    ______ ____
ROOT
ATOM      4  N   UNL     1      -8.283 -11.277  19.743  0.00  0.00    -0.316 NA
ATOM      9  C   UNL     1      -6.340 -10.296  17.750  0.00  0.00    +0.004 C 
ATOM     10  C   UNL     1      -7.843  -9.929  17.704  0.00  0.00    +0.012 C 
ATOM     11  C   UNL     1      -5.956 -10.656  19.194  0.00  0.00    +0.019 C 
ATOM     12  C   UNL     1      -8.711 -11.010  18.369  0.00  0.00    +0.085 C 
ATOM     14  C   UNL     1      -6.886 -11.704  19.803  0.00  0.00    +0.081 C 
ATOM     31  H   UNL     1      -8.874 -12.003  20.147  0.00  0.00    +0.122 HD
ENDROOT
BRANCH   9  13
ATOM     13  C   UNL     1      -5.943 -11.418  16.784  0.00  0.00    +0.100 C 
BRANCH  13  16
ATOM      1  O   UNL     1      -3.615 -10.973  16.620  0.00  0.00    -0.276 OA
ATOM      5  N   UNL     1      -4.859 -10.754  14.669  0.00  0.00    -0.298 N 
ATOM      6  N   UNL     1      -5.045 -10.366  11.806  0.00  0.00    -0.312 N 
ATOM      8  N   UNL     1      -5.944  -9.256   9.926  0.00  0.00    -0.240 NA
ATOM     16  C   UNL     1      -4.695 -11.031  16.027  0.00  0.00    +0.216 C 
ATOM     18  C   UNL     1      -3.700 -10.366  13.868  0.00  0.00    +0.126 C 
ATOM     19  C   UNL     1      -6.140 -10.832  13.964  0.00  0.00    +0.126 C 
ATOM     20  C   UNL     1      -3.811 -10.859  12.427  0.00  0.00    +0.125 C 
ATOM     21  C   UNL     1      -6.162 -10.002  12.681  0.00  0.00    +0.125 C 
ATOM     23  C   UNL     1      -5.135 -10.218  10.425  0.00  0.00    +0.121 A 
ATOM     26  C   UNL     1      -4.378 -11.077   9.643  0.00  0.00    +0.043 A 
ATOM     27  C   UNL     1      -4.457 -10.940   8.262  0.00  0.00    +0.005 A 
ATOM     28  C   UNL     1      -5.995  -9.154   8.579  0.00  0.00    +0.113 A 
ATOM     29  C   UNL     1      -5.279  -9.962   7.711  0.00  0.00    +0.020 A 
ENDBRANCH  13  16
ENDBRANCH   9  13
BRANCH  10  15
ATOM     15  C   UNL     1      -8.345  -9.633  16.290  0.00  0.00    +0.064 C 
BRANCH  15  17
ATOM      2  O   UNL     1     -10.656  -6.991  17.089  0.00  0.00    -0.357 OA
ATOM      7  N   UNL     1      -9.701  -7.936  17.440  0.00  0.00    -0.083 NA
ATOM     17  C   UNL     1      -9.372  -8.538  16.293  0.00  0.00    +0.084 A 
ATOM     22  C   UNL     1     -10.081  -8.019  15.196  0.00  0.00    +0.073 A 
ATOM     24  C   UNL     1     -10.875  -7.050  15.750  0.00  0.00    +0.163 A 
BRANCH  24  25
ATOM     25  C   UNL     1     -11.863  -6.111  15.205  0.00  0.00    +0.236 C 
BRANCH  25   3
ATOM      3  O   UNL     1     -13.075  -6.172  15.963  0.00  0.00    -0.375 OA
ATOM     30  C   UNL     1     -13.900  -7.239  15.526  0.00  0.00    +0.194 C 
ENDBRANCH  25   3
ENDBRANCH  24  25
ENDBRANCH  15  17
ENDBRANCH  10  15
TORSDOF 6
ENDMDL
MODEL 5
REMARK VINA RESULT:      -6.4     20.512     22.114
REMARK  Name = 26743050
REMARK  7 active torsions:
REMARK  status: ('A' for Active; 'I' for Inactive)
REMARK    1  A    between atoms: O_3  and  C_25
REMARK    2  A    between atoms: O_3  and  C_30
REMARK    3  A    between atoms: C_9  and  C_13
REMARK    4  A    between atoms: C_10  and  C_15
REMARK    5  A    between atoms: C_13  and  C_16
REMARK    6  A    between atoms: C_15  and  C_17
REMARK    7  A    between atoms: C_24  and  C_25
REMARK                            x       y       z     vdW  Elec       q    Type
REMARK                         _______ _______ _______ _____ _____    ______ ____
ROOT
ATOM      4  N   UNL     1      -3.958 -13.987  15.538  0.00  0.00    -0.316 NA
ATOM      9  C   UNL     1      -2.835 -11.604  14.207  0.00  0.00    +0.004 C 
ATOM     10  C   UNL     1      -3.163 -11.641  15.719  0.00  0.00    +0.012 C 
ATOM     11  C   UNL     1      -2.592 -13.040  13.712  0.00  0.00    +0.019 C 
ATOM     12  C   UNL     1      -4.282 -12.648  16.033  0.00  0.00    +0.085 C 
ATOM     14  C   UNL     1      -3.724 -13.991  14.096  0.00  0.00    +0.081 C 
ATOM     31  H   UNL     1      -4.725 -14.623  15.756  0.00  0.00    +0.122 HD
ENDROOT
BRANCH   9  13
ATOM     13  C   UNL     1      -3.902 -10.907  13.355  0.00  0.00    +0.100 C 
BRANCH  13  16
ATOM      1  O   UNL     1      -2.036 -10.158  12.092  0.00  0.00    -0.276 OA
ATOM      5  N   UNL     1      -4.133  -9.839  11.143  0.00  0.00    -0.298 N 
ATOM      6  N   UNL     1      -5.826  -9.103   8.914  0.00  0.00    -0.312 N 
ATOM      8  N   UNL     1      -7.626  -7.875   8.003  0.00  0.00    -0.240 NA
ATOM     16  C   UNL     1      -3.263 -10.271  12.145  0.00  0.00    +0.216 C 
ATOM     18  C   UNL     1      -3.591  -9.208   9.942  0.00  0.00    +0.126 C 
ATOM     19  C   UNL     1      -5.589  -9.983  11.202  0.00  0.00    +0.126 C 
ATOM     20  C   UNL     1      -4.434  -9.515   8.706  0.00  0.00    +0.125 C 
ATOM     21  C   UNL     1      -6.320  -9.000  10.289  0.00  0.00    +0.125 C 
ATOM     23  C   UNL     1      -6.641  -8.786   7.830  0.00  0.00    +0.121 A 
ATOM     26  C   UNL     1      -6.386  -9.433   6.632  0.00  0.00    +0.043 A 
ATOM     27  C   UNL     1      -7.192  -9.125   5.541  0.00  0.00    +0.005 A 
ATOM     28  C   UNL     1      -8.389  -7.603   6.922  0.00  0.00    +0.113 A 
ATOM     29  C   UNL     1      -8.215  -8.194   5.681  0.00  0.00    +0.020 A 
ENDBRANCH  13  16
ENDBRANCH   9  13
BRANCH  10  15
ATOM     15  C   UNL     1      -3.503 -10.265  16.293  0.00  0.00    +0.064 C 
BRANCH  15  17
ATOM      2  O   UNL     1      -7.021  -9.871  16.949  0.00  0.00    -0.357 OA
ATOM      7  N   UNL     1      -5.900  -9.744  16.138  0.00  0.00    -0.083 NA
ATOM     17  C   UNL     1      -4.891 -10.238  16.863  0.00  0.00    +0.084 A 
ATOM     22  C   UNL     1      -5.312 -10.686  18.127  0.00  0.00    +0.073 A 
ATOM     24  C   UNL     1      -6.658 -10.433  18.131  0.00  0.00    +0.163 A 
BRANCH  24  25
ATOM     25  C   UNL     1      -7.728 -10.642  19.114  0.00  0.00    +0.236 C 
BRANCH  25   3
ATOM      3  O   UNL     1      -7.336 -11.628  20.074  0.00  0.00    -0.375 OA
ATOM     30  C   UNL     1      -7.998 -12.859  19.844  0.00  0.00    +0.194 C 
ENDBRANCH  25   3
ENDBRANCH  24  25
ENDBRANCH  15  17
ENDBRANCH  10  15
TORSDOF 6
ENDMDL
MODEL 6
REMARK VINA RESULT:      -6.4     18.084     20.290
REMARK  Name = 26743050
REMARK  7 active torsions:
REMARK  status: ('A' for Active; 'I' for Inactive)
REMARK    1  A    between atoms: O_3  and  C_25
REMARK    2  A    between atoms: O_3  and  C_30
REMARK    3  A    between atoms: C_9  and  C_13
REMARK    4  A    between atoms: C_10  and  C_15
REMARK    5  A    between atoms: C_13  and  C_16
REMARK    6  A    between atoms: C_15  and  C_17
REMARK    7  A    between atoms: C_24  and  C_25
REMARK                            x       y       z     vdW  Elec       q    Type
REMARK                         _______ _______ _______ _____ _____    ______ ____
ROOT
ATOM      4  N   UNL     1      -3.220 -11.819  18.213  0.00  0.00    -0.316 NA
ATOM      9  C   UNL     1      -6.116 -11.492  17.748  0.00  0.00    +0.004 C 
ATOM     10  C   UNL     1      -5.054 -11.161  16.673  0.00  0.00    +0.012 C 
ATOM     11  C   UNL     1      -5.531 -12.520  18.731  0.00  0.00    +0.019 C 
ATOM     12  C   UNL     1      -3.706 -10.778  17.305  0.00  0.00    +0.085 C 
ATOM     14  C   UNL     1      -4.174 -12.091  19.286  0.00  0.00    +0.081 C 
ATOM     31  H   UNL     1      -2.332 -11.525  18.619  0.00  0.00    +0.122 HD
ENDROOT
BRANCH   9  13
ATOM     13  C   UNL     1      -6.650 -10.265  18.496  0.00  0.00    +0.100 C 
BRANCH  13  16
ATOM      1  O   UNL     1      -8.513 -11.053  19.739  0.00  0.00    -0.276 OA
ATOM      5  N   UNL     1      -8.982  -9.816  17.828  0.00  0.00    -0.298 N 
ATOM      6  N   UNL     1     -10.838  -8.428  16.094  0.00  0.00    -0.312 N 
ATOM      8  N   UNL     1     -11.749  -8.008  13.956  0.00  0.00    -0.240 NA
ATOM     16  C   UNL     1      -8.129 -10.419  18.753  0.00  0.00    +0.216 C 
ATOM     18  C   UNL     1     -10.428  -9.924  18.005  0.00  0.00    +0.126 C 
ATOM     19  C   UNL     1      -8.524  -9.054  16.664  0.00  0.00    +0.126 C 
ATOM     20  C   UNL     1     -11.160  -8.682  17.501  0.00  0.00    +0.125 C 
ATOM     21  C   UNL     1      -9.580  -8.961  15.564  0.00  0.00    +0.125 C 
ATOM     23  C   UNL     1     -11.723  -7.727  15.278  0.00  0.00    +0.121 A 
ATOM     26  C   UNL     1     -12.529  -6.776  15.885  0.00  0.00    +0.043 A 
ATOM     27  C   UNL     1     -13.418  -6.070  15.083  0.00  0.00    +0.005 A 
ATOM     28  C   UNL     1     -12.625  -7.301  13.209  0.00  0.00    +0.113 A 
ATOM     29  C   UNL     1     -13.473  -6.331  13.718  0.00  0.00    +0.020 A 
ENDBRANCH  13  16
ENDBRANCH   9  13
BRANCH  10  15
ATOM     15  C   UNL     1      -5.512 -10.082  15.690  0.00  0.00    +0.064 C 
BRANCH  15  17
ATOM      2  O   UNL     1      -5.454 -10.946  12.196  0.00  0.00    -0.357 OA
ATOM      7  N   UNL     1      -6.121 -10.638  13.375  0.00  0.00    -0.083 NA
ATOM     17  C   UNL     1      -5.154 -10.442  14.277  0.00  0.00    +0.084 A 
ATOM     22  C   UNL     1      -3.871 -10.612  13.730  0.00  0.00    +0.073 A 
ATOM     24  C   UNL     1      -4.115 -10.928  12.420  0.00  0.00    +0.163 A 
BRANCH  24  25
ATOM     25  C   UNL     1      -3.254 -11.234  11.270  0.00  0.00    +0.236 C 
BRANCH  25   3
ATOM      3  O   UNL     1      -2.539 -10.064  10.861  0.00  0.00    -0.375 OA
ATOM     30  C   UNL     1      -3.336  -9.244  10.023  0.00  0.00    +0.194 C 
ENDBRANCH  25   3
ENDBRANCH  24  25
ENDBRANCH  15  17
ENDBRANCH  10  15
TORSDOF 6
ENDMDL
MODEL 7
REMARK VINA RESULT:      -6.3     17.190     19.329
REMARK  Name = 26743050
REMARK  7 active torsions:
REMARK  status: ('A' for Active; 'I' for Inactive)
REMARK    1  A    between atoms: O_3  and  C_25
REMARK    2  A    between atoms: O_3  and  C_30
REMARK    3  A    between atoms: C_9  and  C_13
REMARK    4  A    between atoms: C_10  and  C_15
REMARK    5  A    between atoms: C_13  and  C_16
REMARK    6  A    between atoms: C_15  and  C_17
REMARK    7  A    between atoms: C_24  and  C_25
REMARK                            x       y       z     vdW  Elec       q    Type
REMARK                         _______ _______ _______ _____ _____    ______ ____
ROOT
ATOM      4  N   UNL     1     -12.705 -10.742  18.648  0.00  0.00    -0.316 NA
ATOM      9  C   UNL     1      -9.857 -10.139  19.131  0.00  0.00    +0.004 C 
ATOM     10  C   UNL     1     -10.709  -9.373  18.091  0.00  0.00    +0.012 C 
ATOM     11  C   UNL     1     -10.787 -10.730  20.203  0.00  0.00    +0.019 C 
ATOM     12  C   UNL     1     -11.866 -10.235  17.560  0.00  0.00    +0.085 C 
ATOM     14  C   UNL     1     -11.935 -11.539  19.601  0.00  0.00    +0.081 C 
ATOM     31  H   UNL     1     -13.454 -11.315  18.258  0.00  0.00    +0.122 HD
ENDROOT
BRANCH   9  13
ATOM     13  C   UNL     1      -8.963 -11.227  18.525  0.00  0.00    +0.100 C 
BRANCH  13  16
ATOM      1  O   UNL     1      -7.194 -10.779  20.045  0.00  0.00    -0.276 OA
ATOM      5  N   UNL     1      -6.624 -10.931  17.797  0.00  0.00    -0.298 N 
ATOM      6  N   UNL     1      -4.655 -11.062  15.680  0.00  0.00    -0.312 N 
ATOM      8  N   UNL     1      -3.793 -10.320  13.610  0.00  0.00    -0.240 NA
ATOM     16  C   UNL     1      -7.518 -10.959  18.869  0.00  0.00    +0.216 C 
ATOM     18  C   UNL     1      -5.208 -10.673  18.047  0.00  0.00    +0.126 C 
ATOM     19  C   UNL     1      -7.008 -11.156  16.401  0.00  0.00    +0.126 C 
ATOM     20  C   UNL     1      -4.309 -11.415  17.060  0.00  0.00    +0.125 C 
ATOM     21  C   UNL     1      -6.007 -10.567  15.409  0.00  0.00    +0.125 C 
ATOM     23  C   UNL     1      -3.708 -11.163  14.663  0.00  0.00    +0.121 A 
ATOM     26  C   UNL     1      -2.729 -12.135  14.801  0.00  0.00    +0.043 A 
ATOM     27  C   UNL     1      -1.777 -12.247  13.794  0.00  0.00    +0.005 A 
ATOM     28  C   UNL     1      -2.852 -10.459  12.651  0.00  0.00    +0.113 A 
ATOM     29  C   UNL     1      -1.833 -11.397  12.695  0.00  0.00    +0.020 A 
ENDBRANCH  13  16
ENDBRANCH   9  13
BRANCH  10  15
ATOM     15  C   UNL     1      -9.881  -8.814  16.933  0.00  0.00    +0.064 C 
BRANCH  15  17
ATOM      2  O   UNL     1     -11.685  -5.933  15.748  0.00  0.00    -0.357 OA
ATOM      7  N   UNL     1     -10.996  -6.633  16.730  0.00  0.00    -0.083 NA
ATOM     17  C   UNL     1     -10.654  -7.790  16.153  0.00  0.00    +0.084 A 
ATOM     22  C   UNL     1     -11.096  -7.874  14.822  0.00  0.00    +0.073 A 
ATOM     24  C   UNL     1     -11.738  -6.682  14.616  0.00  0.00    +0.163 A 
BRANCH  24  25
ATOM     25  C   UNL     1     -12.435  -6.087  13.469  0.00  0.00    +0.236 C 
BRANCH  25   3
ATOM      3  O   UNL     1     -12.070  -4.711  13.326  0.00  0.00    -0.375 OA
ATOM     30  C   UNL     1     -13.186  -3.922  12.951  0.00  0.00    +0.194 C 
ENDBRANCH  25   3
ENDBRANCH  24  25
ENDBRANCH  15  17
ENDBRANCH  10  15
TORSDOF 6
ENDMDL
MODEL 8
REMARK VINA RESULT:      -6.3     20.497     23.617
REMARK  Name = 26743050
REMARK  7 active torsions:
REMARK  status: ('A' for Active; 'I' for Inactive)
REMARK    1  A    between atoms: O_3  and  C_25
REMARK    2  A    between atoms: O_3  and  C_30
REMARK    3  A    between atoms: C_9  and  C_13
REMARK    4  A    between atoms: C_10  and  C_15
REMARK    5  A    between atoms: C_13  and  C_16
REMARK    6  A    between atoms: C_15  and  C_17
REMARK    7  A    between atoms: C_24  and  C_25
REMARK                            x       y       z     vdW  Elec       q    Type
REMARK                         _______ _______ _______ _____ _____    ______ ____
ROOT
ATOM      4  N   UNL     1      -8.681  -9.987   5.624  0.00  0.00    -0.316 NA
ATOM      9  C   UNL     1      -7.175  -9.765   8.153  0.00  0.00    +0.004 C 
ATOM     10  C   UNL     1      -8.143  -8.664   7.657  0.00  0.00    +0.012 C 
ATOM     11  C   UNL     1      -7.586 -11.110   7.531  0.00  0.00    +0.019 C 
ATOM     12  C   UNL     1      -8.274  -8.672   6.124  0.00  0.00    +0.085 C 
ATOM     14  C   UNL     1      -7.736 -11.031   6.013  0.00  0.00    +0.081 C 
ATOM     31  H   UNL     1      -8.748  -9.955   4.607  0.00  0.00    +0.122 HD
ENDROOT
BRANCH   9  13
ATOM     13  C   UNL     1      -5.697  -9.466   7.878  0.00  0.00    +0.100 C 
BRANCH  13  16
ATOM      1  O   UNL     1      -4.456 -11.461   7.538  0.00  0.00    -0.276 OA
ATOM      5  N   UNL     1      -4.538 -10.642   9.711  0.00  0.00    -0.298 N 
ATOM      6  N   UNL     1      -3.674 -10.679  12.474  0.00  0.00    -0.312 N 
ATOM      8  N   UNL     1      -4.148 -10.721  14.787  0.00  0.00    -0.240 NA
ATOM     16  C   UNL     1      -4.841 -10.616   8.349  0.00  0.00    +0.216 C 
ATOM     18  C   UNL     1      -3.718 -11.726  10.246  0.00  0.00    +0.126 C 
ATOM     19  C   UNL     1      -4.987  -9.631  10.672  0.00  0.00    +0.126 C 
ATOM     20  C   UNL     1      -2.848 -11.262  11.412  0.00  0.00    +0.125 C 
ATOM     21  C   UNL     1      -4.988 -10.141  12.112  0.00  0.00    +0.125 C 
ATOM     23  C   UNL     1      -3.231 -10.670  13.794  0.00  0.00    +0.121 A 
ATOM     26  C   UNL     1      -1.862 -10.610  14.005  0.00  0.00    +0.043 A 
ATOM     27  C   UNL     1      -1.406 -10.601  15.318  0.00  0.00    +0.005 A 
ATOM     28  C   UNL     1      -3.667 -10.710  16.049  0.00  0.00    +0.113 A 
ATOM     29  C   UNL     1      -2.319 -10.652  16.366  0.00  0.00    +0.020 A 
ENDBRANCH  13  16
ENDBRANCH   9  13
BRANCH  10  15
ATOM     15  C   UNL     1      -7.769  -7.268   8.156  0.00  0.00    +0.064 C 
BRANCH  15  17
ATOM      2  O   UNL     1     -10.940  -6.146   9.439  0.00  0.00    -0.357 OA
ATOM      7  N   UNL     1     -10.004  -7.136   9.171  0.00  0.00    -0.083 NA
ATOM     17  C   UNL     1      -8.984  -6.498   8.588  0.00  0.00    +0.084 A 
ATOM     22  C   UNL     1      -9.218  -5.119   8.464  0.00  0.00    +0.073 A 
ATOM     24  C   UNL     1     -10.461  -4.948   9.013  0.00  0.00    +0.163 A 
BRANCH  24  25
ATOM     25  C   UNL     1     -11.330  -3.783   9.221  0.00  0.00    +0.236 C 
BRANCH  25   3
ATOM      3  O   UNL     1     -11.935  -3.841  10.517  0.00  0.00    -0.375 OA
ATOM     30  C   UNL     1     -13.320  -3.549  10.449  0.00  0.00    +0.194 C 
ENDBRANCH  25   3
ENDBRANCH  24  25
ENDBRANCH  15  17
ENDBRANCH  10  15
TORSDOF 6
ENDMDL
MODEL 9
REMARK VINA RESULT:      -6.3     18.074     20.603
REMARK  Name = 26743050
REMARK  7 active torsions:
REMARK  status: ('A' for Active; 'I' for Inactive)
REMARK    1  A    between atoms: O_3  and  C_25
REMARK    2  A    between atoms: O_3  and  C_30
REMARK    3  A    between atoms: C_9  and  C_13
REMARK    4  A    between atoms: C_10  and  C_15
REMARK    5  A    between atoms: C_13  and  C_16
REMARK    6  A    between atoms: C_15  and  C_17
REMARK    7  A    between atoms: C_24  and  C_25
REMARK                            x       y       z     vdW  Elec       q    Type
REMARK                         _______ _______ _______ _____ _____    ______ ____
ROOT
ATOM      4  N   UNL     1      -5.871 -14.595  17.153  0.00  0.00    -0.316 NA
ATOM      9  C   UNL     1      -6.384 -11.763  16.497  0.00  0.00    +0.004 C 
ATOM     10  C   UNL     1      -4.956 -12.352  16.603  0.00  0.00    +0.012 C 
ATOM     11  C   UNL     1      -7.370 -12.896  16.169  0.00  0.00    +0.019 C 
ATOM     12  C   UNL     1      -4.911 -13.563  17.549  0.00  0.00    +0.085 C 
ATOM     14  C   UNL     1      -7.239 -14.081  17.125  0.00  0.00    +0.081 C 
ATOM     31  H   UNL     1      -5.818 -15.375  17.807  0.00  0.00    +0.122 HD
ENDROOT
BRANCH   9  13
ATOM     13  C   UNL     1      -6.834 -10.992  17.742  0.00  0.00    +0.100 C 
BRANCH  13  16
ATOM      1  O   UNL     1      -7.244  -8.969  16.568  0.00  0.00    -0.276 OA
ATOM      5  N   UNL     1      -8.974  -9.775  17.894  0.00  0.00    -0.298 N 
ATOM      6  N   UNL     1     -11.719  -9.696  18.809  0.00  0.00    -0.312 N 
ATOM      8  N   UNL     1     -13.317  -9.648  20.548  0.00  0.00    -0.240 NA
ATOM     16  C   UNL     1      -7.693  -9.818  17.341  0.00  0.00    +0.216 C 
ATOM     18  C   UNL     1      -9.866  -8.666  17.558  0.00  0.00    +0.126 C 
ATOM     19  C   UNL     1      -9.511 -10.789  18.803  0.00  0.00    +0.126 C 
ATOM     20  C   UNL     1     -11.329  -9.100  17.527  0.00  0.00    +0.125 C 
ATOM     21  C   UNL     1     -10.669 -10.269  19.654  0.00  0.00    +0.125 C 
ATOM     23  C   UNL     1     -13.049  -9.684  19.223  0.00  0.00    +0.121 A 
ATOM     26  C   UNL     1     -14.022  -9.709  18.236  0.00  0.00    +0.043 A 
ATOM     27  C   UNL     1     -15.354  -9.697  18.634  0.00  0.00    +0.005 A 
ATOM     28  C   UNL     1     -14.622  -9.638  20.896  0.00  0.00    +0.113 A 
ATOM     29  C   UNL     1     -15.669  -9.661  19.988  0.00  0.00    +0.020 A 
ENDBRANCH  13  16
ENDBRANCH   9  13
BRANCH  10  15
ATOM     15  C   UNL     1      -3.909 -11.314  17.008  0.00  0.00    +0.064 C 
BRANCH  15  17
ATOM      2  O   UNL     1      -1.373 -10.069  14.777  0.00  0.00    -0.357 OA
ATOM      7  N   UNL     1      -1.891 -10.293  16.046  0.00  0.00    -0.083 NA
ATOM     17  C   UNL     1      -3.058 -10.910  15.839  0.00  0.00    +0.084 A 
ATOM     22  C   UNL     1      -3.326 -11.099  14.473  0.00  0.00    +0.073 A 
ATOM     24  C   UNL     1      -2.237 -10.553  13.848  0.00  0.00    +0.163 A 
BRANCH  24  25
ATOM     25  C   UNL     1      -1.842 -10.399  12.442  0.00  0.00    +0.236 C 
BRANCH  25   3
ATOM      3  O   UNL     1      -2.747 -11.110  11.592  0.00  0.00    -0.375 OA
ATOM     30  C   UNL     1      -3.588 -10.219  10.879  0.00  0.00    +0.194 C 
ENDBRANCH  25   3
ENDBRANCH  24  25
ENDBRANCH  15  17
ENDBRANCH  10  15
TORSDOF 6
ENDMDL
MODEL 10
REMARK VINA RESULT:      -6.1     30.200     35.121
REMARK  Name = 26743050
REMARK  7 active torsions:
REMARK  status: ('A' for Active; 'I' for Inactive)
REMARK    1  A    between atoms: O_3  and  C_25
REMARK    2  A    between atoms: O_3  and  C_30
REMARK    3  A    between atoms: C_9  and  C_13
REMARK    4  A    between atoms: C_10  and  C_15
REMARK    5  A    between atoms: C_13  and  C_16
REMARK    6  A    between atoms: C_15  and  C_17
REMARK    7  A    between atoms: C_24  and  C_25
REMARK                            x       y       z     vdW  Elec       q    Type
REMARK                         _______ _______ _______ _____ _____    ______ ____
ROOT
ATOM      4  N   UNL     1       7.065  10.930   4.354  0.00  0.00    -0.316 NA
ATOM      9  C   UNL     1       8.975   8.681   4.298  0.00  0.00    +0.004 C 
ATOM     10  C   UNL     1       8.606   9.432   5.600  0.00  0.00    +0.012 C 
ATOM     11  C   UNL     1       7.828   8.837   3.286  0.00  0.00    +0.019 C 
ATOM     12  C   UNL     1       8.168  10.879   5.315  0.00  0.00    +0.085 C 
ATOM     14  C   UNL     1       7.420  10.296   3.086  0.00  0.00    +0.081 C 
ATOM     31  H   UNL     1       6.809  11.902   4.184  0.00  0.00    +0.122 HD
ENDROOT
BRANCH   9  13
ATOM     13  C   UNL     1      10.309   9.118   3.683  0.00  0.00    +0.100 C 
BRANCH  13  16
ATOM      1  O   UNL     1      10.722   6.900   2.943  0.00  0.00    -0.276 OA
ATOM      5  N   UNL     1      12.523   8.045   3.862  0.00  0.00    -0.298 N 
ATOM      6  N   UNL     1      15.344   8.274   4.467  0.00  0.00    -0.312 N 
ATOM      8  N   UNL     1      17.105   8.676   5.989  0.00  0.00    -0.240 NA
ATOM     16  C   UNL     1      11.193   7.917   3.457  0.00  0.00    +0.216 C 
ATOM     18  C   UNL     1      13.442   6.923   3.682  0.00  0.00    +0.126 C 
ATOM     19  C   UNL     1      13.085   9.256   4.463  0.00  0.00    +0.126 C 
ATOM     20  C   UNL     1      14.867   7.392   3.398  0.00  0.00    +0.125 C 
ATOM     21  C   UNL     1      14.349   8.983   5.276  0.00  0.00    +0.125 C 
ATOM     23  C   UNL     1      16.706   8.404   4.726  0.00  0.00    +0.121 A 
ATOM     26  C   UNL     1      17.574   8.243   3.657  0.00  0.00    +0.043 A 
ATOM     27  C   UNL     1      18.937   8.369   3.900  0.00  0.00    +0.005 A 
ATOM     28  C   UNL     1      18.437   8.792   6.186  0.00  0.00    +0.113 A 
ATOM     29  C   UNL     1      19.385   8.648   5.186  0.00  0.00    +0.020 A 
ENDBRANCH  13  16
ENDBRANCH   9  13
BRANCH  10  15
ATOM     15  C   UNL     1       9.722   9.405   6.645  0.00  0.00    +0.064 C 
BRANCH  15  17
ATOM      2  O   UNL     1      11.267   6.274   7.524  0.00  0.00    -0.357 OA
ATOM      7  N   UNL     1      11.322   7.599   7.108  0.00  0.00    -0.083 NA
ATOM     17  C   UNL     1      10.048   8.000   7.060  0.00  0.00    +0.084 A 
ATOM     22  C   UNL     1       9.154   6.981   7.430  0.00  0.00    +0.073 A 
ATOM     24  C   UNL     1       9.970   5.918   7.712  0.00  0.00    +0.163 A 
BRANCH  24  25
ATOM     25  C   UNL     1       9.727   4.540   8.156  0.00  0.00    +0.236 C 
BRANCH  25   3
ATOM      3  O   UNL     1      10.057   4.399   9.541  0.00  0.00    -0.375 OA
ATOM     30  C   UNL     1       8.917   4.590  10.362  0.00  0.00    +0.194 C 
ENDBRANCH  25   3
ENDBRANCH  24  25
ENDBRANCH  15  17
ENDBRANCH  10  15
TORSDOF 6
ENDMDL
