MODEL 1
REMARK VINA RESULT:      -6.1      0.000      0.000
REMARK  Name = 7049570
REMARK  13 active torsions:
REMARK  status: ('A' for Active; 'I' for Inactive)
REMARK    1  A    between atoms: S_1  and  C_21
REMARK    2  A    between atoms: S_1  and  C_27
REMARK    3  A    between atoms: O_7  and  C_23
REMARK    4  A    between atoms: O_7  and  C_28
REMARK    5  A    between atoms: N_10  and  C_13
REMARK    6  A    between atoms: N_11  and  C_19
REMARK    7  A    between atoms: N_12  and  C_26
REMARK    8  A    between atoms: C_14  and  C_17
REMARK    9  A    between atoms: C_18  and  C_21
REMARK   10  A    between atoms: C_19  and  C_20
REMARK   11  A    between atoms: C_19  and  C_23
REMARK   12  A    between atoms: C_20  and  C_24
REMARK   13  A    between atoms: C_20  and  C_25
REMARK                            x       y       z     vdW  Elec       q    Type
REMARK                         _______ _______ _______ _____ _____    ______ ____
ROOT
ATOM      5  O   UNL     1      15.813  12.103  18.198  0.00  0.00    -0.275 OA
ATOM      9  N   UNL     1      15.708  11.706  20.476  0.00  0.00    -0.287 N 
ATOM     13  C   UNL     1      15.701   9.732  21.791  0.00  0.00    +0.105 C 
ATOM     14  C   UNL     1      15.450  10.272  20.382  0.00  0.00    +0.182 C 
ATOM     15  C   UNL     1      15.399  10.932  22.692  0.00  0.00    +0.043 C 
ATOM     16  C   UNL     1      15.850  12.130  21.866  0.00  0.00    +0.110 C 
ATOM     18  C   UNL     1      15.942  12.493  19.359  0.00  0.00    +0.226 C 
ENDROOT
BRANCH  13  10
ATOM      6  O   UNL     1      16.750   7.144  21.151  0.00  0.00    -0.252 OA
ATOM     10  N   UNL     1      17.069   9.294  21.940  0.00  0.00    -0.294 N 
ATOM     12  N   UNL     1      18.868   7.872  21.854  0.00  0.00    -0.267 N 
ATOM     22  C   UNL     1      17.500   8.007  21.602  0.00  0.00    +0.304 C 
ATOM     34  H   UNL     1      17.763   9.969  22.245  0.00  0.00    +0.151 HD
ATOM     36  H   UNL     1      19.348   8.685  22.233  0.00  0.00    +0.156 HD
BRANCH  12  26
ATOM      2  F   UNL     1      20.737   7.051  23.752  0.00  0.00    -0.203 F 
ATOM      3  F   UNL     1      22.044   3.402  21.041  0.00  0.00    -0.205 F 
ATOM     26  C   UNL     1      19.680   6.732  21.649  0.00  0.00    +0.070 A 
ATOM     29  C   UNL     1      20.607   6.347  22.618  0.00  0.00    +0.147 A 
ATOM     30  C   UNL     1      19.553   5.992  20.474  0.00  0.00    +0.029 A 
ATOM     31  C   UNL     1      21.405   5.222  22.413  0.00  0.00    +0.078 A 
ATOM     32  C   UNL     1      20.353   4.867  20.268  0.00  0.00    +0.040 A 
ATOM     33  C   UNL     1      21.278   4.482  21.238  0.00  0.00    +0.126 A 
ENDBRANCH  12  26
ENDBRANCH  13  10
BRANCH  14  17
ATOM      4  O   UNL     1      13.192  11.018  20.171  0.00  0.00    -0.274 OA
ATOM     11  N   UNL     1      13.749   8.883  19.428  0.00  0.00    -0.301 N 
ATOM     17  C   UNL     1      14.012  10.122  19.985  0.00  0.00    +0.236 C 
ATOM     35  H   UNL     1      14.522   8.245  19.273  0.00  0.00    +0.150 HD
BRANCH  11  19
ATOM     19  C   UNL     1      12.434   8.481  18.983  0.00  0.00    +0.184 C 
BRANCH  19  20
ATOM     20  C   UNL     1      11.685   7.641  20.041  0.00  0.00    +0.014 C 
ATOM     24  C   UNL     1      10.775   8.480  20.946  0.00  0.00    +0.009 C 
ATOM     25  C   UNL     1      12.659   6.825  20.894  0.00  0.00    +0.009 C 
ENDBRANCH  19  20
BRANCH  19  23
ATOM      8  O   UNL     1      13.544   7.387  17.134  0.00  0.00    -0.249 OA
ATOM     23  C   UNL     1      12.491   7.757  17.642  0.00  0.00    +0.328 C 
BRANCH  23   7
ATOM      7  O   UNL     1      11.255   7.585  17.096  0.00  0.00    -0.467 OA
ATOM     28  C   UNL     1      10.689   8.737  16.461  0.00  0.00    +0.280 C 
ENDBRANCH  23   7
ENDBRANCH  19  23
ENDBRANCH  11  19
ENDBRANCH  14  17
BRANCH  18  21
ATOM     21  C   UNL     1      16.370  13.912  19.642  0.00  0.00    +0.164 C 
BRANCH  21   1
ATOM      1  S   UNL     1      18.116  14.048  19.233  0.00  0.00    -0.155 S 
ATOM     27  C   UNL     1      18.779  14.261  20.903  0.00  0.00    +0.085 C 
ENDBRANCH  21   1
ENDBRANCH  18  21
TORSDOF 9
ENDMDL
MODEL 2
REMARK VINA RESULT:      -6.0     25.750     28.330
REMARK  Name = 7049570
REMARK  13 active torsions:
REMARK  status: ('A' for Active; 'I' for Inactive)
REMARK    1  A    between atoms: S_1  and  C_21
REMARK    2  A    between atoms: S_1  and  C_27
REMARK    3  A    between atoms: O_7  and  C_23
REMARK    4  A    between atoms: O_7  and  C_28
REMARK    5  A    between atoms: N_10  and  C_13
REMARK    6  A    between atoms: N_11  and  C_19
REMARK    7  A    between atoms: N_12  and  C_26
REMARK    8  A    between atoms: C_14  and  C_17
REMARK    9  A    between atoms: C_18  and  C_21
REMARK   10  A    between atoms: C_19  and  C_20
REMARK   11  A    between atoms: C_19  and  C_23
REMARK   12  A    between atoms: C_20  and  C_24
REMARK   13  A    between atoms: C_20  and  C_25
REMARK                            x       y       z     vdW  Elec       q    Type
REMARK                         _______ _______ _______ _____ _____    ______ ____
ROOT
ATOM      5  O   UNL     1      16.644  -5.667  -3.003  0.00  0.00    -0.275 OA
ATOM      9  N   UNL     1      17.432  -7.787  -3.500  0.00  0.00    -0.287 N 
ATOM     13  C   UNL     1      18.444  -9.497  -2.206  0.00  0.00    +0.105 C 
ATOM     14  C   UNL     1      18.141  -7.999  -2.242  0.00  0.00    +0.182 C 
ATOM     15  C   UNL     1      18.521  -9.880  -3.687  0.00  0.00    +0.043 C 
ATOM     16  C   UNL     1      17.495  -8.971  -4.351  0.00  0.00    +0.110 C 
ATOM     18  C   UNL     1      16.675  -6.651  -3.744  0.00  0.00    +0.226 C 
ENDROOT
BRANCH  13  10
ATOM      6  O   UNL     1      18.490 -10.456   0.492  0.00  0.00    -0.252 OA
ATOM     10  N   UNL     1      17.394 -10.221  -1.530  0.00  0.00    -0.294 N 
ATOM     12  N   UNL     1      16.333 -11.326   0.179  0.00  0.00    -0.267 N 
ATOM     22  C   UNL     1      17.498 -10.656  -0.204  0.00  0.00    +0.304 C 
ATOM     34  H   UNL     1      16.516 -10.368  -2.017  0.00  0.00    +0.151 HD
ATOM     36  H   UNL     1      15.600 -11.410  -0.522  0.00  0.00    +0.156 HD
BRANCH  12  26
ATOM      2  F   UNL     1      15.368 -13.933   0.378  0.00  0.00    -0.203 F 
ATOM      3  F   UNL     1      15.199 -13.623   5.094  0.00  0.00    -0.205 F 
ATOM     26  C   UNL     1      16.042 -11.915   1.431  0.00  0.00    +0.070 A 
ATOM     29  C   UNL     1      15.560 -13.222   1.497  0.00  0.00    +0.147 A 
ATOM     30  C   UNL     1      16.238 -11.184   2.604  0.00  0.00    +0.029 A 
ATOM     31  C   UNL     1      15.275 -13.799   2.735  0.00  0.00    +0.078 A 
ATOM     32  C   UNL     1      15.952 -11.761   3.841  0.00  0.00    +0.040 A 
ATOM     33  C   UNL     1      15.471 -13.069   3.906  0.00  0.00    +0.126 A 
ENDBRANCH  12  26
ENDBRANCH  13  10
BRANCH  14  17
ATOM      4  O   UNL     1      20.337  -7.510  -3.040  0.00  0.00    -0.274 OA
ATOM     11  N   UNL     1      19.361  -6.083  -1.480  0.00  0.00    -0.301 N 
ATOM     17  C   UNL     1      19.398  -7.185  -2.318  0.00  0.00    +0.236 C 
ATOM     35  H   UNL     1      18.505  -5.887  -0.972  0.00  0.00    +0.150 HD
BRANCH  11  19
ATOM     19  C   UNL     1      20.458  -5.152  -1.352  0.00  0.00    +0.184 C 
BRANCH  19  20
ATOM     20  C   UNL     1      21.048  -5.130   0.075  0.00  0.00    +0.014 C 
ATOM     24  C   UNL     1      22.016  -6.286   0.348  0.00  0.00    +0.009 C 
ATOM     25  C   UNL     1      19.942  -5.114   1.133  0.00  0.00    +0.009 C 
ENDBRANCH  19  20
BRANCH  19  23
ATOM      8  O   UNL     1      20.869  -2.961  -2.289  0.00  0.00    -0.249 OA
ATOM     23  C   UNL     1      20.063  -3.751  -1.809  0.00  0.00    +0.328 C 
BRANCH  23   7
ATOM      7  O   UNL     1      18.738  -3.500  -1.617  0.00  0.00    -0.467 OA
ATOM     28  C   UNL     1      18.205  -2.385  -2.339  0.00  0.00    +0.280 C 
ENDBRANCH  23   7
ENDBRANCH  19  23
ENDBRANCH  11  19
ENDBRANCH  14  17
BRANCH  18  21
ATOM     21  C   UNL     1      15.864  -6.671  -5.016  0.00  0.00    +0.164 C 
BRANCH  21   1
ATOM      1  S   UNL     1      14.160  -7.040  -4.572  0.00  0.00    -0.155 S 
ATOM     27  C   UNL     1      13.620  -7.784  -6.130  0.00  0.00    +0.085 C 
ENDBRANCH  21   1
ENDBRANCH  18  21
TORSDOF 9
ENDMDL
MODEL 3
REMARK VINA RESULT:      -5.9     28.516     31.849
REMARK  Name = 7049570
REMARK  13 active torsions:
REMARK  status: ('A' for Active; 'I' for Inactive)
REMARK    1  A    between atoms: S_1  and  C_21
REMARK    2  A    between atoms: S_1  and  C_27
REMARK    3  A    between atoms: O_7  and  C_23
REMARK    4  A    between atoms: O_7  and  C_28
REMARK    5  A    between atoms: N_10  and  C_13
REMARK    6  A    between atoms: N_11  and  C_19
REMARK    7  A    between atoms: N_12  and  C_26
REMARK    8  A    between atoms: C_14  and  C_17
REMARK    9  A    between atoms: C_18  and  C_21
REMARK   10  A    between atoms: C_19  and  C_20
REMARK   11  A    between atoms: C_19  and  C_23
REMARK   12  A    between atoms: C_20  and  C_24
REMARK   13  A    between atoms: C_20  and  C_25
REMARK                            x       y       z     vdW  Elec       q    Type
REMARK                         _______ _______ _______ _____ _____    ______ ____
ROOT
ATOM      5  O   UNL     1      -6.851 -13.154  15.221  0.00  0.00    -0.275 OA
ATOM      9  N   UNL     1      -6.557 -12.328  17.364  0.00  0.00    -0.287 N 
ATOM     13  C   UNL     1      -6.472 -10.140  18.273  0.00  0.00    +0.105 C 
ATOM     14  C   UNL     1      -6.334 -10.939  16.977  0.00  0.00    +0.182 C 
ATOM     15  C   UNL     1      -6.071 -11.145  19.356  0.00  0.00    +0.043 C 
ATOM     16  C   UNL     1      -6.570 -12.479  18.816  0.00  0.00    +0.110 C 
ATOM     18  C   UNL     1      -6.872 -13.315  16.443  0.00  0.00    +0.226 C 
ENDROOT
BRANCH  13  10
ATOM      6  O   UNL     1      -8.138  -8.888  16.308  0.00  0.00    -0.252 OA
ATOM     10  N   UNL     1      -7.829  -9.683  18.457  0.00  0.00    -0.294 N 
ATOM     12  N   UNL     1      -9.850  -8.743  17.907  0.00  0.00    -0.267 N 
ATOM     22  C   UNL     1      -8.577  -9.079  17.440  0.00  0.00    +0.304 C 
ATOM     34  H   UNL     1      -8.286  -9.865  19.345  0.00  0.00    +0.151 HD
ATOM     36  H   UNL     1     -10.057  -8.968  18.877  0.00  0.00    +0.156 HD
BRANCH  12  26
ATOM      2  F   UNL     1     -12.243 -10.069  17.376  0.00  0.00    -0.203 F 
ATOM      3  F   UNL     1     -13.958  -6.288  15.111  0.00  0.00    -0.205 F 
ATOM     26  C   UNL     1     -10.899  -8.119  17.194  0.00  0.00    +0.070 A 
ATOM     29  C   UNL     1     -12.086  -8.810  16.944  0.00  0.00    +0.147 A 
ATOM     30  C   UNL     1     -10.747  -6.809  16.739  0.00  0.00    +0.029 A 
ATOM     31  C   UNL     1     -13.119  -8.191  16.240  0.00  0.00    +0.078 A 
ATOM     32  C   UNL     1     -11.780  -6.191  16.034  0.00  0.00    +0.040 A 
ATOM     33  C   UNL     1     -12.967  -6.882  15.786  0.00  0.00    +0.126 A 
ENDBRANCH  12  26
ENDBRANCH  13  10
BRANCH  14  17
ATOM      4  O   UNL     1      -3.977 -10.602  17.150  0.00  0.00    -0.274 OA
ATOM     11  N   UNL     1      -4.894 -11.103  15.070  0.00  0.00    -0.301 N 
ATOM     17  C   UNL     1      -4.938 -10.866  16.433  0.00  0.00    +0.236 C 
ATOM     35  H   UNL     1      -5.751 -11.367  14.594  0.00  0.00    +0.150 HD
BRANCH  11  19
ATOM     19  C   UNL     1      -3.671 -11.069  14.301  0.00  0.00    +0.184 C 
BRANCH  19  20
ATOM     20  C   UNL     1      -3.930 -10.902  12.788  0.00  0.00    +0.014 C 
ATOM     24  C   UNL     1      -2.721 -10.354  12.023  0.00  0.00    +0.009 C 
ATOM     25  C   UNL     1      -5.155 -10.021  12.528  0.00  0.00    +0.009 C 
ENDBRANCH  19  20
BRANCH  19  23
ATOM      8  O   UNL     1      -3.253 -13.418  14.691  0.00  0.00    -0.249 OA
ATOM     23  C   UNL     1      -2.796 -12.286  14.582  0.00  0.00    +0.328 C 
BRANCH  23   7
ATOM      7  O   UNL     1      -1.479 -11.958  14.697  0.00  0.00    -0.467 OA
ATOM     28  C   UNL     1      -1.191 -10.809  15.500  0.00  0.00    +0.280 C 
ENDBRANCH  23   7
ENDBRANCH  19  23
ENDBRANCH  11  19
ENDBRANCH  14  17
BRANCH  18  21
ATOM     21  C   UNL     1      -7.248 -14.655  17.027  0.00  0.00    +0.164 C 
BRANCH  21   1
ATOM      1  S   UNL     1      -6.514 -15.928  15.991  0.00  0.00    -0.155 S 
ATOM     27  C   UNL     1      -4.840 -15.917  16.677  0.00  0.00    +0.085 C 
ENDBRANCH  21   1
ENDBRANCH  18  21
TORSDOF 9
ENDMDL
MODEL 4
REMARK VINA RESULT:      -5.9     15.315     18.051
REMARK  Name = 7049570
REMARK  13 active torsions:
REMARK  status: ('A' for Active; 'I' for Inactive)
REMARK    1  A    between atoms: S_1  and  C_21
REMARK    2  A    between atoms: S_1  and  C_27
REMARK    3  A    between atoms: O_7  and  C_23
REMARK    4  A    between atoms: O_7  and  C_28
REMARK    5  A    between atoms: N_10  and  C_13
REMARK    6  A    between atoms: N_11  and  C_19
REMARK    7  A    between atoms: N_12  and  C_26
REMARK    8  A    between atoms: C_14  and  C_17
REMARK    9  A    between atoms: C_18  and  C_21
REMARK   10  A    between atoms: C_19  and  C_20
REMARK   11  A    between atoms: C_19  and  C_23
REMARK   12  A    between atoms: C_20  and  C_24
REMARK   13  A    between atoms: C_20  and  C_25
REMARK                            x       y       z     vdW  Elec       q    Type
REMARK                         _______ _______ _______ _____ _____    ______ ____
ROOT
ATOM      5  O   UNL     1      11.751   9.222   5.346  0.00  0.00    -0.275 OA
ATOM      9  N   UNL     1      11.037   7.297   6.415  0.00  0.00    -0.287 N 
ATOM     13  C   UNL     1       9.535   5.561   5.820  0.00  0.00    +0.105 C 
ATOM     14  C   UNL     1       9.933   7.003   5.506  0.00  0.00    +0.182 C 
ATOM     15  C   UNL     1       9.938   5.391   7.287  0.00  0.00    +0.043 C 
ATOM     16  C   UNL     1      11.186   6.253   7.424  0.00  0.00    +0.110 C 
ATOM     18  C   UNL     1      11.906   8.357   6.209  0.00  0.00    +0.226 C 
ENDROOT
BRANCH  13  10
ATOM      6  O   UNL     1      10.533   6.073   3.184  0.00  0.00    -0.252 OA
ATOM     10  N   UNL     1      10.244   4.633   4.970  0.00  0.00    -0.294 N 
ATOM     12  N   UNL     1      11.347   3.873   3.107  0.00  0.00    -0.267 N 
ATOM     22  C   UNL     1      10.700   4.965   3.690  0.00  0.00    +0.304 C 
ATOM     34  H   UNL     1      10.479   3.718   5.342  0.00  0.00    +0.151 HD
ATOM     36  H   UNL     1      11.399   3.021   3.660  0.00  0.00    +0.156 HD
BRANCH  12  26
ATOM      2  F   UNL     1       9.852   4.196   0.777  0.00  0.00    -0.203 F 
ATOM      3  F   UNL     1      13.701   3.586  -1.904  0.00  0.00    -0.205 F 
ATOM     26  C   UNL     1      11.945   3.799   1.827  0.00  0.00    +0.070 A 
ATOM     29  C   UNL     1      11.169   3.966   0.680  0.00  0.00    +0.147 A 
ATOM     30  C   UNL     1      13.315   3.560   1.713  0.00  0.00    +0.029 A 
ATOM     31  C   UNL     1      11.762   3.893  -0.580  0.00  0.00    +0.078 A 
ATOM     32  C   UNL     1      13.908   3.487   0.453  0.00  0.00    +0.040 A 
ATOM     33  C   UNL     1      13.131   3.654  -0.694  0.00  0.00    +0.126 A 
ENDBRANCH  12  26
ENDBRANCH  13  10
BRANCH  14  17
ATOM      4  O   UNL     1       8.094   7.784   6.814  0.00  0.00    -0.274 OA
ATOM     11  N   UNL     1       8.756   9.015   4.952  0.00  0.00    -0.301 N 
ATOM     17  C   UNL     1       8.832   7.963   5.849  0.00  0.00    +0.236 C 
ATOM     35  H   UNL     1       9.460   9.086   4.225  0.00  0.00    +0.150 HD
BRANCH  11  19
ATOM     19  C   UNL     1       7.767  10.064   5.047  0.00  0.00    +0.184 C 
BRANCH  19  20
ATOM     20  C   UNL     1       7.064  10.335   3.699  0.00  0.00    +0.014 C 
ATOM     24  C   UNL     1       5.537  10.397   3.813  0.00  0.00    +0.009 C 
ATOM     25  C   UNL     1       7.467   9.301   2.645  0.00  0.00    +0.009 C 
ENDBRANCH  19  20
BRANCH  19  23
ATOM      8  O   UNL     1       7.838  12.443   5.472  0.00  0.00    -0.249 OA
ATOM     23  C   UNL     1       8.357  11.343   5.631  0.00  0.00    +0.328 C 
BRANCH  23   7
ATOM      7  O   UNL     1       9.504  11.111   6.328  0.00  0.00    -0.467 OA
ATOM     28  C   UNL     1       9.408  11.248   7.750  0.00  0.00    +0.280 C 
ENDBRANCH  23   7
ENDBRANCH  19  23
ENDBRANCH  11  19
ENDBRANCH  14  17
BRANCH  18  21
ATOM     21  C   UNL     1      13.096   8.412   7.135  0.00  0.00    +0.164 C 
BRANCH  21   1
ATOM      1  S   UNL     1      14.483   9.080   6.205  0.00  0.00    -0.155 S 
ATOM     27  C   UNL     1      15.117   7.538   5.503  0.00  0.00    +0.085 C 
ENDBRANCH  21   1
ENDBRANCH  18  21
TORSDOF 9
ENDMDL
MODEL 5
REMARK VINA RESULT:      -5.7     27.525     30.059
REMARK  Name = 7049570
REMARK  13 active torsions:
REMARK  status: ('A' for Active; 'I' for Inactive)
REMARK    1  A    between atoms: S_1  and  C_21
REMARK    2  A    between atoms: S_1  and  C_27
REMARK    3  A    between atoms: O_7  and  C_23
REMARK    4  A    between atoms: O_7  and  C_28
REMARK    5  A    between atoms: N_10  and  C_13
REMARK    6  A    between atoms: N_11  and  C_19
REMARK    7  A    between atoms: N_12  and  C_26
REMARK    8  A    between atoms: C_14  and  C_17
REMARK    9  A    between atoms: C_18  and  C_21
REMARK   10  A    between atoms: C_19  and  C_20
REMARK   11  A    between atoms: C_19  and  C_23
REMARK   12  A    between atoms: C_20  and  C_24
REMARK   13  A    between atoms: C_20  and  C_25
REMARK                            x       y       z     vdW  Elec       q    Type
REMARK                         _______ _______ _______ _____ _____    ______ ____
ROOT
ATOM      5  O   UNL     1     -10.868   7.587  20.010  0.00  0.00    -0.275 OA
ATOM      9  N   UNL     1     -12.231   9.416  20.409  0.00  0.00    -0.287 N 
ATOM     13  C   UNL     1     -13.552  10.095  22.256  0.00  0.00    +0.105 C 
ATOM     14  C   UNL     1     -12.864   8.891  21.614  0.00  0.00    +0.182 C 
ATOM     15  C   UNL     1     -13.849  11.012  21.067  0.00  0.00    +0.043 C 
ATOM     16  C   UNL     1     -12.677  10.777  20.124  0.00  0.00    +0.110 C 
ATOM     18  C   UNL     1     -11.221   8.738  19.744  0.00  0.00    +0.226 C 
ENDROOT
BRANCH  13  10
ATOM      6  O   UNL     1     -13.852  10.114  25.105  0.00  0.00    -0.252 OA
ATOM     10  N   UNL     1     -12.682  10.739  23.211  0.00  0.00    -0.294 N 
ATOM     12  N   UNL     1     -11.900  11.408  25.263  0.00  0.00    -0.267 N 
ATOM     22  C   UNL     1     -12.901  10.700  24.593  0.00  0.00    +0.304 C 
ATOM     34  H   UNL     1     -11.837  11.187  22.871  0.00  0.00    +0.151 HD
ATOM     36  H   UNL     1     -11.180  11.840  24.689  0.00  0.00    +0.156 HD
BRANCH  12  26
ATOM      2  F   UNL     1     -10.866   9.423  26.923  0.00  0.00    -0.203 F 
ATOM      3  F   UNL     1     -11.361  12.194  30.724  0.00  0.00    -0.205 F 
ATOM     26  C   UNL     1     -11.762  11.606  26.656  0.00  0.00    +0.070 A 
ATOM     29  C   UNL     1     -11.240  10.592  27.461  0.00  0.00    +0.147 A 
ATOM     30  C   UNL     1     -12.149  12.818  27.228  0.00  0.00    +0.029 A 
ATOM     31  C   UNL     1     -11.105  10.791  28.834  0.00  0.00    +0.078 A 
ATOM     32  C   UNL     1     -12.014  13.017  28.602  0.00  0.00    +0.040 A 
ATOM     33  C   UNL     1     -11.491  12.003  29.405  0.00  0.00    +0.126 A 
ENDBRANCH  12  26
ENDBRANCH  13  10
BRANCH  14  17
ATOM      4  O   UNL     1     -14.194   7.764  19.981  0.00  0.00    -0.274 OA
ATOM     11  N   UNL     1     -14.347   7.106  22.210  0.00  0.00    -0.301 N 
ATOM     17  C   UNL     1     -13.861   7.866  21.159  0.00  0.00    +0.236 C 
ATOM     35  H   UNL     1     -13.953   7.246  23.134  0.00  0.00    +0.150 HD
BRANCH  11  19
ATOM     19  C   UNL     1     -15.336   6.066  22.040  0.00  0.00    +0.184 C 
BRANCH  19  20
ATOM     20  C   UNL     1     -16.768   6.559  22.346  0.00  0.00    +0.014 C 
ATOM     24  C   UNL     1     -17.522   7.038  21.101  0.00  0.00    +0.009 C 
ATOM     25  C   UNL     1     -16.760   7.661  23.408  0.00  0.00    +0.009 C 
ENDBRANCH  19  20
BRANCH  19  23
ATOM      8  O   UNL     1     -14.036   4.781  23.623  0.00  0.00    -0.249 OA
ATOM     23  C   UNL     1     -14.992   4.824  22.856  0.00  0.00    +0.328 C 
BRANCH  23   7
ATOM      7  O   UNL     1     -15.857   3.798  22.622  0.00  0.00    -0.467 OA
ATOM     28  C   UNL     1     -16.331   3.107  23.783  0.00  0.00    +0.280 C 
ENDBRANCH  23   7
ENDBRANCH  19  23
ENDBRANCH  11  19
ENDBRANCH  14  17
BRANCH  18  21
ATOM     21  C   UNL     1     -10.551   9.499  18.626  0.00  0.00    +0.164 C 
BRANCH  21   1
ATOM      1  S   UNL     1     -10.593   8.463  17.157  0.00  0.00    -0.155 S 
ATOM     27  C   UNL     1     -12.362   8.566  16.792  0.00  0.00    +0.085 C 
ENDBRANCH  21   1
ENDBRANCH  18  21
TORSDOF 9
ENDMDL
MODEL 6
REMARK VINA RESULT:      -5.6     29.714     33.062
REMARK  Name = 7049570
REMARK  13 active torsions:
REMARK  status: ('A' for Active; 'I' for Inactive)
REMARK    1  A    between atoms: S_1  and  C_21
REMARK    2  A    between atoms: S_1  and  C_27
REMARK    3  A    between atoms: O_7  and  C_23
REMARK    4  A    between atoms: O_7  and  C_28
REMARK    5  A    between atoms: N_10  and  C_13
REMARK    6  A    between atoms: N_11  and  C_19
REMARK    7  A    between atoms: N_12  and  C_26
REMARK    8  A    between atoms: C_14  and  C_17
REMARK    9  A    between atoms: C_18  and  C_21
REMARK   10  A    between atoms: C_19  and  C_20
REMARK   11  A    between atoms: C_19  and  C_23
REMARK   12  A    between atoms: C_20  and  C_24
REMARK   13  A    between atoms: C_20  and  C_25
REMARK                            x       y       z     vdW  Elec       q    Type
REMARK                         _______ _______ _______ _____ _____    ______ ____
ROOT
ATOM      5  O   UNL     1      -9.042 -12.531  15.932  0.00  0.00    -0.275 OA
ATOM      9  N   UNL     1      -9.923 -10.610  16.877  0.00  0.00    -0.287 N 
ATOM     13  C   UNL     1      -9.698  -8.300  16.390  0.00  0.00    +0.105 C 
ATOM     14  C   UNL     1      -9.049  -9.669  16.183  0.00  0.00    +0.182 C 
ATOM     15  C   UNL     1     -10.453  -8.460  17.712  0.00  0.00    +0.043 C 
ATOM     16  C   UNL     1     -10.909  -9.913  17.697  0.00  0.00    +0.110 C 
ATOM     18  C   UNL     1      -9.890 -11.974  16.631  0.00  0.00    +0.226 C 
ENDROOT
BRANCH  13  10
ATOM      6  O   UNL     1     -11.039  -5.809  15.946  0.00  0.00    -0.252 OA
ATOM     10  N   UNL     1     -10.597  -7.986  15.305  0.00  0.00    -0.294 N 
ATOM     12  N   UNL     1     -12.026  -6.727  14.024  0.00  0.00    -0.267 N 
ATOM     22  C   UNL     1     -11.213  -6.738  15.161  0.00  0.00    +0.304 C 
ATOM     34  H   UNL     1     -10.742  -8.680  14.579  0.00  0.00    +0.151 HD
ATOM     36  H   UNL     1     -12.065  -7.584  13.479  0.00  0.00    +0.156 HD
BRANCH  12  26
ATOM      2  F   UNL     1     -14.779  -6.632  14.450  0.00  0.00    -0.203 F 
ATOM      3  F   UNL     1     -15.109  -2.545  12.093  0.00  0.00    -0.205 F 
ATOM     26  C   UNL     1     -12.815  -5.661  13.533  0.00  0.00    +0.070 A 
ATOM     29  C   UNL     1     -14.191  -5.643  13.762  0.00  0.00    +0.147 A 
ATOM     30  C   UNL     1     -12.215  -4.626  12.815  0.00  0.00    +0.029 A 
ATOM     31  C   UNL     1     -14.966  -4.590  13.276  0.00  0.00    +0.078 A 
ATOM     32  C   UNL     1     -12.990  -3.574  12.328  0.00  0.00    +0.040 A 
ATOM     33  C   UNL     1     -14.366  -3.556  12.559  0.00  0.00    +0.126 A 
ENDBRANCH  12  26
ENDBRANCH  13  10
BRANCH  14  17
ATOM      4  O   UNL     1      -7.476  -9.147  17.902  0.00  0.00    -0.274 OA
ATOM     11  N   UNL     1      -6.820 -10.547  16.161  0.00  0.00    -0.301 N 
ATOM     17  C   UNL     1      -7.713  -9.751  16.859  0.00  0.00    +0.236 C 
ATOM     35  H   UNL     1      -7.150 -11.042  15.339  0.00  0.00    +0.150 HD
BRANCH  11  19
ATOM     19  C   UNL     1      -5.459 -10.770  16.591  0.00  0.00    +0.184 C 
BRANCH  19  20
ATOM     20  C   UNL     1      -4.523 -11.135  15.417  0.00  0.00    +0.014 C 
ATOM     24  C   UNL     1      -3.046 -10.848  15.708  0.00  0.00    +0.009 C 
ATOM     25  C   UNL     1      -4.948 -10.428  14.128  0.00  0.00    +0.009 C 
ENDBRANCH  19  20
BRANCH  19  23
ATOM      8  O   UNL     1      -5.823 -12.948  17.576  0.00  0.00    -0.249 OA
ATOM     23  C   UNL     1      -5.383 -11.810  17.703  0.00  0.00    +0.328 C 
BRANCH  23   7
ATOM      7  O   UNL     1      -4.783 -11.323  18.825  0.00  0.00    -0.467 OA
ATOM     28  C   UNL     1      -3.707 -12.110  19.347  0.00  0.00    +0.280 C 
ENDBRANCH  23   7
ENDBRANCH  19  23
ENDBRANCH  11  19
ENDBRANCH  14  17
BRANCH  18  21
ATOM     21  C   UNL     1     -10.979 -12.781  17.295  0.00  0.00    +0.164 C 
BRANCH  21   1
ATOM      1  S   UNL     1     -10.358 -14.454  17.522  0.00  0.00    -0.155 S 
ATOM     27  C   UNL     1     -10.301 -14.488  19.330  0.00  0.00    +0.085 C 
ENDBRANCH  21   1
ENDBRANCH  18  21
TORSDOF 9
ENDMDL
MODEL 7
REMARK VINA RESULT:      -5.4     29.490     31.674
REMARK  Name = 7049570
REMARK  13 active torsions:
REMARK  status: ('A' for Active; 'I' for Inactive)
REMARK    1  A    between atoms: S_1  and  C_21
REMARK    2  A    between atoms: S_1  and  C_27
REMARK    3  A    between atoms: O_7  and  C_23
REMARK    4  A    between atoms: O_7  and  C_28
REMARK    5  A    between atoms: N_10  and  C_13
REMARK    6  A    between atoms: N_11  and  C_19
REMARK    7  A    between atoms: N_12  and  C_26
REMARK    8  A    between atoms: C_14  and  C_17
REMARK    9  A    between atoms: C_18  and  C_21
REMARK   10  A    between atoms: C_19  and  C_20
REMARK   11  A    between atoms: C_19  and  C_23
REMARK   12  A    between atoms: C_20  and  C_24
REMARK   13  A    between atoms: C_20  and  C_25
REMARK                            x       y       z     vdW  Elec       q    Type
REMARK                         _______ _______ _______ _____ _____    ______ ____
ROOT
ATOM      5  O   UNL     1      -5.972 -13.418  14.406  0.00  0.00    -0.275 OA
ATOM      9  N   UNL     1      -5.183 -12.507  16.383  0.00  0.00    -0.287 N 
ATOM     13  C   UNL     1      -5.108 -10.301  17.248  0.00  0.00    +0.105 C 
ATOM     14  C   UNL     1      -5.248 -11.112  15.960  0.00  0.00    +0.182 C 
ATOM     15  C   UNL     1      -4.297 -11.223  18.163  0.00  0.00    +0.043 C 
ATOM     16  C   UNL     1      -4.765 -12.620  17.777  0.00  0.00    +0.110 C 
ATOM     18  C   UNL     1      -5.625 -13.548  15.581  0.00  0.00    +0.226 C 
ENDROOT
BRANCH  13  10
ATOM      6  O   UNL     1      -7.442  -9.441  15.829  0.00  0.00    -0.252 OA
ATOM     10  N   UNL     1      -6.401 -10.003  17.815  0.00  0.00    -0.294 N 
ATOM     12  N   UNL     1      -8.608  -9.373  17.865  0.00  0.00    -0.267 N 
ATOM     22  C   UNL     1      -7.495  -9.587  17.048  0.00  0.00    +0.304 C 
ATOM     34  H   UNL     1      -6.544 -10.163  18.808  0.00  0.00    +0.151 HD
ATOM     36  H   UNL     1      -8.485  -9.537  18.861  0.00  0.00    +0.156 HD
BRANCH  12  26
ATOM      2  F   UNL     1     -10.822 -11.051  18.085  0.00  0.00    -0.203 F 
ATOM      3  F   UNL     1     -13.669  -7.699  16.344  0.00  0.00    -0.205 F 
ATOM     26  C   UNL     1      -9.900  -8.949  17.477  0.00  0.00    +0.070 A 
ATOM     29  C   UNL     1     -10.988  -9.813  17.600  0.00  0.00    +0.147 A 
ATOM     30  C   UNL     1     -10.086  -7.662  16.971  0.00  0.00    +0.029 A 
ATOM     31  C   UNL     1     -12.261  -9.391  17.217  0.00  0.00    +0.078 A 
ATOM     32  C   UNL     1     -11.359  -7.240  16.587  0.00  0.00    +0.040 A 
ATOM     33  C   UNL     1     -12.447  -8.105  16.711  0.00  0.00    +0.126 A 
ENDBRANCH  12  26
ENDBRANCH  13  10
BRANCH  14  17
ATOM      4  O   UNL     1      -2.936 -10.784  15.464  0.00  0.00    -0.274 OA
ATOM     11  N   UNL     1      -4.473 -10.801  13.715  0.00  0.00    -0.301 N 
ATOM     17  C   UNL     1      -4.084 -10.889  15.041  0.00  0.00    +0.236 C 
ATOM     35  H   UNL     1      -5.447 -10.961  13.482  0.00  0.00    +0.150 HD
BRANCH  11  19
ATOM     19  C   UNL     1      -3.543 -10.566  12.634  0.00  0.00    +0.184 C 
BRANCH  19  20
ATOM     20  C   UNL     1      -4.248 -10.096  11.342  0.00  0.00    +0.014 C 
ATOM     24  C   UNL     1      -3.301  -9.413  10.350  0.00  0.00    +0.009 C 
ATOM     25  C   UNL     1      -5.428  -9.174  11.658  0.00  0.00    +0.009 C 
ENDBRANCH  19  20
BRANCH  19  23
ATOM      8  O   UNL     1      -1.457 -11.788  12.589  0.00  0.00    -0.249 OA
ATOM     23  C   UNL     1      -2.665 -11.785  12.373  0.00  0.00    +0.328 C 
BRANCH  23   7
ATOM      7  O   UNL     1      -3.375 -12.837  11.878  0.00  0.00    -0.467 OA
ATOM     28  C   UNL     1      -2.990 -14.129  12.357  0.00  0.00    +0.280 C 
ENDBRANCH  23   7
ENDBRANCH  19  23
ENDBRANCH  11  19
ENDBRANCH  14  17
BRANCH  18  21
ATOM     21  C   UNL     1      -5.656 -14.907  16.237  0.00  0.00    +0.164 C 
BRANCH  21   1
ATOM      1  S   UNL     1      -7.378 -15.399  16.394  0.00  0.00    -0.155 S 
ATOM     27  C   UNL     1      -7.423 -16.674  15.111  0.00  0.00    +0.085 C 
ENDBRANCH  21   1
ENDBRANCH  18  21
TORSDOF 9
ENDMDL
MODEL 8
REMARK VINA RESULT:      -5.4     24.796     27.002
REMARK  Name = 7049570
REMARK  13 active torsions:
REMARK  status: ('A' for Active; 'I' for Inactive)
REMARK    1  A    between atoms: S_1  and  C_21
REMARK    2  A    between atoms: S_1  and  C_27
REMARK    3  A    between atoms: O_7  and  C_23
REMARK    4  A    between atoms: O_7  and  C_28
REMARK    5  A    between atoms: N_10  and  C_13
REMARK    6  A    between atoms: N_11  and  C_19
REMARK    7  A    between atoms: N_12  and  C_26
REMARK    8  A    between atoms: C_14  and  C_17
REMARK    9  A    between atoms: C_18  and  C_21
REMARK   10  A    between atoms: C_19  and  C_20
REMARK   11  A    between atoms: C_19  and  C_23
REMARK   12  A    between atoms: C_20  and  C_24
REMARK   13  A    between atoms: C_20  and  C_25
REMARK                            x       y       z     vdW  Elec       q    Type
REMARK                         _______ _______ _______ _____ _____    ______ ____
ROOT
ATOM      5  O   UNL     1      18.734  -5.259  -5.727  0.00  0.00    -0.275 OA
ATOM      9  N   UNL     1      18.702  -3.621  -4.091  0.00  0.00    -0.287 N 
ATOM     13  C   UNL     1      18.593  -3.680  -1.723  0.00  0.00    +0.105 C 
ATOM     14  C   UNL     1      18.323  -4.497  -2.987  0.00  0.00    +0.182 C 
ATOM     15  C   UNL     1      18.433  -2.232  -2.194  0.00  0.00    +0.043 C 
ATOM     16  C   UNL     1      18.943  -2.257  -3.629  0.00  0.00    +0.110 C 
ATOM     18  C   UNL     1      18.948  -4.099  -5.369  0.00  0.00    +0.226 C 
ENDROOT
BRANCH  13  10
ATOM      6  O   UNL     1      19.321  -5.435   0.421  0.00  0.00    -0.252 OA
ATOM     10  N   UNL     1      19.925  -3.926  -1.224  0.00  0.00    -0.294 N 
ATOM     12  N   UNL     1      21.567  -4.838   0.095  0.00  0.00    -0.267 N 
ATOM     22  C   UNL     1      20.195  -4.803  -0.168  0.00  0.00    +0.304 C 
ATOM     34  H   UNL     1      20.709  -3.493  -1.701  0.00  0.00    +0.151 HD
ATOM     36  H   UNL     1      22.161  -4.250  -0.485  0.00  0.00    +0.156 HD
BRANCH  12  26
ATOM      2  F   UNL     1      21.523  -4.106   2.784  0.00  0.00    -0.203 F 
ATOM      3  F   UNL     1      24.219  -7.814   3.947  0.00  0.00    -0.205 F 
ATOM     26  C   UNL     1      22.243  -5.595   1.080  0.00  0.00    +0.070 A 
ATOM     29  C   UNL     1      22.202  -5.202   2.418  0.00  0.00    +0.147 A 
ATOM     30  C   UNL     1      22.953  -6.738   0.711  0.00  0.00    +0.029 A 
ATOM     31  C   UNL     1      22.870  -5.951   3.386  0.00  0.00    +0.078 A 
ATOM     32  C   UNL     1      23.622  -7.487   1.680  0.00  0.00    +0.040 A 
ATOM     33  C   UNL     1      23.579  -7.094   3.018  0.00  0.00    +0.126 A 
ENDBRANCH  12  26
ENDBRANCH  13  10
BRANCH  14  17
ATOM      4  O   UNL     1      16.005  -3.923  -2.960  0.00  0.00    -0.274 OA
ATOM     11  N   UNL     1      16.621  -6.098  -3.517  0.00  0.00    -0.301 N 
ATOM     17  C   UNL     1      16.860  -4.783  -3.154  0.00  0.00    +0.236 C 
ATOM     35  H   UNL     1      17.415  -6.703  -3.704  0.00  0.00    +0.150 HD
BRANCH  11  19
ATOM     19  C   UNL     1      15.295  -6.633  -3.718  0.00  0.00    +0.184 C 
BRANCH  19  20
ATOM     20  C   UNL     1      15.262  -8.175  -3.635  0.00  0.00    +0.014 C 
ATOM     24  C   UNL     1      14.154  -8.710  -2.721  0.00  0.00    +0.009 C 
ATOM     25  C   UNL     1      16.617  -8.736  -3.195  0.00  0.00    +0.009 C 
ENDBRANCH  19  20
BRANCH  19  23
ATOM      8  O   UNL     1      13.570  -5.614  -5.071  0.00  0.00    -0.249 OA
ATOM     23  C   UNL     1      14.679  -6.136  -5.021  0.00  0.00    +0.328 C 
BRANCH  23   7
ATOM      7  O   UNL     1      15.495  -6.346  -6.091  0.00  0.00    -0.467 OA
ATOM     28  C   UNL     1      15.385  -5.395  -7.155  0.00  0.00    +0.280 C 
ENDBRANCH  23   7
ENDBRANCH  19  23
ENDBRANCH  11  19
ENDBRANCH  14  17
BRANCH  18  21
ATOM     21  C   UNL     1      19.505  -3.093  -6.345  0.00  0.00    +0.164 C 
BRANCH  21   1
ATOM      1  S   UNL     1      18.350  -2.967  -7.719  0.00  0.00    -0.155 S 
ATOM     27  C   UNL     1      17.053  -2.003  -6.906  0.00  0.00    +0.085 C 
ENDBRANCH  21   1
ENDBRANCH  18  21
TORSDOF 9
ENDMDL
MODEL 9
REMARK VINA RESULT:      -5.3     29.456     31.594
REMARK  Name = 7049570
REMARK  13 active torsions:
REMARK  status: ('A' for Active; 'I' for Inactive)
REMARK    1  A    between atoms: S_1  and  C_21
REMARK    2  A    between atoms: S_1  and  C_27
REMARK    3  A    between atoms: O_7  and  C_23
REMARK    4  A    between atoms: O_7  and  C_28
REMARK    5  A    between atoms: N_10  and  C_13
REMARK    6  A    between atoms: N_11  and  C_19
REMARK    7  A    between atoms: N_12  and  C_26
REMARK    8  A    between atoms: C_14  and  C_17
REMARK    9  A    between atoms: C_18  and  C_21
REMARK   10  A    between atoms: C_19  and  C_20
REMARK   11  A    between atoms: C_19  and  C_23
REMARK   12  A    between atoms: C_20  and  C_24
REMARK   13  A    between atoms: C_20  and  C_25
REMARK                            x       y       z     vdW  Elec       q    Type
REMARK                         _______ _______ _______ _____ _____    ______ ____
ROOT
ATOM      5  O   UNL     1      -7.800  -6.611   8.470  0.00  0.00    -0.275 OA
ATOM      9  N   UNL     1      -7.960  -8.671   9.513  0.00  0.00    -0.287 N 
ATOM     13  C   UNL     1      -6.465  -9.952  10.835  0.00  0.00    +0.105 C 
ATOM     14  C   UNL     1      -6.539  -8.812   9.819  0.00  0.00    +0.182 C 
ATOM     15  C   UNL     1      -7.695 -10.803  10.508  0.00  0.00    +0.043 C 
ATOM     16  C   UNL     1      -8.733  -9.783  10.058  0.00  0.00    +0.110 C 
ATOM     18  C   UNL     1      -8.482  -7.532   8.920  0.00  0.00    +0.226 C 
ENDROOT
BRANCH  13  10
ATOM      6  O   UNL     1      -5.776 -11.369  13.227  0.00  0.00    -0.252 OA
ATOM     10  N   UNL     1      -6.522  -9.444  12.186  0.00  0.00    -0.294 N 
ATOM     12  N   UNL     1      -6.322  -9.456  14.472  0.00  0.00    -0.267 N 
ATOM     22  C   UNL     1      -6.166 -10.206  13.304  0.00  0.00    +0.304 C 
ATOM     34  H   UNL     1      -6.771  -8.471  12.327  0.00  0.00    +0.151 HD
ATOM     36  H   UNL     1      -6.660  -8.503  14.364  0.00  0.00    +0.156 HD
BRANCH  12  26
ATOM      2  F   UNL     1      -8.288  -9.297  16.442  0.00  0.00    -0.203 F 
ATOM      3  F   UNL     1      -5.326 -11.046  19.688  0.00  0.00    -0.205 F 
ATOM     26  C   UNL     1      -6.071  -9.860  15.804  0.00  0.00    +0.070 A 
ATOM     29  C   UNL     1      -7.076  -9.769  16.767  0.00  0.00    +0.147 A 
ATOM     30  C   UNL     1      -4.813 -10.353  16.154  0.00  0.00    +0.029 A 
ATOM     31  C   UNL     1      -6.825 -10.169  18.079  0.00  0.00    +0.078 A 
ATOM     32  C   UNL     1      -4.562 -10.752  17.467  0.00  0.00    +0.040 A 
ATOM     33  C   UNL     1      -5.568 -10.661  18.429  0.00  0.00    +0.126 A 
ENDBRANCH  12  26
ENDBRANCH  13  10
BRANCH  14  17
ATOM      4  O   UNL     1      -4.636  -9.234   8.440  0.00  0.00    -0.274 OA
ATOM     11  N   UNL     1      -6.764  -9.408   7.510  0.00  0.00    -0.301 N 
ATOM     17  C   UNL     1      -5.860  -9.178   8.533  0.00  0.00    +0.236 C 
ATOM     35  H   UNL     1      -7.755  -9.386   7.723  0.00  0.00    +0.150 HD
BRANCH  11  19
ATOM     19  C   UNL     1      -6.363  -9.754   6.166  0.00  0.00    +0.184 C 
BRANCH  19  20
ATOM     20  C   UNL     1      -7.508  -9.574   5.144  0.00  0.00    +0.014 C 
ATOM     24  C   UNL     1      -7.358  -8.316   4.282  0.00  0.00    +0.009 C 
ATOM     25  C   UNL     1      -8.873  -9.573   5.836  0.00  0.00    +0.009 C 
ENDBRANCH  19  20
BRANCH  19  23
ATOM      8  O   UNL     1      -4.598 -11.373   5.835  0.00  0.00    -0.249 OA
ATOM     23  C   UNL     1      -5.777 -11.160   6.097  0.00  0.00    +0.328 C 
BRANCH  23   7
ATOM      7  O   UNL     1      -6.708 -12.120   6.354  0.00  0.00    -0.467 OA
ATOM     28  C   UNL     1      -6.650 -13.282   5.520  0.00  0.00    +0.280 C 
ENDBRANCH  23   7
ENDBRANCH  19  23
ENDBRANCH  11  19
ENDBRANCH  14  17
BRANCH  18  21
ATOM     21  C   UNL     1      -9.988  -7.474   8.839  0.00  0.00    +0.164 C 
BRANCH  21   1
ATOM      1  S   UNL     1     -10.424  -6.115   7.744  0.00  0.00    -0.155 S 
ATOM     27  C   UNL     1     -10.789  -4.857   8.993  0.00  0.00    +0.085 C 
ENDBRANCH  21   1
ENDBRANCH  18  21
TORSDOF 9
ENDMDL
MODEL 10
REMARK VINA RESULT:      -5.3     28.194     31.028
REMARK  Name = 7049570
REMARK  13 active torsions:
REMARK  status: ('A' for Active; 'I' for Inactive)
REMARK    1  A    between atoms: S_1  and  C_21
REMARK    2  A    between atoms: S_1  and  C_27
REMARK    3  A    between atoms: O_7  and  C_23
REMARK    4  A    between atoms: O_7  and  C_28
REMARK    5  A    between atoms: N_10  and  C_13
REMARK    6  A    between atoms: N_11  and  C_19
REMARK    7  A    between atoms: N_12  and  C_26
REMARK    8  A    between atoms: C_14  and  C_17
REMARK    9  A    between atoms: C_18  and  C_21
REMARK   10  A    between atoms: C_19  and  C_20
REMARK   11  A    between atoms: C_19  and  C_23
REMARK   12  A    between atoms: C_20  and  C_24
REMARK   13  A    between atoms: C_20  and  C_25
REMARK                            x       y       z     vdW  Elec       q    Type
REMARK                         _______ _______ _______ _____ _____    ______ ____
ROOT
ATOM      5  O   UNL     1      -3.435 -14.340  12.661  0.00  0.00    -0.275 OA
ATOM      9  N   UNL     1      -2.456 -12.567  13.783  0.00  0.00    -0.287 N 
ATOM     13  C   UNL     1      -3.194 -10.386  14.349  0.00  0.00    +0.105 C 
ATOM     14  C   UNL     1      -3.453 -11.567  13.413  0.00  0.00    +0.182 C 
ATOM     15  C   UNL     1      -1.702 -10.508  14.672  0.00  0.00    +0.043 C 
ATOM     16  C   UNL     1      -1.454 -12.010  14.687  0.00  0.00    +0.110 C 
ATOM     18  C   UNL     1      -2.576 -13.902  13.428  0.00  0.00    +0.226 C 
ENDROOT
BRANCH  13  10
ATOM      6  O   UNL     1      -5.983  -9.778  14.590  0.00  0.00    -0.252 OA
ATOM     10  N   UNL     1      -3.999 -10.487  15.543  0.00  0.00    -0.294 N 
ATOM     12  N   UNL     1      -5.875 -10.362  16.861  0.00  0.00    -0.267 N 
ATOM     22  C   UNL     1      -5.361 -10.169  15.575  0.00  0.00    +0.304 C 
ATOM     34  H   UNL     1      -3.574 -10.866  16.384  0.00  0.00    +0.151 HD
ATOM     36  H   UNL     1      -5.224 -10.689  17.571  0.00  0.00    +0.156 HD
BRANCH  12  26
ATOM      2  F   UNL     1      -7.169 -12.203  18.504  0.00  0.00    -0.203 F 
ATOM      3  F   UNL     1     -11.071  -9.532  18.602  0.00  0.00    -0.205 F 
ATOM     26  C   UNL     1      -7.200 -10.153  17.306  0.00  0.00    +0.070 A 
ATOM     29  C   UNL     1      -7.821 -11.094  18.128  0.00  0.00    +0.147 A 
ATOM     30  C   UNL     1      -7.889  -9.002  16.921  0.00  0.00    +0.029 A 
ATOM     31  C   UNL     1      -9.128 -10.884  18.565  0.00  0.00    +0.078 A 
ATOM     32  C   UNL     1      -9.197  -8.793  17.358  0.00  0.00    +0.040 A 
ATOM     33  C   UNL     1      -9.817  -9.734  18.181  0.00  0.00    +0.126 A 
ENDBRANCH  12  26
ENDBRANCH  13  10
BRANCH  14  17
ATOM      4  O   UNL     1      -2.217 -10.517  11.661  0.00  0.00    -0.274 OA
ATOM     11  N   UNL     1      -4.144 -11.709  11.124  0.00  0.00    -0.301 N 
ATOM     17  C   UNL     1      -3.183 -11.204  11.983  0.00  0.00    +0.236 C 
ATOM     35  H   UNL     1      -4.867 -12.312  11.503  0.00  0.00    +0.150 HD
BRANCH  11  19
ATOM     19  C   UNL     1      -4.126 -11.482   9.698  0.00  0.00    +0.184 C 
BRANCH  19  20
ATOM     20  C   UNL     1      -5.023 -10.296   9.278  0.00  0.00    +0.014 C 
ATOM     24  C   UNL     1      -4.252  -8.983   9.108  0.00  0.00    +0.009 C 
ATOM     25  C   UNL     1      -6.178 -10.099  10.263  0.00  0.00    +0.009 C 
ENDBRANCH  19  20
BRANCH  19  23
ATOM      8  O   UNL     1      -3.883 -13.086   7.905  0.00  0.00    -0.249 OA
ATOM     23  C   UNL     1      -4.480 -12.745   8.922  0.00  0.00    +0.328 C 
BRANCH  23   7
ATOM      7  O   UNL     1      -5.518 -13.424   9.486  0.00  0.00    -0.467 OA
ATOM     28  C   UNL     1      -6.613 -13.723   8.614  0.00  0.00    +0.280 C 
ENDBRANCH  23   7
ENDBRANCH  19  23
ENDBRANCH  11  19
ENDBRANCH  14  17
BRANCH  18  21
ATOM     21  C   UNL     1      -1.558 -14.832  14.041  0.00  0.00    +0.164 C 
BRANCH  21   1
ATOM      1  S   UNL     1      -2.186 -16.510  13.884  0.00  0.00    -0.155 S 
ATOM     27  C   UNL     1      -2.845 -16.720  15.556  0.00  0.00    +0.085 C 
ENDBRANCH  21   1
ENDBRANCH  18  21
TORSDOF 9
ENDMDL
