MODEL 1
REMARK VINA RESULT:      -8.4      0.000      0.000
REMARK  Name = 11886265
REMARK  8 active torsions:
REMARK  status: ('A' for Active; 'I' for Inactive)
REMARK    1  A    between atoms: O_3  and  C_21
REMARK    2  A    between atoms: O_3  and  C_24
REMARK    3  A    between atoms: O_5  and  C_34
REMARK    4  A    between atoms: O_5  and  C_36
REMARK    5  A    between atoms: N_6  and  C_17
REMARK    6  A    between atoms: N_7  and  C_18
REMARK    7  A    between atoms: N_11  and  C_23
REMARK    8  A    between atoms: N_12  and  C_33
REMARK                            x       y       z     vdW  Elec       q    Type
REMARK                         _______ _______ _______ _____ _____    ______ ____
ROOT
ATOM      1  O   UNL     1     -11.595  10.867  35.098  0.00  0.00    -0.370 OA
ATOM      2  O   UNL     1     -10.368   9.643  32.474  0.00  0.00    -0.370 OA
ATOM     15  C   UNL     1     -10.802   9.085  33.729  0.00  0.00    +0.176 C 
ATOM     16  C   UNL     1     -10.430  10.077  34.813  0.00  0.00    +0.172 C 
ATOM     17  C   UNL     1     -12.316   9.021  33.767  0.00  0.00    +0.171 C 
ATOM     18  C   UNL     1      -9.357  10.936  34.183  0.00  0.00    +0.131 C 
ATOM     19  C   UNL     1     -12.704  10.385  34.325  0.00  0.00    +0.190 C 
ATOM     20  C   UNL     1      -9.745  10.912  32.715  0.00  0.00    +0.185 C 
ENDROOT
BRANCH  18   7
ATOM      4  O   UNL     1      -7.941  10.746  36.664  0.00  0.00    -0.252 OA
ATOM      7  N   UNL     1      -8.047  10.368  34.386  0.00  0.00    -0.292 N 
ATOM     11  N   UNL     1      -6.166   9.711  35.528  0.00  0.00    -0.269 N 
ATOM     22  C   UNL     1      -7.422  10.313  35.638  0.00  0.00    +0.304 C 
ATOM     43  H   UNL     1      -7.583   9.929  33.597  0.00  0.00    +0.151 HD
ATOM     44  H   UNL     1      -5.884   9.408  34.600  0.00  0.00    +0.156 HD
BRANCH  11  23
ATOM     23  C   UNL     1      -5.227   9.469  36.559  0.00  0.00    +0.035 A 
ATOM     25  C   UNL     1      -3.866   9.663  36.321  0.00  0.00    +0.027 A 
ATOM     26  C   UNL     1      -5.661   9.039  37.812  0.00  0.00    +0.027 A 
ATOM     31  C   UNL     1      -2.940   9.425  37.337  0.00  0.00    +0.048 A 
ATOM     32  C   UNL     1      -4.736   8.802  38.828  0.00  0.00    +0.048 A 
ATOM     34  C   UNL     1      -3.375   8.995  38.590  0.00  0.00    +0.129 A 
BRANCH  34   5
ATOM      5  O   UNL     1      -2.471   8.766  39.582  0.00  0.00    -0.456 OA
BRANCH   5  36
ATOM     36  C   UNL     1      -1.997   7.474  39.735  0.00  0.00    +0.128 A 
ATOM     38  C   UNL     1      -2.653   6.588  40.590  0.00  0.00    +0.046 A 
ATOM     39  C   UNL     1      -0.865   7.058  39.036  0.00  0.00    +0.046 A 
ATOM     40  C   UNL     1      -2.176   5.286  40.746  0.00  0.00    +0.004 A 
ATOM     41  C   UNL     1      -0.387   5.757  39.191  0.00  0.00    +0.004 A 
ATOM     42  C   UNL     1      -1.043   4.870  40.046  0.00  0.00    +0.000 A 
ENDBRANCH   5  36
ENDBRANCH  34   5
ENDBRANCH  11  23
ENDBRANCH  18   7
BRANCH  17   6
ATOM      6  N   UNL     1     -12.811   7.874  34.533  0.00  0.00    -0.187 N 
ATOM      8  N   UNL     1     -12.521   7.732  35.835  0.00  0.00    -0.041 NA
ATOM      9  N   UNL     1     -13.785   6.032  35.137  0.00  0.00    -0.071 NA
ATOM     10  N   UNL     1     -13.120   6.604  36.198  0.00  0.00    -0.020 NA
ATOM     21  C   UNL     1     -13.581   6.834  34.117  0.00  0.00    +0.342 A 
BRANCH  21   3
ATOM      3  O   UNL     1     -14.035   6.678  32.888  0.00  0.00    -0.423 OA
BRANCH   3  24
ATOM     24  C   UNL     1     -14.250   5.380  32.397  0.00  0.00    +0.132 A 
ATOM     27  C   UNL     1     -15.550   4.915  32.201  0.00  0.00    +0.048 A 
ATOM     28  C   UNL     1     -13.163   4.556  32.106  0.00  0.00    +0.048 A 
ATOM     29  C   UNL     1     -15.763   3.626  31.714  0.00  0.00    +0.031 A 
ATOM     30  C   UNL     1     -13.376   3.266  31.618  0.00  0.00    +0.031 A 
ATOM     33  C   UNL     1     -14.676   2.801  31.422  0.00  0.00    +0.067 A 
BRANCH  33  12
ATOM     12  N   UNL     1     -14.888   1.523  30.939  0.00  0.00    -0.220 N 
ATOM     13  N   UNL     1     -14.948   0.460  31.755  0.00  0.00    -0.154 NA
ATOM     14  N   UNL     1     -15.240  -0.142  29.567  0.00  0.00    -0.222 NA
ATOM     35  C   UNL     1     -15.063   1.157  29.640  0.00  0.00    +0.225 A 
ATOM     37  C   UNL     1     -15.161  -0.522  30.876  0.00  0.00    +0.245 A 
ENDBRANCH  33  12
ENDBRANCH   3  24
ENDBRANCH  21   3
ENDBRANCH  17   6
TORSDOF 8
ENDMDL
MODEL 2
REMARK VINA RESULT:      -8.4     28.077     31.880
REMARK  Name = 11886265
REMARK  8 active torsions:
REMARK  status: ('A' for Active; 'I' for Inactive)
REMARK    1  A    between atoms: O_3  and  C_21
REMARK    2  A    between atoms: O_3  and  C_24
REMARK    3  A    between atoms: O_5  and  C_34
REMARK    4  A    between atoms: O_5  and  C_36
REMARK    5  A    between atoms: N_6  and  C_17
REMARK    6  A    between atoms: N_7  and  C_18
REMARK    7  A    between atoms: N_11  and  C_23
REMARK    8  A    between atoms: N_12  and  C_33
REMARK                            x       y       z     vdW  Elec       q    Type
REMARK                         _______ _______ _______ _____ _____    ______ ____
ROOT
ATOM      1  O   UNL     1      12.358   6.829  19.731  0.00  0.00    -0.370 OA
ATOM      2  O   UNL     1      14.217   9.339  20.100  0.00  0.00    -0.370 OA
ATOM     15  C   UNL     1      13.702   8.638  18.953  0.00  0.00    +0.176 C 
ATOM     16  C   UNL     1      13.687   7.162  19.299  0.00  0.00    +0.172 C 
ATOM     17  C   UNL     1      12.245   8.999  18.741  0.00  0.00    +0.171 C 
ATOM     18  C   UNL     1      14.658   7.038  20.452  0.00  0.00    +0.131 C 
ATOM     19  C   UNL     1      11.509   7.979  19.602  0.00  0.00    +0.190 C 
ATOM     20  C   UNL     1      14.529   8.390  21.130  0.00  0.00    +0.185 C 
ENDROOT
BRANCH  18   7
ATOM      4  O   UNL     1      16.910   6.225  22.023  0.00  0.00    -0.252 OA
ATOM      7  N   UNL     1      16.003   6.816  19.980  0.00  0.00    -0.292 N 
ATOM     11  N   UNL     1      18.234   6.282  20.085  0.00  0.00    -0.269 N 
ATOM     22  C   UNL     1      17.052   6.417  20.818  0.00  0.00    +0.304 C 
ATOM     43  H   UNL     1      16.184   6.890  18.984  0.00  0.00    +0.151 HD
ATOM     44  H   UNL     1      18.180   6.482  19.090  0.00  0.00    +0.156 HD
BRANCH  11  23
ATOM     23  C   UNL     1      19.510   5.899  20.561  0.00  0.00    +0.035 A 
ATOM     25  C   UNL     1      20.224   6.751  21.404  0.00  0.00    +0.027 A 
ATOM     26  C   UNL     1      20.054   4.670  20.188  0.00  0.00    +0.027 A 
ATOM     31  C   UNL     1      21.482   6.373  21.874  0.00  0.00    +0.048 A 
ATOM     32  C   UNL     1      21.311   4.292  20.658  0.00  0.00    +0.048 A 
ATOM     34  C   UNL     1      22.026   5.143  21.501  0.00  0.00    +0.129 A 
BRANCH  34   5
ATOM      5  O   UNL     1      23.252   4.774  21.962  0.00  0.00    -0.456 OA
BRANCH   5  36
ATOM     36  C   UNL     1      23.362   3.539  22.578  0.00  0.00    +0.128 A 
ATOM     38  C   UNL     1      22.708   3.302  23.787  0.00  0.00    +0.046 A 
ATOM     39  C   UNL     1      24.127   2.532  21.990  0.00  0.00    +0.046 A 
ATOM     40  C   UNL     1      22.820   2.058  24.408  0.00  0.00    +0.004 A 
ATOM     41  C   UNL     1      24.239   1.288  22.611  0.00  0.00    +0.004 A 
ATOM     42  C   UNL     1      23.585   1.050  23.820  0.00  0.00    +0.000 A 
ENDBRANCH   5  36
ENDBRANCH  34   5
ENDBRANCH  11  23
ENDBRANCH  18   7
BRANCH  17   6
ATOM      6  N   UNL     1      11.867   9.003  17.324  0.00  0.00    -0.187 N 
ATOM      8  N   UNL     1      10.889   8.210  16.865  0.00  0.00    -0.041 NA
ATOM      9  N   UNL     1      11.746   9.419  15.199  0.00  0.00    -0.071 NA
ATOM     10  N   UNL     1      10.819   8.470  15.564  0.00  0.00    -0.020 NA
ATOM     21  C   UNL     1      12.384   9.736  16.303  0.00  0.00    +0.342 A 
BRANCH  21   3
ATOM      3  O   UNL     1      13.363  10.612  16.426  0.00  0.00    -0.423 OA
BRANCH   3  24
ATOM     24  C   UNL     1      14.053  11.032  15.277  0.00  0.00    +0.132 A 
ATOM     27  C   UNL     1      13.528  12.050  14.481  0.00  0.00    +0.048 A 
ATOM     28  C   UNL     1      15.264  10.431  14.932  0.00  0.00    +0.048 A 
ATOM     29  C   UNL     1      14.214  12.467  13.340  0.00  0.00    +0.031 A 
ATOM     30  C   UNL     1      15.949  10.848  13.791  0.00  0.00    +0.031 A 
ATOM     33  C   UNL     1      15.425  11.867  12.995  0.00  0.00    +0.067 A 
BRANCH  33  12
ATOM     12  N   UNL     1      16.104  12.280  11.864  0.00  0.00    -0.220 N 
ATOM     13  N   UNL     1      15.459  12.732  10.778  0.00  0.00    -0.154 NA
ATOM     14  N   UNL     1      17.727  12.758  10.481  0.00  0.00    -0.222 NA
ATOM     35  C   UNL     1      17.452  12.299  11.680  0.00  0.00    +0.225 A 
ATOM     37  C   UNL     1      16.486  13.007   9.970  0.00  0.00    +0.245 A 
ENDBRANCH  33  12
ENDBRANCH   3  24
ENDBRANCH  21   3
ENDBRANCH  17   6
TORSDOF 8
ENDMDL
MODEL 3
REMARK VINA RESULT:      -8.3     28.494     32.621
REMARK  Name = 11886265
REMARK  8 active torsions:
REMARK  status: ('A' for Active; 'I' for Inactive)
REMARK    1  A    between atoms: O_3  and  C_21
REMARK    2  A    between atoms: O_3  and  C_24
REMARK    3  A    between atoms: O_5  and  C_34
REMARK    4  A    between atoms: O_5  and  C_36
REMARK    5  A    between atoms: N_6  and  C_17
REMARK    6  A    between atoms: N_7  and  C_18
REMARK    7  A    between atoms: N_11  and  C_23
REMARK    8  A    between atoms: N_12  and  C_33
REMARK                            x       y       z     vdW  Elec       q    Type
REMARK                         _______ _______ _______ _____ _____    ______ ____
ROOT
ATOM      1  O   UNL     1      14.329   7.471  21.464  0.00  0.00    -0.370 OA
ATOM      2  O   UNL     1      16.302   9.582  20.223  0.00  0.00    -0.370 OA
ATOM     15  C   UNL     1      15.402   8.607  19.664  0.00  0.00    +0.176 C 
ATOM     16  C   UNL     1      15.446   7.389  20.566  0.00  0.00    +0.172 C 
ATOM     17  C   UNL     1      13.975   9.108  19.762  0.00  0.00    +0.171 C 
ATOM     18  C   UNL     1      16.743   7.534  21.329  0.00  0.00    +0.131 C 
ATOM     19  C   UNL     1      13.532   8.619  21.136  0.00  0.00    +0.190 C 
ATOM     20  C   UNL     1      16.905   9.042  21.407  0.00  0.00    +0.185 C 
ENDROOT
BRANCH  18   7
ATOM      4  O   UNL     1      19.198   6.581  22.454  0.00  0.00    -0.252 OA
ATOM      7  N   UNL     1      17.840   6.928  20.616  0.00  0.00    -0.292 N 
ATOM     11  N   UNL     1      19.893   5.945  20.304  0.00  0.00    -0.269 N 
ATOM     22  C   UNL     1      19.012   6.486  21.244  0.00  0.00    +0.304 C 
ATOM     43  H   UNL     1      17.733   6.754  19.621  0.00  0.00    +0.151 HD
ATOM     44  H   UNL     1      19.583   5.944  19.336  0.00  0.00    +0.156 HD
BRANCH  11  23
ATOM     23  C   UNL     1      21.175   5.394  20.534  0.00  0.00    +0.035 A 
ATOM     25  C   UNL     1      21.313   4.026  20.774  0.00  0.00    +0.027 A 
ATOM     26  C   UNL     1      22.301   6.216  20.521  0.00  0.00    +0.027 A 
ATOM     31  C   UNL     1      22.577   3.482  21.000  0.00  0.00    +0.048 A 
ATOM     32  C   UNL     1      23.565   5.672  20.747  0.00  0.00    +0.048 A 
ATOM     34  C   UNL     1      23.703   4.305  20.987  0.00  0.00    +0.129 A 
BRANCH  34   5
ATOM      5  O   UNL     1      24.937   3.773  21.205  0.00  0.00    -0.456 OA
BRANCH   5  36
ATOM     36  C   UNL     1      25.022   2.661  22.027  0.00  0.00    +0.128 A 
ATOM     38  C   UNL     1      24.805   2.791  23.399  0.00  0.00    +0.046 A 
ATOM     39  C   UNL     1      25.324   1.413  21.484  0.00  0.00    +0.046 A 
ATOM     40  C   UNL     1      24.892   1.672  24.227  0.00  0.00    +0.004 A 
ATOM     41  C   UNL     1      25.411   0.294  22.312  0.00  0.00    +0.004 A 
ATOM     42  C   UNL     1      25.194   0.423  23.684  0.00  0.00    +0.000 A 
ENDBRANCH   5  36
ENDBRANCH  34   5
ENDBRANCH  11  23
ENDBRANCH  18   7
BRANCH  17   6
ATOM      6  N   UNL     1      13.142   8.654  18.644  0.00  0.00    -0.187 N 
ATOM      8  N   UNL     1      12.689   7.393  18.584  0.00  0.00    -0.041 NA
ATOM      9  N   UNL     1      11.990   8.548  16.810  0.00  0.00    -0.071 NA
ATOM     10  N   UNL     1      11.984   7.335  17.460  0.00  0.00    -0.020 NA
ATOM     21  C   UNL     1      12.711   9.350  17.559  0.00  0.00    +0.342 A 
BRANCH  21   3
ATOM      3  O   UNL     1      12.987  10.618  17.321  0.00  0.00    -0.423 OA
BRANCH   3  24
ATOM     24  C   UNL     1      14.128  10.941  16.569  0.00  0.00    +0.132 A 
ATOM     27  C   UNL     1      15.092  11.798  17.098  0.00  0.00    +0.048 A 
ATOM     28  C   UNL     1      14.297  10.403  15.293  0.00  0.00    +0.048 A 
ATOM     29  C   UNL     1      16.226  12.118  16.350  0.00  0.00    +0.031 A 
ATOM     30  C   UNL     1      15.430  10.724  14.545  0.00  0.00    +0.031 A 
ATOM     33  C   UNL     1      16.395  11.581  15.074  0.00  0.00    +0.067 A 
BRANCH  33  12
ATOM     12  N   UNL     1      17.518  11.899  14.333  0.00  0.00    -0.220 N 
ATOM     13  N   UNL     1      18.750  11.546  14.731  0.00  0.00    -0.154 NA
ATOM     14  N   UNL     1      18.801  12.686  12.748  0.00  0.00    -0.222 NA
ATOM     35  C   UNL     1      17.557  12.576  13.154  0.00  0.00    +0.225 A 
ATOM     37  C   UNL     1      19.490  12.046  13.738  0.00  0.00    +0.245 A 
ENDBRANCH  33  12
ENDBRANCH   3  24
ENDBRANCH  21   3
ENDBRANCH  17   6
TORSDOF 8
ENDMDL
MODEL 4
REMARK VINA RESULT:      -8.3     24.534     28.742
REMARK  Name = 11886265
REMARK  8 active torsions:
REMARK  status: ('A' for Active; 'I' for Inactive)
REMARK    1  A    between atoms: O_3  and  C_21
REMARK    2  A    between atoms: O_3  and  C_24
REMARK    3  A    between atoms: O_5  and  C_34
REMARK    4  A    between atoms: O_5  and  C_36
REMARK    5  A    between atoms: N_6  and  C_17
REMARK    6  A    between atoms: N_7  and  C_18
REMARK    7  A    between atoms: N_11  and  C_23
REMARK    8  A    between atoms: N_12  and  C_33
REMARK                            x       y       z     vdW  Elec       q    Type
REMARK                         _______ _______ _______ _____ _____    ______ ____
ROOT
ATOM      1  O   UNL     1      -4.880 -10.312  18.272  0.00  0.00    -0.370 OA
ATOM      2  O   UNL     1      -6.517 -12.005  16.188  0.00  0.00    -0.370 OA
ATOM     15  C   UNL     1      -5.368 -11.144  16.093  0.00  0.00    +0.176 C 
ATOM     16  C   UNL     1      -5.584  -9.998  17.061  0.00  0.00    +0.172 C 
ATOM     17  C   UNL     1      -4.140 -11.865  16.616  0.00  0.00    +0.171 C 
ATOM     18  C   UNL     1      -7.076  -9.994  17.308  0.00  0.00    +0.131 C 
ATOM     19  C   UNL     1      -4.163 -11.543  18.106  0.00  0.00    +0.190 C 
ATOM     20  C   UNL     1      -7.434 -11.461  17.148  0.00  0.00    +0.185 C 
ENDROOT
BRANCH  18   7
ATOM      4  O   UNL     1      -9.817  -9.171  17.400  0.00  0.00    -0.252 OA
ATOM      7  N   UNL     1      -7.764  -9.179  16.337  0.00  0.00    -0.292 N 
ATOM     11  N   UNL     1      -9.504  -8.030  15.372  0.00  0.00    -0.269 N 
ATOM     22  C   UNL     1      -9.113  -8.820  16.457  0.00  0.00    +0.304 C 
ATOM     43  H   UNL     1      -7.231  -8.794  15.564  0.00  0.00    +0.151 HD
ATOM     44  H   UNL     1      -8.794  -7.831  14.673  0.00  0.00    +0.156 HD
BRANCH  11  23
ATOM     23  C   UNL     1     -10.778  -7.469  15.123  0.00  0.00    +0.035 A 
ATOM     25  C   UNL     1     -11.613  -8.036  14.160  0.00  0.00    +0.027 A 
ATOM     26  C   UNL     1     -11.200  -6.350  15.840  0.00  0.00    +0.027 A 
ATOM     31  C   UNL     1     -12.871  -7.483  13.915  0.00  0.00    +0.048 A 
ATOM     32  C   UNL     1     -12.457  -5.798  15.595  0.00  0.00    +0.048 A 
ATOM     34  C   UNL     1     -13.292  -6.364  14.632  0.00  0.00    +0.129 A 
BRANCH  34   5
ATOM      5  O   UNL     1     -14.520  -5.827  14.394  0.00  0.00    -0.456 OA
BRANCH   5  36
ATOM     36  C   UNL     1     -14.692  -5.108  13.224  0.00  0.00    +0.128 A 
ATOM     38  C   UNL     1     -15.536  -5.594  12.225  0.00  0.00    +0.046 A 
ATOM     39  C   UNL     1     -14.021  -3.898  13.042  0.00  0.00    +0.046 A 
ATOM     40  C   UNL     1     -15.709  -4.870  11.045  0.00  0.00    +0.004 A 
ATOM     41  C   UNL     1     -14.194  -3.175  11.862  0.00  0.00    +0.004 A 
ATOM     42  C   UNL     1     -15.038  -3.660  10.863  0.00  0.00    +0.000 A 
ENDBRANCH   5  36
ENDBRANCH  34   5
ENDBRANCH  11  23
ENDBRANCH  18   7
BRANCH  17   6
ATOM      6  N   UNL     1      -2.915 -11.469  15.915  0.00  0.00    -0.187 N 
ATOM      8  N   UNL     1      -2.010 -10.669  16.497  0.00  0.00    -0.041 NA
ATOM      9  N   UNL     1      -1.342 -11.222  14.443  0.00  0.00    -0.071 NA
ATOM     10  N   UNL     1      -1.050 -10.522  15.591  0.00  0.00    -0.020 NA
ATOM     21  C   UNL     1      -2.499 -11.801  14.664  0.00  0.00    +0.342 A 
BRANCH  21   3
ATOM      3  O   UNL     1      -3.166 -12.577  13.831  0.00  0.00    -0.423 OA
BRANCH   3  24
ATOM     24  C   UNL     1      -3.700 -12.020  12.657  0.00  0.00    +0.132 A 
ATOM     27  C   UNL     1      -3.369 -12.563  11.415  0.00  0.00    +0.048 A 
ATOM     28  C   UNL     1      -4.560 -10.925  12.733  0.00  0.00    +0.048 A 
ATOM     29  C   UNL     1      -3.899 -12.010  10.249  0.00  0.00    +0.031 A 
ATOM     30  C   UNL     1      -5.090 -10.372  11.567  0.00  0.00    +0.031 A 
ATOM     33  C   UNL     1      -4.760 -10.915  10.325  0.00  0.00    +0.067 A 
BRANCH  33  12
ATOM     12  N   UNL     1      -5.285 -10.367   9.169  0.00  0.00    -0.220 N 
ATOM     13  N   UNL     1      -4.786 -10.659   7.958  0.00  0.00    -0.154 NA
ATOM     14  N   UNL     1      -6.542  -9.201   7.814  0.00  0.00    -0.222 NA
ATOM     35  C   UNL     1      -6.329  -9.499   9.075  0.00  0.00    +0.225 A 
ATOM     37  C   UNL     1      -5.581  -9.928   7.174  0.00  0.00    +0.245 A 
ENDBRANCH  33  12
ENDBRANCH   3  24
ENDBRANCH  21   3
ENDBRANCH  17   6
TORSDOF 8
ENDMDL
MODEL 5
REMARK VINA RESULT:      -8.2     28.944     32.988
REMARK  Name = 11886265
REMARK  8 active torsions:
REMARK  status: ('A' for Active; 'I' for Inactive)
REMARK    1  A    between atoms: O_3  and  C_21
REMARK    2  A    between atoms: O_3  and  C_24
REMARK    3  A    between atoms: O_5  and  C_34
REMARK    4  A    between atoms: O_5  and  C_36
REMARK    5  A    between atoms: N_6  and  C_17
REMARK    6  A    between atoms: N_7  and  C_18
REMARK    7  A    between atoms: N_11  and  C_23
REMARK    8  A    between atoms: N_12  and  C_33
REMARK                            x       y       z     vdW  Elec       q    Type
REMARK                         _______ _______ _______ _____ _____    ______ ____
ROOT
ATOM      1  O   UNL     1      13.915   7.024  21.264  0.00  0.00    -0.370 OA
ATOM      2  O   UNL     1      15.858   9.362  20.458  0.00  0.00    -0.370 OA
ATOM     15  C   UNL     1      15.038   8.443  19.712  0.00  0.00    +0.176 C 
ATOM     16  C   UNL     1      15.085   7.112  20.436  0.00  0.00    +0.172 C 
ATOM     17  C   UNL     1      13.586   8.873  19.788  0.00  0.00    +0.171 C 
ATOM     18  C   UNL     1      16.328   7.195  21.293  0.00  0.00    +0.131 C 
ATOM     19  C   UNL     1      13.088   8.177  21.049  0.00  0.00    +0.190 C 
ATOM     20  C   UNL     1      16.416   8.682  21.592  0.00  0.00    +0.185 C 
ENDROOT
BRANCH  18   7
ATOM      4  O   UNL     1      18.958   6.813  22.358  0.00  0.00    -0.252 OA
ATOM      7  N   UNL     1      17.491   6.738  20.574  0.00  0.00    -0.292 N 
ATOM     11  N   UNL     1      19.678   6.123  20.233  0.00  0.00    -0.269 N 
ATOM     22  C   UNL     1      18.748   6.577  21.172  0.00  0.00    +0.304 C 
ATOM     43  H   UNL     1      17.381   6.458  19.604  0.00  0.00    +0.151 HD
ATOM     44  H   UNL     1      19.338   5.977  19.286  0.00  0.00    +0.156 HD
BRANCH  11  23
ATOM     23  C   UNL     1      21.048   5.838  20.438  0.00  0.00    +0.035 A 
ATOM     25  C   UNL     1      21.987   6.870  20.405  0.00  0.00    +0.027 A 
ATOM     26  C   UNL     1      21.461   4.527  20.674  0.00  0.00    +0.027 A 
ATOM     31  C   UNL     1      23.338   6.590  20.608  0.00  0.00    +0.048 A 
ATOM     32  C   UNL     1      22.812   4.248  20.878  0.00  0.00    +0.048 A 
ATOM     34  C   UNL     1      23.751   5.279  20.844  0.00  0.00    +0.129 A 
BRANCH  34   5
ATOM      5  O   UNL     1      25.070   5.007  21.045  0.00  0.00    -0.456 OA
BRANCH   5  36
ATOM     36  C   UNL     1      25.898   4.984  19.936  0.00  0.00    +0.128 A 
ATOM     38  C   UNL     1      26.162   3.776  19.289  0.00  0.00    +0.046 A 
ATOM     39  C   UNL     1      26.469   6.166  19.466  0.00  0.00    +0.046 A 
ATOM     40  C   UNL     1      26.997   3.752  18.172  0.00  0.00    +0.004 A 
ATOM     41  C   UNL     1      27.304   6.141  18.349  0.00  0.00    +0.004 A 
ATOM     42  C   UNL     1      27.568   4.935  17.701  0.00  0.00    +0.000 A 
ENDBRANCH   5  36
ENDBRANCH  34   5
ENDBRANCH  11  23
ENDBRANCH  18   7
BRANCH  17   6
ATOM      6  N   UNL     1      12.841   8.551  18.567  0.00  0.00    -0.187 N 
ATOM      8  N   UNL     1      12.321   7.331  18.372  0.00  0.00    -0.041 NA
ATOM      9  N   UNL     1      11.871   8.647  16.630  0.00  0.00    -0.071 NA
ATOM     10  N   UNL     1      11.728   7.397  17.186  0.00  0.00    -0.020 NA
ATOM     21  C   UNL     1      12.562   9.346  17.500  0.00  0.00    +0.342 A 
BRANCH  21   3
ATOM      3  O   UNL     1      12.936  10.606  17.383  0.00  0.00    -0.423 OA
BRANCH   3  24
ATOM     24  C   UNL     1      14.079  10.913  16.626  0.00  0.00    +0.132 A 
ATOM     27  C   UNL     1      14.272  10.314  15.381  0.00  0.00    +0.048 A 
ATOM     28  C   UNL     1      15.020  11.816  17.119  0.00  0.00    +0.048 A 
ATOM     29  C   UNL     1      15.407  10.619  14.630  0.00  0.00    +0.031 A 
ATOM     30  C   UNL     1      16.155  12.121  16.367  0.00  0.00    +0.031 A 
ATOM     33  C   UNL     1      16.348  11.523  15.122  0.00  0.00    +0.067 A 
BRANCH  33  12
ATOM     12  N   UNL     1      17.473  11.825  14.377  0.00  0.00    -0.220 N 
ATOM     13  N   UNL     1      17.386  12.376  13.157  0.00  0.00    -0.154 NA
ATOM     14  N   UNL     1      19.562  12.039  13.773  0.00  0.00    -0.222 NA
ATOM     35  C   UNL     1      18.771  11.628  14.736  0.00  0.00    +0.225 A 
ATOM     37  C   UNL     1      18.677  12.484  12.835  0.00  0.00    +0.245 A 
ENDBRANCH  33  12
ENDBRANCH   3  24
ENDBRANCH  21   3
ENDBRANCH  17   6
TORSDOF 8
ENDMDL
MODEL 6
REMARK VINA RESULT:      -8.2      6.995     11.339
REMARK  Name = 11886265
REMARK  8 active torsions:
REMARK  status: ('A' for Active; 'I' for Inactive)
REMARK    1  A    between atoms: O_3  and  C_21
REMARK    2  A    between atoms: O_3  and  C_24
REMARK    3  A    between atoms: O_5  and  C_34
REMARK    4  A    between atoms: O_5  and  C_36
REMARK    5  A    between atoms: N_6  and  C_17
REMARK    6  A    between atoms: N_7  and  C_18
REMARK    7  A    between atoms: N_11  and  C_23
REMARK    8  A    between atoms: N_12  and  C_33
REMARK                            x       y       z     vdW  Elec       q    Type
REMARK                         _______ _______ _______ _____ _____    ______ ____
ROOT
ATOM      1  O   UNL     1     -12.323   8.109  32.058  0.00  0.00    -0.370 OA
ATOM      2  O   UNL     1     -13.266  11.058  32.609  0.00  0.00    -0.370 OA
ATOM     15  C   UNL     1     -13.953   9.830  32.308  0.00  0.00    +0.176 C 
ATOM     16  C   UNL     1     -13.095   9.067  31.318  0.00  0.00    +0.172 C 
ATOM     17  C   UNL     1     -13.997   8.949  33.541  0.00  0.00    +0.171 C 
ATOM     18  C   UNL     1     -12.189  10.119  30.719  0.00  0.00    +0.131 C 
ATOM     19  C   UNL     1     -12.697   8.158  33.443  0.00  0.00    +0.190 C 
ATOM     20  C   UNL     1     -12.041  11.108  31.863  0.00  0.00    +0.185 C 
ENDROOT
BRANCH  18   7
ATOM      4  O   UNL     1     -11.570   9.606  27.971  0.00  0.00    -0.252 OA
ATOM      7  N   UNL     1     -12.798  10.740  29.569  0.00  0.00    -0.292 N 
ATOM     11  N   UNL     1     -13.192  11.186  27.350  0.00  0.00    -0.269 N 
ATOM     22  C   UNL     1     -12.436  10.431  28.251  0.00  0.00    +0.304 C 
ATOM     43  H   UNL     1     -13.569  11.383  29.717  0.00  0.00    +0.151 HD
ATOM     44  H   UNL     1     -13.871  11.829  27.749  0.00  0.00    +0.156 HD
BRANCH  11  23
ATOM     23  C   UNL     1     -13.130  11.167  25.937  0.00  0.00    +0.035 A 
ATOM     25  C   UNL     1     -11.930  11.461  25.289  0.00  0.00    +0.027 A 
ATOM     26  C   UNL     1     -14.266  10.854  25.192  0.00  0.00    +0.027 A 
ATOM     31  C   UNL     1     -11.867  11.443  23.895  0.00  0.00    +0.048 A 
ATOM     32  C   UNL     1     -14.203  10.834  23.799  0.00  0.00    +0.048 A 
ATOM     34  C   UNL     1     -13.004  11.129  23.150  0.00  0.00    +0.129 A 
BRANCH  34   5
ATOM      5  O   UNL     1     -12.942  11.108  21.791  0.00  0.00    -0.456 OA
BRANCH   5  36
ATOM     36  C   UNL     1     -12.372   9.998  21.190  0.00  0.00    +0.128 A 
ATOM     38  C   UNL     1     -12.812   8.718  21.532  0.00  0.00    +0.046 A 
ATOM     39  C   UNL     1     -11.359  10.158  20.245  0.00  0.00    +0.046 A 
ATOM     40  C   UNL     1     -12.238   7.599  20.928  0.00  0.00    +0.004 A 
ATOM     41  C   UNL     1     -10.785   9.039  19.642  0.00  0.00    +0.004 A 
ATOM     42  C   UNL     1     -11.224   7.760  19.982  0.00  0.00    +0.000 A 
ENDBRANCH   5  36
ENDBRANCH  34   5
ENDBRANCH  11  23
ENDBRANCH  18   7
BRANCH  17   6
ATOM      6  N   UNL     1     -15.214   8.135  33.608  0.00  0.00    -0.187 N 
ATOM      8  N   UNL     1     -16.429   8.696  33.515  0.00  0.00    -0.041 NA
ATOM      9  N   UNL     1     -16.616   6.489  33.768  0.00  0.00    -0.071 NA
ATOM     10  N   UNL     1     -17.282   7.683  33.614  0.00  0.00    -0.020 NA
ATOM     21  C   UNL     1     -15.338   6.791  33.761  0.00  0.00    +0.342 A 
BRANCH  21   3
ATOM      3  O   UNL     1     -14.328   5.951  33.882  0.00  0.00    -0.423 OA
BRANCH   3  24
ATOM     24  C   UNL     1     -14.349   4.747  33.161  0.00  0.00    +0.132 A 
ATOM     27  C   UNL     1     -14.224   4.764  31.772  0.00  0.00    +0.048 A 
ATOM     28  C   UNL     1     -14.494   3.533  33.833  0.00  0.00    +0.048 A 
ATOM     29  C   UNL     1     -14.244   3.567  31.055  0.00  0.00    +0.031 A 
ATOM     30  C   UNL     1     -14.515   2.336  33.116  0.00  0.00    +0.031 A 
ATOM     33  C   UNL     1     -14.390   2.353  31.727  0.00  0.00    +0.067 A 
BRANCH  33  12
ATOM     12  N   UNL     1     -14.410   1.168  31.016  0.00  0.00    -0.220 N 
ATOM     13  N   UNL     1     -13.480   0.880  30.093  0.00  0.00    -0.154 NA
ATOM     14  N   UNL     1     -15.012  -0.806  30.295  0.00  0.00    -0.222 NA
ATOM     35  C   UNL     1     -15.318   0.160  31.130  0.00  0.00    +0.225 A 
ATOM     37  C   UNL     1     -13.890  -0.323  29.686  0.00  0.00    +0.245 A 
ENDBRANCH  33  12
ENDBRANCH   3  24
ENDBRANCH  21   3
ENDBRANCH  17   6
TORSDOF 8
ENDMDL
MODEL 7
REMARK VINA RESULT:      -8.1     25.530     29.903
REMARK  Name = 11886265
REMARK  8 active torsions:
REMARK  status: ('A' for Active; 'I' for Inactive)
REMARK    1  A    between atoms: O_3  and  C_21
REMARK    2  A    between atoms: O_3  and  C_24
REMARK    3  A    between atoms: O_5  and  C_34
REMARK    4  A    between atoms: O_5  and  C_36
REMARK    5  A    between atoms: N_6  and  C_17
REMARK    6  A    between atoms: N_7  and  C_18
REMARK    7  A    between atoms: N_11  and  C_23
REMARK    8  A    between atoms: N_12  and  C_33
REMARK                            x       y       z     vdW  Elec       q    Type
REMARK                         _______ _______ _______ _____ _____    ______ ____
ROOT
ATOM      1  O   UNL     1      13.213   8.277  18.721  0.00  0.00    -0.370 OA
ATOM      2  O   UNL     1      12.535   7.871  21.765  0.00  0.00    -0.370 OA
ATOM     15  C   UNL     1      13.147   8.934  21.011  0.00  0.00    +0.176 C 
ATOM     16  C   UNL     1      13.990   8.288  19.929  0.00  0.00    +0.172 C 
ATOM     17  C   UNL     1      12.083   9.711  20.260  0.00  0.00    +0.171 C 
ATOM     18  C   UNL     1      14.213   6.876  20.420  0.00  0.00    +0.131 C 
ATOM     19  C   UNL     1      11.965   8.948  18.946  0.00  0.00    +0.190 C 
ATOM     20  C   UNL     1      12.952   6.609  21.223  0.00  0.00    +0.185 C 
ENDROOT
BRANCH  18   7
ATOM      4  O   UNL     1      16.903   6.430  19.544  0.00  0.00    -0.252 OA
ATOM      7  N   UNL     1      15.388   6.792  21.253  0.00  0.00    -0.292 N 
ATOM     11  N   UNL     1      17.610   6.539  21.780  0.00  0.00    -0.269 N 
ATOM     22  C   UNL     1      16.674   6.571  20.742  0.00  0.00    +0.304 C 
ATOM     43  H   UNL     1      15.290   6.966  22.248  0.00  0.00    +0.151 HD
ATOM     44  H   UNL     1      17.252   6.673  22.722  0.00  0.00    +0.156 HD
BRANCH  11  23
ATOM     23  C   UNL     1      19.007   6.340  21.682  0.00  0.00    +0.035 A 
ATOM     25  C   UNL     1      19.546   5.731  20.548  0.00  0.00    +0.027 A 
ATOM     26  C   UNL     1      19.845   6.755  22.716  0.00  0.00    +0.027 A 
ATOM     31  C   UNL     1      20.924   5.535  20.450  0.00  0.00    +0.048 A 
ATOM     32  C   UNL     1      21.223   6.560  22.618  0.00  0.00    +0.048 A 
ATOM     34  C   UNL     1      21.762   5.950  21.486  0.00  0.00    +0.129 A 
BRANCH  34   5
ATOM      5  O   UNL     1      23.107   5.762  21.388  0.00  0.00    -0.456 OA
BRANCH   5  36
ATOM     36  C   UNL     1      23.563   4.469  21.199  0.00  0.00    +0.128 A 
ATOM     38  C   UNL     1      24.349   4.162  20.087  0.00  0.00    +0.046 A 
ATOM     39  C   UNL     1      23.238   3.472  22.119  0.00  0.00    +0.046 A 
ATOM     40  C   UNL     1      24.808   2.859  19.896  0.00  0.00    +0.004 A 
ATOM     41  C   UNL     1      23.697   2.169  21.927  0.00  0.00    +0.004 A 
ATOM     42  C   UNL     1      24.483   1.862  20.816  0.00  0.00    +0.000 A 
ENDBRANCH   5  36
ENDBRANCH  34   5
ENDBRANCH  11  23
ENDBRANCH  18   7
BRANCH  17   6
ATOM      6  N   UNL     1      12.416  11.132  20.125  0.00  0.00    -0.187 N 
ATOM      8  N   UNL     1      13.154  11.577  19.098  0.00  0.00    -0.041 NA
ATOM      9  N   UNL     1      12.590  13.271  20.432  0.00  0.00    -0.071 NA
ATOM     10  N   UNL     1      13.256  12.886  19.292  0.00  0.00    -0.020 NA
ATOM     21  C   UNL     1      12.077  12.171  20.932  0.00  0.00    +0.342 A 
BRANCH  21   3
ATOM      3  O   UNL     1      11.353  12.065  22.031  0.00  0.00    -0.423 OA
BRANCH   3  24
ATOM     24  C   UNL     1      11.946  12.350  23.271  0.00  0.00    +0.132 A 
ATOM     27  C   UNL     1      13.038  11.602  23.710  0.00  0.00    +0.048 A 
ATOM     28  C   UNL     1      11.444  13.382  24.064  0.00  0.00    +0.048 A 
ATOM     29  C   UNL     1      13.627  11.885  24.942  0.00  0.00    +0.031 A 
ATOM     30  C   UNL     1      12.033  13.665  25.296  0.00  0.00    +0.031 A 
ATOM     33  C   UNL     1      13.125  12.917  25.735  0.00  0.00    +0.067 A 
BRANCH  33  12
ATOM     12  N   UNL     1      13.710  13.197  26.956  0.00  0.00    -0.220 N 
ATOM     13  N   UNL     1      14.449  12.289  27.612  0.00  0.00    -0.154 NA
ATOM     14  N   UNL     1      14.320  14.260  28.766  0.00  0.00    -0.222 NA
ATOM     35  C   UNL     1      13.638  14.366  27.649  0.00  0.00    +0.225 A 
ATOM     37  C   UNL     1      14.794  12.981  28.700  0.00  0.00    +0.245 A 
ENDBRANCH  33  12
ENDBRANCH   3  24
ENDBRANCH  21   3
ENDBRANCH  17   6
TORSDOF 8
ENDMDL
MODEL 8
REMARK VINA RESULT:      -7.9     29.915     35.516
REMARK  Name = 11886265
REMARK  8 active torsions:
REMARK  status: ('A' for Active; 'I' for Inactive)
REMARK    1  A    between atoms: O_3  and  C_21
REMARK    2  A    between atoms: O_3  and  C_24
REMARK    3  A    between atoms: O_5  and  C_34
REMARK    4  A    between atoms: O_5  and  C_36
REMARK    5  A    between atoms: N_6  and  C_17
REMARK    6  A    between atoms: N_7  and  C_18
REMARK    7  A    between atoms: N_11  and  C_23
REMARK    8  A    between atoms: N_12  and  C_33
REMARK                            x       y       z     vdW  Elec       q    Type
REMARK                         _______ _______ _______ _____ _____    ______ ____
ROOT
ATOM      1  O   UNL     1      -6.141 -12.110   7.405  0.00  0.00    -0.370 OA
ATOM      2  O   UNL     1      -4.100 -13.635   9.248  0.00  0.00    -0.370 OA
ATOM     15  C   UNL     1      -4.247 -12.261   8.845  0.00  0.00    +0.176 C 
ATOM     16  C   UNL     1      -4.713 -12.265   7.402  0.00  0.00    +0.172 C 
ATOM     17  C   UNL     1      -5.384 -11.618   9.616  0.00  0.00    +0.171 C 
ATOM     18  C   UNL     1      -4.337 -13.637   6.891  0.00  0.00    +0.131 C 
ATOM     19  C   UNL     1      -6.602 -11.925   8.751  0.00  0.00    +0.190 C 
ATOM     20  C   UNL     1      -4.436 -14.488   8.145  0.00  0.00    +0.185 C 
ENDROOT
BRANCH  18   7
ATOM      4  O   UNL     1      -3.460 -14.918   4.485  0.00  0.00    -0.252 OA
ATOM      7  N   UNL     1      -2.996 -13.647   6.359  0.00  0.00    -0.292 N 
ATOM     11  N   UNL     1      -1.286 -14.138   4.906  0.00  0.00    -0.269 N 
ATOM     22  C   UNL     1      -2.649 -14.301   5.170  0.00  0.00    +0.304 C 
ATOM     43  H   UNL     1      -2.283 -13.102   6.834  0.00  0.00    +0.151 HD
ATOM     44  H   UNL     1      -0.752 -13.595   5.579  0.00  0.00    +0.156 HD
BRANCH  11  23
ATOM     23  C   UNL     1      -0.549 -14.642   3.809  0.00  0.00    +0.035 A 
ATOM     25  C   UNL     1      -0.806 -14.169   2.521  0.00  0.00    +0.027 A 
ATOM     26  C   UNL     1       0.434 -15.609   4.013  0.00  0.00    +0.027 A 
ATOM     31  C   UNL     1      -0.079 -14.664   1.439  0.00  0.00    +0.048 A 
ATOM     32  C   UNL     1       1.161 -16.104   2.931  0.00  0.00    +0.048 A 
ATOM     34  C   UNL     1       0.904 -15.633   1.643  0.00  0.00    +0.129 A 
BRANCH  34   5
ATOM      5  O   UNL     1       1.615 -16.114   0.587  0.00  0.00    -0.456 OA
BRANCH   5  36
ATOM     36  C   UNL     1       2.806 -15.481   0.271  0.00  0.00    +0.128 A 
ATOM     38  C   UNL     1       4.022 -16.095   0.572  0.00  0.00    +0.046 A 
ATOM     39  C   UNL     1       2.790 -14.231  -0.347  0.00  0.00    +0.046 A 
ATOM     40  C   UNL     1       5.222 -15.457   0.255  0.00  0.00    +0.004 A 
ATOM     41  C   UNL     1       3.989 -13.594  -0.664  0.00  0.00    +0.004 A 
ATOM     42  C   UNL     1       5.206 -14.207  -0.364  0.00  0.00    +0.000 A 
ENDBRANCH   5  36
ENDBRANCH  34   5
ENDBRANCH  11  23
ENDBRANCH  18   7
BRANCH  17   6
ATOM      6  N   UNL     1      -5.151 -10.194   9.876  0.00  0.00    -0.187 N 
ATOM      8  N   UNL     1      -5.836  -9.248   9.219  0.00  0.00    -0.041 NA
ATOM      9  N   UNL     1      -4.407  -8.311  10.651  0.00  0.00    -0.071 NA
ATOM     10  N   UNL     1      -5.376  -8.097   9.697  0.00  0.00    -0.020 NA
ATOM     21  C   UNL     1      -4.283  -9.614  10.747  0.00  0.00    +0.342 A 
BRANCH  21   3
ATOM      3  O   UNL     1      -3.463 -10.274  11.543  0.00  0.00    -0.423 OA
BRANCH   3  24
ATOM     24  C   UNL     1      -3.797 -10.422  12.899  0.00  0.00    +0.132 A 
ATOM     27  C   UNL     1      -2.791 -10.568  13.853  0.00  0.00    +0.048 A 
ATOM     28  C   UNL     1      -5.136 -10.421  13.291  0.00  0.00    +0.048 A 
ATOM     29  C   UNL     1      -3.123 -10.715  15.200  0.00  0.00    +0.031 A 
ATOM     30  C   UNL     1      -5.468 -10.568  14.638  0.00  0.00    +0.031 A 
ATOM     33  C   UNL     1      -4.462 -10.715  15.592  0.00  0.00    +0.067 A 
BRANCH  33  12
ATOM     12  N   UNL     1      -4.791 -10.860  16.927  0.00  0.00    -0.220 N 
ATOM     13  N   UNL     1      -5.898 -10.308  17.447  0.00  0.00    -0.154 NA
ATOM     14  N   UNL     1      -4.713 -11.464  19.027  0.00  0.00    -0.222 NA
ATOM     35  C   UNL     1      -4.092 -11.546  17.873  0.00  0.00    +0.225 A 
ATOM     37  C   UNL     1      -5.804 -10.702  18.719  0.00  0.00    +0.245 A 
ENDBRANCH  33  12
ENDBRANCH   3  24
ENDBRANCH  21   3
ENDBRANCH  17   6
TORSDOF 8
ENDMDL
MODEL 9
REMARK VINA RESULT:      -7.9      6.817     11.817
REMARK  Name = 11886265
REMARK  8 active torsions:
REMARK  status: ('A' for Active; 'I' for Inactive)
REMARK    1  A    between atoms: O_3  and  C_21
REMARK    2  A    between atoms: O_3  and  C_24
REMARK    3  A    between atoms: O_5  and  C_34
REMARK    4  A    between atoms: O_5  and  C_36
REMARK    5  A    between atoms: N_6  and  C_17
REMARK    6  A    between atoms: N_7  and  C_18
REMARK    7  A    between atoms: N_11  and  C_23
REMARK    8  A    between atoms: N_12  and  C_33
REMARK                            x       y       z     vdW  Elec       q    Type
REMARK                         _______ _______ _______ _____ _____    ______ ____
ROOT
ATOM      1  O   UNL     1     -11.487   9.360  31.517  0.00  0.00    -0.370 OA
ATOM      2  O   UNL     1     -11.619  12.502  31.489  0.00  0.00    -0.370 OA
ATOM     15  C   UNL     1     -12.612  11.461  31.538  0.00  0.00    +0.176 C 
ATOM     16  C   UNL     1     -12.116  10.327  30.662  0.00  0.00    +0.172 C 
ATOM     17  C   UNL     1     -12.672  10.872  32.934  0.00  0.00    +0.171 C 
ATOM     18  C   UNL     1     -11.091  10.973  29.758  0.00  0.00    +0.131 C 
ATOM     19  C   UNL     1     -11.624   9.767  32.886  0.00  0.00    +0.190 C 
ATOM     20  C   UNL     1     -10.545  12.087  30.633  0.00  0.00    +0.185 C 
ENDROOT
BRANCH  18   7
ATOM      4  O   UNL     1     -11.454   9.600  27.271  0.00  0.00    -0.252 OA
ATOM      7  N   UNL     1     -11.705  11.500  28.564  0.00  0.00    -0.292 N 
ATOM     11  N   UNL     1     -12.475  11.527  26.400  0.00  0.00    -0.269 N 
ATOM     22  C   UNL     1     -11.845  10.759  27.384  0.00  0.00    +0.304 C 
ATOM     43  H   UNL     1     -12.113  12.429  28.600  0.00  0.00    +0.151 HD
ATOM     44  H   UNL     1     -12.735  12.475  26.658  0.00  0.00    +0.156 HD
BRANCH  11  23
ATOM     23  C   UNL     1     -12.798  11.144  25.077  0.00  0.00    +0.035 A 
ATOM     25  C   UNL     1     -13.987  10.462  24.819  0.00  0.00    +0.027 A 
ATOM     26  C   UNL     1     -11.929  11.451  24.030  0.00  0.00    +0.027 A 
ATOM     31  C   UNL     1     -14.306  10.085  23.514  0.00  0.00    +0.048 A 
ATOM     32  C   UNL     1     -12.248  11.075  22.726  0.00  0.00    +0.048 A 
ATOM     34  C   UNL     1     -13.436  10.392  22.468  0.00  0.00    +0.129 A 
BRANCH  34   5
ATOM      5  O   UNL     1     -13.750  10.027  21.194  0.00  0.00    -0.456 OA
BRANCH   5  36
ATOM     36  C   UNL     1     -12.945   9.083  20.579  0.00  0.00    +0.128 A 
ATOM     38  C   UNL     1     -12.794   7.818  21.149  0.00  0.00    +0.046 A 
ATOM     39  C   UNL     1     -12.285   9.395  19.391  0.00  0.00    +0.046 A 
ATOM     40  C   UNL     1     -11.983   6.867  20.530  0.00  0.00    +0.004 A 
ATOM     41  C   UNL     1     -11.474   8.444  18.772  0.00  0.00    +0.004 A 
ATOM     42  C   UNL     1     -11.323   7.180  19.341  0.00  0.00    +0.000 A 
ENDBRANCH   5  36
ENDBRANCH  34   5
ENDBRANCH  11  23
ENDBRANCH  18   7
BRANCH  17   6
ATOM      6  N   UNL     1     -14.022  10.433  33.301  0.00  0.00    -0.187 N 
ATOM      8  N   UNL     1     -15.101  11.156  32.969  0.00  0.00    -0.041 NA
ATOM      9  N   UNL     1     -15.713   9.325  34.085  0.00  0.00    -0.071 NA
ATOM     10  N   UNL     1     -16.132  10.472  33.451  0.00  0.00    -0.020 NA
ATOM     21  C   UNL     1     -14.404   9.320  33.980  0.00  0.00    +0.342 A 
BRANCH  21   3
ATOM      3  O   UNL     1     -13.579   8.402  34.447  0.00  0.00    -0.423 OA
BRANCH   3  24
ATOM     24  C   UNL     1     -13.761   7.062  34.071  0.00  0.00    +0.132 A 
ATOM     27  C   UNL     1     -13.697   6.701  32.725  0.00  0.00    +0.048 A 
ATOM     28  C   UNL     1     -14.006   6.092  35.042  0.00  0.00    +0.048 A 
ATOM     29  C   UNL     1     -13.878   5.369  32.351  0.00  0.00    +0.031 A 
ATOM     30  C   UNL     1     -14.188   4.760  34.668  0.00  0.00    +0.031 A 
ATOM     33  C   UNL     1     -14.123   4.399  33.323  0.00  0.00    +0.067 A 
BRANCH  33  12
ATOM     12  N   UNL     1     -14.303   3.079  32.952  0.00  0.00    -0.220 N 
ATOM     13  N   UNL     1     -14.704   2.146  33.829  0.00  0.00    -0.154 NA
ATOM     14  N   UNL     1     -14.388   1.259  31.745  0.00  0.00    -0.222 NA
ATOM     35  C   UNL     1     -14.117   2.543  31.715  0.00  0.00    +0.225 A 
ATOM     37  C   UNL     1     -14.739   1.063  33.049  0.00  0.00    +0.245 A 
ENDBRANCH  33  12
ENDBRANCH   3  24
ENDBRANCH  21   3
ENDBRANCH  17   6
TORSDOF 8
ENDMDL
MODEL 10
REMARK VINA RESULT:      -7.9     37.307     39.711
REMARK  Name = 11886265
REMARK  8 active torsions:
REMARK  status: ('A' for Active; 'I' for Inactive)
REMARK    1  A    between atoms: O_3  and  C_21
REMARK    2  A    between atoms: O_3  and  C_24
REMARK    3  A    between atoms: O_5  and  C_34
REMARK    4  A    between atoms: O_5  and  C_36
REMARK    5  A    between atoms: N_6  and  C_17
REMARK    6  A    between atoms: N_7  and  C_18
REMARK    7  A    between atoms: N_11  and  C_23
REMARK    8  A    between atoms: N_12  and  C_33
REMARK                            x       y       z     vdW  Elec       q    Type
REMARK                         _______ _______ _______ _____ _____    ______ ____
ROOT
ATOM      1  O   UNL     1       8.795   7.568   6.851  0.00  0.00    -0.370 OA
ATOM      2  O   UNL     1      10.929   5.709   8.222  0.00  0.00    -0.370 OA
ATOM     15  C   UNL     1      11.012   6.832   7.326  0.00  0.00    +0.176 C 
ATOM     16  C   UNL     1       9.848   6.723   6.361  0.00  0.00    +0.172 C 
ATOM     17  C   UNL     1      10.762   8.119   8.089  0.00  0.00    +0.171 C 
ATOM     18  C   UNL     1       9.432   5.271   6.439  0.00  0.00    +0.131 C 
ATOM     19  C   UNL     1       9.247   8.270   8.018  0.00  0.00    +0.190 C 
ATOM     20  C   UNL     1       9.793   4.907   7.869  0.00  0.00    +0.185 C 
ENDROOT
BRANCH  18   7
ATOM      4  O   UNL     1       9.797   5.810   3.650  0.00  0.00    -0.252 OA
ATOM      7  N   UNL     1      10.168   4.466   5.494  0.00  0.00    -0.292 N 
ATOM     11  N   UNL     1      11.062   3.840   3.473  0.00  0.00    -0.269 N 
ATOM     22  C   UNL     1      10.299   4.802   4.141  0.00  0.00    +0.304 C 
ATOM     43  H   UNL     1      10.667   3.652   5.838  0.00  0.00    +0.151 HD
ATOM     44  H   UNL     1      11.404   3.061   4.030  0.00  0.00    +0.156 HD
BRANCH  11  23
ATOM     23  C   UNL     1      11.421   3.814   2.105  0.00  0.00    +0.035 A 
ATOM     25  C   UNL     1      12.634   3.246   1.714  0.00  0.00    +0.027 A 
ATOM     26  C   UNL     1      10.563   4.355   1.148  0.00  0.00    +0.027 A 
ATOM     31  C   UNL     1      12.988   3.220   0.364  0.00  0.00    +0.048 A 
ATOM     32  C   UNL     1      10.917   4.328  -0.200  0.00  0.00    +0.048 A 
ATOM     34  C   UNL     1      12.129   3.762  -0.593  0.00  0.00    +0.129 A 
BRANCH  34   5
ATOM      5  O   UNL     1      12.474   3.733  -1.909  0.00  0.00    -0.456 OA
BRANCH   5  36
ATOM     36  C   UNL     1      11.476   3.465  -2.830  0.00  0.00    +0.128 A 
ATOM     38  C   UNL     1      11.151   4.413  -3.801  0.00  0.00    +0.046 A 
ATOM     39  C   UNL     1      10.795   2.249  -2.787  0.00  0.00    +0.046 A 
ATOM     40  C   UNL     1      10.144   4.143  -4.728  0.00  0.00    +0.004 A 
ATOM     41  C   UNL     1       9.788   1.980  -3.714  0.00  0.00    +0.004 A 
ATOM     42  C   UNL     1       9.463   2.926  -4.686  0.00  0.00    +0.000 A 
ENDBRANCH   5  36
ENDBRANCH  34   5
ENDBRANCH  11  23
ENDBRANCH  18   7
BRANCH  17   6
ATOM      6  N   UNL     1      11.524   9.249   7.549  0.00  0.00    -0.187 N 
ATOM      8  N   UNL     1      11.053  10.502   7.624  0.00  0.00    -0.041 NA
ATOM      9  N   UNL     1      13.038  10.484   6.610  0.00  0.00    -0.071 NA
ATOM     10  N   UNL     1      11.984  11.253   7.048  0.00  0.00    -0.020 NA
ATOM     21  C   UNL     1      12.734   9.248   6.931  0.00  0.00    +0.342 A 
BRANCH  21   3
ATOM      3  O   UNL     1      13.461   8.171   6.701  0.00  0.00    -0.423 OA
BRANCH   3  24
ATOM     24  C   UNL     1      13.738   7.802   5.374  0.00  0.00    +0.132 A 
ATOM     27  C   UNL     1      15.043   7.485   4.997  0.00  0.00    +0.048 A 
ATOM     28  C   UNL     1      12.709   7.754   4.434  0.00  0.00    +0.048 A 
ATOM     29  C   UNL     1      15.318   7.119   3.679  0.00  0.00    +0.031 A 
ATOM     30  C   UNL     1      12.984   7.388   3.116  0.00  0.00    +0.031 A 
ATOM     33  C   UNL     1      14.289   7.070   2.739  0.00  0.00    +0.067 A 
BRANCH  33  12
ATOM     12  N   UNL     1      14.562   6.708   1.433  0.00  0.00    -0.220 N 
ATOM     13  N   UNL     1      15.683   6.048   1.102  0.00  0.00    -0.154 NA
ATOM     14  N   UNL     1      14.372   6.449  -0.729  0.00  0.00    -0.222 NA
ATOM     35  C   UNL     1      13.788   6.942   0.339  0.00  0.00    +0.225 A 
ATOM     37  C   UNL     1      15.520   5.917  -0.216  0.00  0.00    +0.245 A 
ENDBRANCH  33  12
ENDBRANCH   3  24
ENDBRANCH  21   3
ENDBRANCH  17   6
TORSDOF 8
ENDMDL
