MODEL 1
REMARK VINA RESULT:      -6.1      0.000      0.000
REMARK  Name = 11943564
REMARK  7 active torsions:
REMARK  status: ('A' for Active; 'I' for Inactive)
REMARK    1  A    between atoms: O_1  and  C_20
REMARK    2  A    between atoms: O_1  and  C_21
REMARK    3  A    between atoms: N_3  and  C_11
REMARK    4  A    between atoms: N_3  and  C_14
REMARK    5  A    between atoms: C_5  and  C_11
REMARK    6  A    between atoms: C_6  and  C_12
REMARK    7  A    between atoms: C_14  and  C_15
REMARK                            x       y       z     vdW  Elec       q    Type
REMARK                         _______ _______ _______ _____ _____    ______ ____
ROOT
ATOM      3  N   UNL     1      15.557   8.541  21.032  0.00  0.00    -0.311 NA
ATOM     22  H   UNL     1      15.071   9.420  20.855  0.00  0.00    +0.122 HD
ENDROOT
BRANCH   3  11
ATOM     11  C   UNL     1      14.791   7.746  21.978  0.00  0.00    +0.100 C 
BRANCH  11   5
ATOM      2  N   UNL     1      12.547   6.863  21.289  0.00  0.00    -0.298 NA
ATOM      4  C   UNL     1      11.864   9.030  20.023  0.00  0.00    -0.000 C 
ATOM      5  C   UNL     1      13.294   8.029  21.836  0.00  0.00    +0.071 C 
ATOM      6  C   UNL     1      12.293   7.926  19.027  0.00  0.00    +0.028 C 
ATOM      7  C   UNL     1      13.026   9.300  21.000  0.00  0.00    +0.024 C 
ATOM      8  C   UNL     1      10.689   8.469  20.844  0.00  0.00    +0.019 C 
ATOM      9  C   UNL     1      12.815   6.715  19.837  0.00  0.00    +0.092 C 
ATOM     10  C   UNL     1      11.099   7.124  21.467  0.00  0.00    +0.085 C 
BRANCH   6  12
ATOM     12  C   UNL     1      13.299   8.403  18.025  0.00  0.00    -0.030 C 
ATOM     13  C   UNL     1      14.259   7.631  17.502  0.00  0.00    +0.004 C 
ENDBRANCH   6  12
ENDBRANCH  11   5
ENDBRANCH   3  11
BRANCH   3  14
ATOM     14  C   UNL     1      16.897   8.813  21.539  0.00  0.00    +0.116 C 
BRANCH  14  15
ATOM     15  C   UNL     1      17.866   7.719  21.177  0.00  0.00    -0.033 A 
ATOM     16  C   UNL     1      19.077   7.629  21.850  0.00  0.00    +0.008 A 
ATOM     17  C   UNL     1      17.533   6.817  20.177  0.00  0.00    +0.008 A 
ATOM     18  C   UNL     1      19.974   6.615  21.513  0.00  0.00    +0.046 A 
ATOM     19  C   UNL     1      18.431   5.803  19.841  0.00  0.00    +0.046 A 
ATOM     20  C   UNL     1      19.651   5.702  20.510  0.00  0.00    +0.120 A 
BRANCH  20   1
ATOM      1  O   UNL     1      20.528   4.713  20.183  0.00  0.00    -0.495 OA
ATOM     21  C   UNL     1      21.406   4.261  21.212  0.00  0.00    +0.277 C 
ENDBRANCH  20   1
ENDBRANCH  14  15
ENDBRANCH   3  14
TORSDOF 6
ENDMDL
MODEL 2
REMARK VINA RESULT:      -6.1      1.643      2.660
REMARK  Name = 11943564
REMARK  7 active torsions:
REMARK  status: ('A' for Active; 'I' for Inactive)
REMARK    1  A    between atoms: O_1  and  C_20
REMARK    2  A    between atoms: O_1  and  C_21
REMARK    3  A    between atoms: N_3  and  C_11
REMARK    4  A    between atoms: N_3  and  C_14
REMARK    5  A    between atoms: C_5  and  C_11
REMARK    6  A    between atoms: C_6  and  C_12
REMARK    7  A    between atoms: C_14  and  C_15
REMARK                            x       y       z     vdW  Elec       q    Type
REMARK                         _______ _______ _______ _____ _____    ______ ____
ROOT
ATOM      3  N   UNL     1      15.013   6.167  20.412  0.00  0.00    -0.311 NA
ATOM     22  H   UNL     1      14.739   5.192  20.527  0.00  0.00    +0.122 HD
ENDROOT
BRANCH   3  11
ATOM     11  C   UNL     1      13.890   6.928  19.890  0.00  0.00    +0.100 C 
BRANCH  11   5
ATOM      2  N   UNL     1      11.489   7.396  20.446  0.00  0.00    -0.298 NA
ATOM      4  C   UNL     1      12.047   9.275  22.157  0.00  0.00    -0.000 C 
ATOM      5  C   UNL     1      12.861   7.198  20.990  0.00  0.00    +0.071 C 
ATOM      6  C   UNL     1      11.563   9.879  20.817  0.00  0.00    +0.028 C 
ATOM      7  C   UNL     1      13.277   8.384  21.888  0.00  0.00    +0.024 C 
ATOM      8  C   UNL     1      10.920   8.363  22.676  0.00  0.00    +0.019 C 
ATOM      9  C   UNL     1      11.378   8.727  19.800  0.00  0.00    +0.092 C 
ATOM     10  C   UNL     1      10.537   7.353  21.581  0.00  0.00    +0.085 C 
BRANCH   6  12
ATOM     12  C   UNL     1      12.478  10.944  20.293  0.00  0.00    -0.030 C 
ATOM     13  C   UNL     1      12.782  12.063  20.958  0.00  0.00    +0.004 C 
ENDBRANCH   6  12
ENDBRANCH  11   5
ENDBRANCH   3  11
BRANCH   3  14
ATOM     14  C   UNL     1      16.164   6.253  19.520  0.00  0.00    +0.116 C 
BRANCH  14  15
ATOM     15  C   UNL     1      17.403   6.704  20.245  0.00  0.00    -0.033 A 
ATOM     16  C   UNL     1      17.360   7.856  21.021  0.00  0.00    +0.008 A 
ATOM     17  C   UNL     1      18.569   5.962  20.129  0.00  0.00    +0.008 A 
ATOM     18  C   UNL     1      18.510   8.273  21.692  0.00  0.00    +0.046 A 
ATOM     19  C   UNL     1      19.719   6.381  20.802  0.00  0.00    +0.046 A 
ATOM     20  C   UNL     1      19.688   7.535  21.583  0.00  0.00    +0.120 A 
BRANCH  20   1
ATOM      1  O   UNL     1      20.808   7.944  22.240  0.00  0.00    -0.495 OA
ATOM     21  C   UNL     1      20.921   7.583  23.615  0.00  0.00    +0.277 C 
ENDBRANCH  20   1
ENDBRANCH  14  15
ENDBRANCH   3  14
TORSDOF 6
ENDMDL
MODEL 3
REMARK VINA RESULT:      -6.0      1.213      2.502
REMARK  Name = 11943564
REMARK  7 active torsions:
REMARK  status: ('A' for Active; 'I' for Inactive)
REMARK    1  A    between atoms: O_1  and  C_20
REMARK    2  A    between atoms: O_1  and  C_21
REMARK    3  A    between atoms: N_3  and  C_11
REMARK    4  A    between atoms: N_3  and  C_14
REMARK    5  A    between atoms: C_5  and  C_11
REMARK    6  A    between atoms: C_6  and  C_12
REMARK    7  A    between atoms: C_14  and  C_15
REMARK                            x       y       z     vdW  Elec       q    Type
REMARK                         _______ _______ _______ _____ _____    ______ ____
ROOT
ATOM      3  N   UNL     1      16.258   8.106  22.029  0.00  0.00    -0.311 NA
ATOM     22  H   UNL     1      16.215   7.098  22.176  0.00  0.00    +0.122 HD
ENDROOT
BRANCH   3  11
ATOM     11  C   UNL     1      14.956   8.590  21.601  0.00  0.00    +0.100 C 
BRANCH  11   5
ATOM      2  N   UNL     1      14.217   9.350  19.328  0.00  0.00    -0.298 NA
ATOM      4  C   UNL     1      12.680   7.291  18.923  0.00  0.00    -0.000 C 
ATOM      5  C   UNL     1      14.684   8.198  20.147  0.00  0.00    +0.071 C 
ATOM      6  C   UNL     1      11.841   8.534  19.304  0.00  0.00    +0.028 C 
ATOM      7  C   UNL     1      13.699   7.012  20.047  0.00  0.00    +0.024 C 
ATOM      8  C   UNL     1      13.476   7.651  17.655  0.00  0.00    +0.019 C 
ATOM      9  C   UNL     1      12.810   9.685  19.664  0.00  0.00    +0.092 C 
ATOM     10  C   UNL     1      14.267   8.947  17.902  0.00  0.00    +0.085 C 
BRANCH   6  12
ATOM     12  C   UNL     1      10.863   8.263  20.407  0.00  0.00    -0.030 C 
ATOM     13  C   UNL     1      10.887   8.874  21.596  0.00  0.00    +0.004 C 
ENDBRANCH   6  12
ENDBRANCH  11   5
ENDBRANCH   3  11
BRANCH   3  14
ATOM     14  C   UNL     1      17.283   8.414  21.037  0.00  0.00    +0.116 C 
BRANCH  14  15
ATOM     15  C   UNL     1      18.283   7.297  20.899  0.00  0.00    -0.033 A 
ATOM     16  C   UNL     1      19.407   7.282  21.713  0.00  0.00    +0.008 A 
ATOM     17  C   UNL     1      18.064   6.299  19.961  0.00  0.00    +0.008 A 
ATOM     18  C   UNL     1      20.333   6.247  21.584  0.00  0.00    +0.046 A 
ATOM     19  C   UNL     1      18.991   5.263  19.833  0.00  0.00    +0.046 A 
ATOM     20  C   UNL     1      20.125   5.237  20.645  0.00  0.00    +0.120 A 
BRANCH  20   1
ATOM      1  O   UNL     1      21.029   4.228  20.521  0.00  0.00    -0.495 OA
ATOM     21  C   UNL     1      21.763   3.867  21.691  0.00  0.00    +0.277 C 
ENDBRANCH  20   1
ENDBRANCH  14  15
ENDBRANCH   3  14
TORSDOF 6
ENDMDL
MODEL 4
REMARK VINA RESULT:      -5.9      4.375      6.168
REMARK  Name = 11943564
REMARK  7 active torsions:
REMARK  status: ('A' for Active; 'I' for Inactive)
REMARK    1  A    between atoms: O_1  and  C_20
REMARK    2  A    between atoms: O_1  and  C_21
REMARK    3  A    between atoms: N_3  and  C_11
REMARK    4  A    between atoms: N_3  and  C_14
REMARK    5  A    between atoms: C_5  and  C_11
REMARK    6  A    between atoms: C_6  and  C_12
REMARK    7  A    between atoms: C_14  and  C_15
REMARK                            x       y       z     vdW  Elec       q    Type
REMARK                         _______ _______ _______ _____ _____    ______ ____
ROOT
ATOM      3  N   UNL     1      11.332   8.892  23.036  0.00  0.00    -0.311 NA
ATOM     22  H   UNL     1      11.245   8.530  23.985  0.00  0.00    +0.122 HD
ENDROOT
BRANCH   3  11
ATOM     11  C   UNL     1      10.800  10.244  22.982  0.00  0.00    +0.100 C 
BRANCH  11   5
ATOM      2  N   UNL     1      11.657  12.565  22.571  0.00  0.00    -0.298 NA
ATOM      4  C   UNL     1      14.116  11.802  22.196  0.00  0.00    -0.000 C 
ATOM      5  C   UNL     1      11.900  11.270  23.264  0.00  0.00    +0.071 C 
ATOM      6  C   UNL     1      13.428  12.118  20.846  0.00  0.00    +0.028 C 
ATOM      7  C   UNL     1      13.302  10.716  22.929  0.00  0.00    +0.024 C 
ATOM      8  C   UNL     1      14.052  13.083  23.049  0.00  0.00    +0.019 C 
ATOM      9  C   UNL     1      11.938  12.433  21.120  0.00  0.00    +0.092 C 
ATOM     10  C   UNL     1      12.595  13.567  23.133  0.00  0.00    +0.085 C 
BRANCH   6  12
ATOM     12  C   UNL     1      13.591  11.022  19.838  0.00  0.00    -0.030 C 
ATOM     13  C   UNL     1      14.773  10.533  19.447  0.00  0.00    +0.004 C 
ENDBRANCH   6  12
ENDBRANCH  11   5
ENDBRANCH   3  11
BRANCH   3  14
ATOM     14  C   UNL     1      10.626   8.015  22.109  0.00  0.00    +0.116 C 
BRANCH  14  15
ATOM     15  C   UNL     1      11.367   7.863  20.807  0.00  0.00    -0.033 A 
ATOM     16  C   UNL     1      10.916   8.540  19.682  0.00  0.00    +0.008 A 
ATOM     17  C   UNL     1      12.489   7.050  20.752  0.00  0.00    +0.008 A 
ATOM     18  C   UNL     1      11.602   8.399  18.476  0.00  0.00    +0.046 A 
ATOM     19  C   UNL     1      13.175   6.909  19.545  0.00  0.00    +0.046 A 
ATOM     20  C   UNL     1      12.732   7.584  18.407  0.00  0.00    +0.120 A 
BRANCH  20   1
ATOM      1  O   UNL     1      13.401   7.448  17.230  0.00  0.00    -0.495 OA
ATOM     21  C   UNL     1      13.622   8.634  16.469  0.00  0.00    +0.277 C 
ENDBRANCH  20   1
ENDBRANCH  14  15
ENDBRANCH   3  14
TORSDOF 6
ENDMDL
MODEL 5
REMARK VINA RESULT:      -5.8     15.678     18.749
REMARK  Name = 11943564
REMARK  7 active torsions:
REMARK  status: ('A' for Active; 'I' for Inactive)
REMARK    1  A    between atoms: O_1  and  C_20
REMARK    2  A    between atoms: O_1  and  C_21
REMARK    3  A    between atoms: N_3  and  C_11
REMARK    4  A    between atoms: N_3  and  C_14
REMARK    5  A    between atoms: C_5  and  C_11
REMARK    6  A    between atoms: C_6  and  C_12
REMARK    7  A    between atoms: C_14  and  C_15
REMARK                            x       y       z     vdW  Elec       q    Type
REMARK                         _______ _______ _______ _____ _____    ______ ____
ROOT
ATOM      3  N   UNL     1      10.687   6.856   3.192  0.00  0.00    -0.311 NA
ATOM     22  H   UNL     1      10.753   7.789   2.784  0.00  0.00    +0.122 HD
ENDROOT
BRANCH   3  11
ATOM     11  C   UNL     1      10.804   5.859   2.141  0.00  0.00    +0.100 C 
BRANCH  11   5
ATOM      2  N   UNL     1      13.199   5.791   1.400  0.00  0.00    -0.298 NA
ATOM      4  C   UNL     1      13.197   3.227   0.965  0.00  0.00    -0.000 C 
ATOM      5  C   UNL     1      12.150   5.136   2.228  0.00  0.00    +0.071 C 
ATOM      6  C   UNL     1      13.100   4.009  -0.366  0.00  0.00    +0.028 C 
ATOM      7  C   UNL     1      12.020   3.638   1.873  0.00  0.00    +0.024 C 
ATOM      8  C   UNL     1      14.496   3.674   1.660  0.00  0.00    +0.019 C 
ATOM      9  C   UNL     1      12.968   5.515  -0.040  0.00  0.00    +0.092 C 
ATOM     10  C   UNL     1      14.509   5.207   1.777  0.00  0.00    +0.085 C 
BRANCH   6  12
ATOM     12  C   UNL     1      11.984   3.529  -1.244  0.00  0.00    -0.030 C 
ATOM     13  C   UNL     1      12.045   2.424  -1.996  0.00  0.00    +0.004 C 
ENDBRANCH   6  12
ENDBRANCH  11   5
ENDBRANCH   3  11
BRANCH   3  14
ATOM     14  C   UNL     1       9.422   6.721   3.904  0.00  0.00    +0.116 C 
BRANCH  14  15
ATOM     15  C   UNL     1       9.602   6.063   5.246  0.00  0.00    -0.033 A 
ATOM     16  C   UNL     1       9.760   6.852   6.378  0.00  0.00    +0.008 A 
ATOM     17  C   UNL     1       9.607   4.678   5.332  0.00  0.00    +0.008 A 
ATOM     18  C   UNL     1       9.927   6.241   7.621  0.00  0.00    +0.046 A 
ATOM     19  C   UNL     1       9.774   4.069   6.576  0.00  0.00    +0.046 A 
ATOM     20  C   UNL     1       9.934   4.850   7.720  0.00  0.00    +0.120 A 
BRANCH  20   1
ATOM      1  O   UNL     1      10.096   4.256   8.934  0.00  0.00    -0.495 OA
ATOM     21  C   UNL     1       9.183   4.628   9.965  0.00  0.00    +0.277 C 
ENDBRANCH  20   1
ENDBRANCH  14  15
ENDBRANCH   3  14
TORSDOF 6
ENDMDL
MODEL 6
REMARK VINA RESULT:      -5.7     26.575     28.380
REMARK  Name = 11943564
REMARK  7 active torsions:
REMARK  status: ('A' for Active; 'I' for Inactive)
REMARK    1  A    between atoms: O_1  and  C_20
REMARK    2  A    between atoms: O_1  and  C_21
REMARK    3  A    between atoms: N_3  and  C_11
REMARK    4  A    between atoms: N_3  and  C_14
REMARK    5  A    between atoms: C_5  and  C_11
REMARK    6  A    between atoms: C_6  and  C_12
REMARK    7  A    between atoms: C_14  and  C_15
REMARK                            x       y       z     vdW  Elec       q    Type
REMARK                         _______ _______ _______ _____ _____    ______ ____
ROOT
ATOM      3  N   UNL     1     -10.225   9.873  18.918  0.00  0.00    -0.311 NA
ATOM     22  H   UNL     1      -9.287   9.721  19.289  0.00  0.00    +0.122 HD
ENDROOT
BRANCH   3  11
ATOM     11  C   UNL     1     -10.196  10.963  17.957  0.00  0.00    +0.100 C 
BRANCH  11   5
ATOM      2  N   UNL     1     -11.629  11.059  15.901  0.00  0.00    -0.298 NA
ATOM      4  C   UNL     1     -11.685   8.478  15.581  0.00  0.00    -0.000 C 
ATOM      5  C   UNL     1     -10.434  10.441  16.538  0.00  0.00    +0.071 C 
ATOM      6  C   UNL     1     -13.014   8.984  16.191  0.00  0.00    +0.028 C 
ATOM      7  C   UNL     1     -10.521   8.899  16.501  0.00  0.00    +0.024 C 
ATOM      8  C   UNL     1     -11.498   9.203  14.236  0.00  0.00    +0.019 C 
ATOM      9  C   UNL     1     -12.873  10.497  16.483  0.00  0.00    +0.092 C 
ATOM     10  C   UNL     1     -11.602  10.722  14.457  0.00  0.00    +0.085 C 
BRANCH   6  12
ATOM     12  C   UNL     1     -13.426   8.216  17.410  0.00  0.00    -0.030 C 
ATOM     13  C   UNL     1     -14.677   8.175  17.882  0.00  0.00    +0.004 C 
ENDBRANCH   6  12
ENDBRANCH  11   5
ENDBRANCH   3  11
BRANCH   3  14
ATOM     14  C   UNL     1     -11.144  10.165  20.013  0.00  0.00    +0.116 C 
BRANCH  14  15
ATOM     15  C   UNL     1     -11.859   8.929  20.488  0.00  0.00    -0.033 A 
ATOM     16  C   UNL     1     -13.085   9.052  21.129  0.00  0.00    +0.008 A 
ATOM     17  C   UNL     1     -11.283   7.684  20.279  0.00  0.00    +0.008 A 
ATOM     18  C   UNL     1     -13.746   7.906  21.569  0.00  0.00    +0.046 A 
ATOM     19  C   UNL     1     -11.946   6.538  20.720  0.00  0.00    +0.046 A 
ATOM     20  C   UNL     1     -13.178   6.649  21.365  0.00  0.00    +0.120 A 
BRANCH  20   1
ATOM      1  O   UNL     1     -13.825   5.532  21.795  0.00  0.00    -0.495 OA
ATOM     21  C   UNL     1     -15.236   5.480  21.587  0.00  0.00    +0.277 C 
ENDBRANCH  20   1
ENDBRANCH  14  15
ENDBRANCH   3  14
TORSDOF 6
ENDMDL
MODEL 7
REMARK VINA RESULT:      -5.7     26.730     28.439
REMARK  Name = 11943564
REMARK  7 active torsions:
REMARK  status: ('A' for Active; 'I' for Inactive)
REMARK    1  A    between atoms: O_1  and  C_20
REMARK    2  A    between atoms: O_1  and  C_21
REMARK    3  A    between atoms: N_3  and  C_11
REMARK    4  A    between atoms: N_3  and  C_14
REMARK    5  A    between atoms: C_5  and  C_11
REMARK    6  A    between atoms: C_6  and  C_12
REMARK    7  A    between atoms: C_14  and  C_15
REMARK                            x       y       z     vdW  Elec       q    Type
REMARK                         _______ _______ _______ _____ _____    ______ ____
ROOT
ATOM      3  N   UNL     1     -10.725  10.104  19.735  0.00  0.00    -0.311 NA
ATOM     22  H   UNL     1      -9.875  10.177  20.293  0.00  0.00    +0.122 HD
ENDROOT
BRANCH   3  11
ATOM     11  C   UNL     1     -10.755  11.178  18.755  0.00  0.00    +0.100 C 
BRANCH  11   5
ATOM      2  N   UNL     1     -11.659  11.077  16.418  0.00  0.00    -0.298 NA
ATOM      4  C   UNL     1     -11.308   8.510  16.183  0.00  0.00    -0.000 C 
ATOM      5  C   UNL     1     -10.581  10.624  17.339  0.00  0.00    +0.071 C 
ATOM      6  C   UNL     1     -12.797   8.837  16.446  0.00  0.00    +0.028 C 
ATOM      7  C   UNL     1     -10.459   9.084  17.336  0.00  0.00    +0.024 C 
ATOM      8  C   UNL     1     -10.901   9.249  14.895  0.00  0.00    +0.019 C 
ATOM      9  C   UNL     1     -12.923  10.356  16.711  0.00  0.00    +0.092 C 
ATOM     10  C   UNL     1     -11.248  10.741  15.033  0.00  0.00    +0.085 C 
BRANCH   6  12
ATOM     12  C   UNL     1     -13.385   8.026  17.560  0.00  0.00    -0.030 C 
ATOM     13  C   UNL     1     -14.599   8.237  18.081  0.00  0.00    +0.004 C 
ENDBRANCH   6  12
ENDBRANCH  11   5
ENDBRANCH   3  11
BRANCH   3  14
ATOM     14  C   UNL     1     -11.892  10.160  20.608  0.00  0.00    +0.116 C 
BRANCH  14  15
ATOM     15  C   UNL     1     -12.391   8.785  20.964  0.00  0.00    -0.033 A 
ATOM     16  C   UNL     1     -11.619   7.675  20.649  0.00  0.00    +0.008 A 
ATOM     17  C   UNL     1     -13.614   8.647  21.603  0.00  0.00    +0.008 A 
ATOM     18  C   UNL     1     -12.082   6.401  20.979  0.00  0.00    +0.046 A 
ATOM     19  C   UNL     1     -14.077   7.373  21.933  0.00  0.00    +0.046 A 
ATOM     20  C   UNL     1     -13.311   6.250  21.621  0.00  0.00    +0.120 A 
BRANCH  20   1
ATOM      1  O   UNL     1     -13.761   5.007  21.943  0.00  0.00    -0.495 OA
ATOM     21  C   UNL     1     -14.935   4.931  22.750  0.00  0.00    +0.277 C 
ENDBRANCH  20   1
ENDBRANCH  14  15
ENDBRANCH   3  14
TORSDOF 6
ENDMDL
MODEL 8
REMARK VINA RESULT:      -5.6     26.778     28.303
REMARK  Name = 11943564
REMARK  7 active torsions:
REMARK  status: ('A' for Active; 'I' for Inactive)
REMARK    1  A    between atoms: O_1  and  C_20
REMARK    2  A    between atoms: O_1  and  C_21
REMARK    3  A    between atoms: N_3  and  C_11
REMARK    4  A    between atoms: N_3  and  C_14
REMARK    5  A    between atoms: C_5  and  C_11
REMARK    6  A    between atoms: C_6  and  C_12
REMARK    7  A    between atoms: C_14  and  C_15
REMARK                            x       y       z     vdW  Elec       q    Type
REMARK                         _______ _______ _______ _____ _____    ______ ____
ROOT
ATOM      3  N   UNL     1      -2.231 -12.549  14.657  0.00  0.00    -0.311 NA
ATOM     22  H   UNL     1      -1.531 -12.855  15.333  0.00  0.00    +0.122 HD
ENDROOT
BRANCH   3  11
ATOM     11  C   UNL     1      -3.512 -13.155  14.979  0.00  0.00    +0.100 C 
BRANCH  11   5
ATOM      2  N   UNL     1      -5.781 -12.487  15.814  0.00  0.00    -0.298 NA
ATOM      4  C   UNL     1      -5.271  -9.937  15.744  0.00  0.00    -0.000 C 
ATOM      5  C   UNL     1      -4.314 -12.258  15.924  0.00  0.00    +0.071 C 
ATOM      6  C   UNL     1      -6.146 -10.354  14.539  0.00  0.00    +0.028 C 
ATOM      7  C   UNL     1      -3.970 -10.765  15.728  0.00  0.00    +0.024 C 
ATOM      8  C   UNL     1      -6.045 -10.317  17.020  0.00  0.00    +0.019 C 
ATOM      9  C   UNL     1      -6.302 -11.893  14.558  0.00  0.00    +0.092 C 
ATOM     10  C   UNL     1      -6.437 -11.803  16.954  0.00  0.00    +0.085 C 
BRANCH   6  12
ATOM     12  C   UNL     1      -5.607  -9.864  13.229  0.00  0.00    -0.030 C 
ATOM     13  C   UNL     1      -6.337  -9.220  12.312  0.00  0.00    +0.004 C 
ENDBRANCH   6  12
ENDBRANCH  11   5
ENDBRANCH   3  11
BRANCH   3  14
ATOM     14  C   UNL     1      -1.804 -12.911  13.310  0.00  0.00    +0.116 C 
BRANCH  14  15
ATOM     15  C   UNL     1      -2.322 -11.944  12.279  0.00  0.00    -0.033 A 
ATOM     16  C   UNL     1      -3.290 -12.362  11.376  0.00  0.00    +0.008 A 
ATOM     17  C   UNL     1      -1.826 -10.649  12.248  0.00  0.00    +0.008 A 
ATOM     18  C   UNL     1      -3.769 -11.466  10.421  0.00  0.00    +0.046 A 
ATOM     19  C   UNL     1      -2.306  -9.753  11.293  0.00  0.00    +0.046 A 
ATOM     20  C   UNL     1      -3.278 -10.161  10.379  0.00  0.00    +0.120 A 
BRANCH  20   1
ATOM      1  O   UNL     1      -3.748  -9.288   9.447  0.00  0.00    -0.495 OA
ATOM     21  C   UNL     1      -4.738  -9.775   8.543  0.00  0.00    +0.277 C 
ENDBRANCH  20   1
ENDBRANCH  14  15
ENDBRANCH   3  14
TORSDOF 6
ENDMDL
MODEL 9
REMARK VINA RESULT:      -5.6     15.721     18.515
REMARK  Name = 11943564
REMARK  7 active torsions:
REMARK  status: ('A' for Active; 'I' for Inactive)
REMARK    1  A    between atoms: O_1  and  C_20
REMARK    2  A    between atoms: O_1  and  C_21
REMARK    3  A    between atoms: N_3  and  C_11
REMARK    4  A    between atoms: N_3  and  C_14
REMARK    5  A    between atoms: C_5  and  C_11
REMARK    6  A    between atoms: C_6  and  C_12
REMARK    7  A    between atoms: C_14  and  C_15
REMARK                            x       y       z     vdW  Elec       q    Type
REMARK                         _______ _______ _______ _____ _____    ______ ____
ROOT
ATOM      3  N   UNL     1      10.305   4.991   3.260  0.00  0.00    -0.311 NA
ATOM     22  H   UNL     1      10.654   5.904   2.970  0.00  0.00    +0.122 HD
ENDROOT
BRANCH   3  11
ATOM     11  C   UNL     1      10.086   4.991   4.697  0.00  0.00    +0.100 C 
BRANCH  11   5
ATOM      2  N   UNL     1      10.855   7.018   5.958  0.00  0.00    -0.298 NA
ATOM      4  C   UNL     1       8.619   7.299   7.258  0.00  0.00    -0.000 C 
ATOM      5  C   UNL     1       9.739   6.396   5.193  0.00  0.00    +0.071 C 
ATOM      6  C   UNL     1       9.704   6.669   8.164  0.00  0.00    +0.028 C 
ATOM      7  C   UNL     1       8.430   6.410   6.013  0.00  0.00    +0.024 C 
ATOM      8  C   UNL     1       9.161   8.658   6.779  0.00  0.00    +0.019 C 
ATOM      9  C   UNL     1      10.962   6.402   7.304  0.00  0.00    +0.092 C 
ATOM     10  C   UNL     1      10.542   8.457   6.134  0.00  0.00    +0.085 C 
BRANCH   6  12
ATOM     12  C   UNL     1       9.233   5.431   8.864  0.00  0.00    -0.030 C 
ATOM     13  C   UNL     1       9.718   4.207   8.628  0.00  0.00    +0.004 C 
ENDBRANCH   6  12
ENDBRANCH  11   5
ENDBRANCH   3  11
BRANCH   3  14
ATOM     14  C   UNL     1      11.257   3.956   2.876  0.00  0.00    +0.116 C 
BRANCH  14  15
ATOM     15  C   UNL     1      11.523   3.962   1.394  0.00  0.00    -0.033 A 
ATOM     16  C   UNL     1      10.578   4.500   0.532  0.00  0.00    +0.008 A 
ATOM     17  C   UNL     1      12.710   3.430   0.912  0.00  0.00    +0.008 A 
ATOM     18  C   UNL     1      10.825   4.505  -0.840  0.00  0.00    +0.046 A 
ATOM     19  C   UNL     1      12.957   3.435  -0.461  0.00  0.00    +0.046 A 
ATOM     20  C   UNL     1      12.015   3.973  -1.337  0.00  0.00    +0.120 A 
BRANCH  20   1
ATOM      1  O   UNL     1      12.254   3.979  -2.677  0.00  0.00    -0.495 OA
ATOM     21  C   UNL     1      13.613   4.113  -3.092  0.00  0.00    +0.277 C 
ENDBRANCH  20   1
ENDBRANCH  14  15
ENDBRANCH   3  14
TORSDOF 6
ENDMDL
MODEL 10
REMARK VINA RESULT:      -5.5     26.598     28.199
REMARK  Name = 11943564
REMARK  7 active torsions:
REMARK  status: ('A' for Active; 'I' for Inactive)
REMARK    1  A    between atoms: O_1  and  C_20
REMARK    2  A    between atoms: O_1  and  C_21
REMARK    3  A    between atoms: N_3  and  C_11
REMARK    4  A    between atoms: N_3  and  C_14
REMARK    5  A    between atoms: C_5  and  C_11
REMARK    6  A    between atoms: C_6  and  C_12
REMARK    7  A    between atoms: C_14  and  C_15
REMARK                            x       y       z     vdW  Elec       q    Type
REMARK                         _______ _______ _______ _____ _____    ______ ____
ROOT
ATOM      3  N   UNL     1      -2.762 -10.225  14.979  0.00  0.00    -0.311 NA
ATOM     22  H   UNL     1      -2.047  -9.498  14.992  0.00  0.00    +0.122 HD
ENDROOT
BRANCH   3  11
ATOM     11  C   UNL     1      -2.680 -11.007  16.201  0.00  0.00    +0.100 C 
BRANCH  11   5
ATOM      2  N   UNL     1      -4.297 -11.849  17.923  0.00  0.00    -0.298 NA
ATOM      4  C   UNL     1      -6.344 -10.624  16.885  0.00  0.00    -0.000 C 
ATOM      5  C   UNL     1      -3.840 -10.669  17.140  0.00  0.00    +0.071 C 
ATOM      6  C   UNL     1      -6.370 -12.130  16.531  0.00  0.00    +0.028 C 
ATOM      7  C   UNL     1      -5.019 -10.015  16.384  0.00  0.00    +0.024 C 
ATOM      8  C   UNL     1      -6.350 -10.519  18.422  0.00  0.00    +0.019 C 
ATOM      9  C   UNL     1      -5.066 -12.777  17.056  0.00  0.00    +0.092 C 
ATOM     10  C   UNL     1      -5.201 -11.365  18.995  0.00  0.00    +0.085 C 
BRANCH   6  12
ATOM     12  C   UNL     1      -6.567 -12.382  15.067  0.00  0.00    -0.030 C 
ATOM     13  C   UNL     1      -5.790 -13.187  14.334  0.00  0.00    +0.004 C 
ENDBRANCH   6  12
ENDBRANCH  11   5
ENDBRANCH   3  11
BRANCH   3  14
ATOM     14  C   UNL     1      -2.584 -11.069  13.803  0.00  0.00    +0.116 C 
BRANCH  14  15
ATOM     15  C   UNL     1      -3.198 -10.456  12.574  0.00  0.00    -0.033 A 
ATOM     16  C   UNL     1      -4.568 -10.236  12.532  0.00  0.00    +0.008 A 
ATOM     17  C   UNL     1      -2.386 -10.118  11.501  0.00  0.00    +0.008 A 
ATOM     18  C   UNL     1      -5.137  -9.668  11.392  0.00  0.00    +0.046 A 
ATOM     19  C   UNL     1      -2.955  -9.549  10.361  0.00  0.00    +0.046 A 
ATOM     20  C   UNL     1      -4.331  -9.324  10.307  0.00  0.00    +0.120 A 
BRANCH  20   1
ATOM      1  O   UNL     1      -4.888  -8.769   9.196  0.00  0.00    -0.495 OA
ATOM     21  C   UNL     1      -5.129  -9.637   8.089  0.00  0.00    +0.277 C 
ENDBRANCH  20   1
ENDBRANCH  14  15
ENDBRANCH   3  14
TORSDOF 6
ENDMDL
