MODEL 1
REMARK VINA RESULT:      -6.5      0.000      0.000
REMARK  Name = 11882971
REMARK  9 active torsions:
REMARK  status: ('A' for Active; 'I' for Inactive)
REMARK    1  A    between atoms: O_2  and  C_14
REMARK    2  A    between atoms: O_3  and  C_19
REMARK    3  A    between atoms: O_4  and  C_24
REMARK    4  A    between atoms: C_9  and  C_17
REMARK    5  A    between atoms: C_11  and  C_19
REMARK    6  A    between atoms: C_11  and  C_20
REMARK    7  A    between atoms: C_12  and  C_22
REMARK    8  A    between atoms: C_22  and  C_24
REMARK    9  A    between atoms: C_25  and  C_26
REMARK                            x       y       z     vdW  Elec       q    Type
REMARK                         _______ _______ _______ _____ _____    ______ ____
ROOT
ATOM      1  S   UNL     1      -7.253 -10.491  12.553  0.00  0.00    -0.057 S 
ATOM      6  O   UNL     1      -3.228 -10.660  10.198  0.00  0.00    -0.275 OA
ATOM      7  N   UNL     1      -4.695 -10.794  12.782  0.00  0.00    -0.229 NA
ATOM      8  N   UNL     1      -5.554 -10.446  10.556  0.00  0.00    -0.264 N 
ATOM      9  C   UNL     1      -5.165 -10.771  16.609  0.00  0.00    -0.019 C 
ATOM     10  C   UNL     1      -6.615 -11.421  16.512  0.00  0.00    +0.011 C 
ATOM     11  C   UNL     1      -7.426 -11.563  17.859  0.00  0.00    +0.021 C 
ATOM     12  C   UNL     1      -4.379 -11.122  15.262  0.00  0.00    +0.055 C 
ATOM     13  C   UNL     1      -4.397 -11.399  17.801  0.00  0.00    +0.010 C 
ATOM     14  C   UNL     1      -6.498 -12.162  18.954  0.00  0.00    +0.123 C 
ATOM     15  C   UNL     1      -7.441 -10.801  15.347  0.00  0.00    +0.049 C 
ATOM     16  C   UNL     1      -5.182 -11.406  19.105  0.00  0.00    +0.032 C 
ATOM     17  C   UNL     1      -5.204  -9.234  16.796  0.00  0.00    +0.012 C 
ATOM     18  C   UNL     1      -5.238 -10.869  14.051  0.00  0.00    +0.058 A 
ATOM     20  C   UNL     1      -8.594 -12.568  17.644  0.00  0.00    +0.016 C 
ATOM     21  C   UNL     1      -6.611 -10.745  14.109  0.00  0.00    +0.015 A 
ATOM     23  C   UNL     1      -5.662 -10.589  11.915  0.00  0.00    +0.165 A 
ATOM     26  C   UNL     1      -4.373 -10.489   9.795  0.00  0.00    +0.222 C 
ATOM     34  H   UNL     1      -6.436 -10.301  10.073  0.00  0.00    +0.157 HD
ENDROOT
BRANCH  26  25
ATOM     25  C   UNL     1      -4.648 -10.295   8.334  0.00  0.00    +0.075 C 
ATOM     27  C   UNL     1      -4.521 -11.631   7.598  0.00  0.00    +0.013 C 
ATOM     28  C   UNL     1      -6.037  -9.681   8.142  0.00  0.00    +0.013 C 
ATOM     29  C   UNL     1      -4.886 -11.498   6.122  0.00  0.00    +0.001 C 
ATOM     30  C   UNL     1      -6.397  -9.553   6.665  0.00  0.00    +0.001 C 
ATOM     31  C   UNL     1      -6.271 -10.887   5.937  0.00  0.00    +0.000 C 
ENDBRANCH  26  25
BRANCH  14   2
ATOM      2  O   UNL     1      -7.162 -12.184  20.218  0.00  0.00    -0.391 OA
ATOM     32  H   UNL     1      -7.973 -12.711  20.122  0.00  0.00    +0.210 HD
ENDBRANCH  14   2
BRANCH  11  19
ATOM     19  C   UNL     1      -8.087 -10.257  18.350  0.00  0.00    +0.165 C 
BRANCH  19   3
ATOM      3  O   UNL     1      -9.127 -10.607  19.236  0.00  0.00    -0.394 OA
ATOM     33  H   UNL     1      -9.645  -9.807  19.424  0.00  0.00    +0.209 HD
ENDBRANCH  19   3
ENDBRANCH  11  19
BRANCH  12  22
ATOM     22  C   UNL     1      -3.007 -10.446  15.130  0.00  0.00    +0.130 C 
BRANCH  22  24
ATOM      5  O   UNL     1      -1.680 -12.380  14.466  0.00  0.00    -0.251 OA
ATOM     24  C   UNL     1      -1.891 -11.445  15.225  0.00  0.00    +0.305 C 
BRANCH  24   4
ATOM      4  O   UNL     1      -1.119 -11.162  16.305  0.00  0.00    -0.481 OA
ATOM     35  H   UNL     1      -1.071 -10.198  16.478  0.00  0.00    +0.295 HD
ENDBRANCH  24   4
ENDBRANCH  22  24
ENDBRANCH  12  22
TORSDOF 7
ENDMDL
MODEL 2
REMARK VINA RESULT:      -6.5      2.548      8.754
REMARK  Name = 11882971
REMARK  9 active torsions:
REMARK  status: ('A' for Active; 'I' for Inactive)
REMARK    1  A    between atoms: O_2  and  C_14
REMARK    2  A    between atoms: O_3  and  C_19
REMARK    3  A    between atoms: O_4  and  C_24
REMARK    4  A    between atoms: C_9  and  C_17
REMARK    5  A    between atoms: C_11  and  C_19
REMARK    6  A    between atoms: C_11  and  C_20
REMARK    7  A    between atoms: C_12  and  C_22
REMARK    8  A    between atoms: C_22  and  C_24
REMARK    9  A    between atoms: C_25  and  C_26
REMARK                            x       y       z     vdW  Elec       q    Type
REMARK                         _______ _______ _______ _____ _____    ______ ____
ROOT
ATOM      1  S   UNL     1      -7.658  -9.828  13.346  0.00  0.00    -0.057 S 
ATOM      6  O   UNL     1      -3.452 -10.416  15.281  0.00  0.00    -0.275 OA
ATOM      7  N   UNL     1      -5.133 -10.087  12.850  0.00  0.00    -0.229 NA
ATOM      8  N   UNL     1      -5.797 -10.146  15.166  0.00  0.00    -0.264 N 
ATOM      9  C   UNL     1      -6.013 -10.177   9.097  0.00  0.00    -0.019 C 
ATOM     10  C   UNL     1      -7.278  -9.229   9.291  0.00  0.00    +0.011 C 
ATOM     11  C   UNL     1      -8.184  -8.977   8.024  0.00  0.00    +0.021 C 
ATOM     12  C   UNL     1      -5.029  -9.943  10.334  0.00  0.00    +0.055 C 
ATOM     13  C   UNL     1      -5.266  -9.780   7.797  0.00  0.00    +0.010 C 
ATOM     14  C   UNL     1      -7.278  -8.639   6.806  0.00  0.00    +0.123 C 
ATOM     15  C   UNL     1      -8.082  -9.608  10.569  0.00  0.00    +0.049 C 
ATOM     16  C   UNL     1      -6.171  -9.663   6.577  0.00  0.00    +0.032 C 
ATOM     17  C   UNL     1      -6.390 -11.676   9.016  0.00  0.00    +0.012 C 
ATOM     18  C   UNL     1      -5.784  -9.954  11.637  0.00  0.00    +0.058 A 
ATOM     20  C   UNL     1      -9.088  -7.738   8.285  0.00  0.00    +0.016 C 
ATOM     21  C   UNL     1      -7.151  -9.784  11.722  0.00  0.00    +0.015 A 
ATOM     23  C   UNL     1      -6.021 -10.042  13.818  0.00  0.00    +0.165 A 
ATOM     26  C   UNL     1      -4.557 -10.321  15.804  0.00  0.00    +0.222 C 
ATOM     34  H   UNL     1      -6.632 -10.078  15.742  0.00  0.00    +0.157 HD
ENDROOT
BRANCH  26  25
ATOM     25  C   UNL     1      -4.705 -10.388  17.294  0.00  0.00    +0.075 C 
ATOM     27  C   UNL     1      -6.183 -10.280  17.678  0.00  0.00    +0.013 C 
ATOM     28  C   UNL     1      -4.083 -11.683  17.822  0.00  0.00    +0.013 C 
ATOM     29  C   UNL     1      -6.389 -10.439  19.182  0.00  0.00    +0.001 C 
ATOM     30  C   UNL     1      -4.295 -11.837  19.326  0.00  0.00    +0.001 C 
ATOM     31  C   UNL     1      -5.769 -11.732  19.701  0.00  0.00    +0.000 C 
ENDBRANCH  26  25
BRANCH  14   2
ATOM      2  O   UNL     1      -8.056  -8.531   5.614  0.00  0.00    -0.391 OA
ATOM     32  H   UNL     1      -8.116  -9.414   5.214  0.00  0.00    +0.210 HD
ENDBRANCH  14   2
BRANCH  11  19
ATOM     19  C   UNL     1      -9.151 -10.133   7.686  0.00  0.00    +0.165 C 
BRANCH  19   3
ATOM      3  O   UNL     1     -10.326  -9.569   7.147  0.00  0.00    -0.394 OA
ATOM     33  H   UNL     1     -11.086  -9.956   7.611  0.00  0.00    +0.209 HD
ENDBRANCH  19   3
ENDBRANCH  11  19
BRANCH  12  22
ATOM     22  C   UNL     1      -3.821 -10.889  10.376  0.00  0.00    +0.130 C 
BRANCH  22  24
ATOM      5  O   UNL     1      -2.002  -9.289  10.651  0.00  0.00    -0.251 OA
ATOM     24  C   UNL     1      -2.645 -10.247  11.053  0.00  0.00    +0.305 C 
BRANCH  24   4
ATOM      4  O   UNL     1      -2.381 -10.898  12.215  0.00  0.00    -0.481 OA
ATOM     35  H   UNL     1      -2.110 -11.827  12.061  0.00  0.00    +0.295 HD
ENDBRANCH  24   4
ENDBRANCH  22  24
ENDBRANCH  12  22
TORSDOF 7
ENDMDL
MODEL 3
REMARK VINA RESULT:      -6.2     25.577     27.594
REMARK  Name = 11882971
REMARK  9 active torsions:
REMARK  status: ('A' for Active; 'I' for Inactive)
REMARK    1  A    between atoms: O_2  and  C_14
REMARK    2  A    between atoms: O_3  and  C_19
REMARK    3  A    between atoms: O_4  and  C_24
REMARK    4  A    between atoms: C_9  and  C_17
REMARK    5  A    between atoms: C_11  and  C_19
REMARK    6  A    between atoms: C_11  and  C_20
REMARK    7  A    between atoms: C_12  and  C_22
REMARK    8  A    between atoms: C_22  and  C_24
REMARK    9  A    between atoms: C_25  and  C_26
REMARK                            x       y       z     vdW  Elec       q    Type
REMARK                         _______ _______ _______ _____ _____    ______ ____
ROOT
ATOM      1  S   UNL     1      19.868  -6.340  20.467  0.00  0.00    -0.057 S 
ATOM      6  O   UNL     1      22.018 -10.145  22.106  0.00  0.00    -0.275 OA
ATOM      7  N   UNL     1      20.574  -7.594  22.616  0.00  0.00    -0.229 NA
ATOM      8  N   UNL     1      21.161  -8.621  20.515  0.00  0.00    -0.264 N 
ATOM      9  C   UNL     1      19.317  -4.564  24.642  0.00  0.00    -0.019 C 
ATOM     10  C   UNL     1      18.192  -4.215  23.569  0.00  0.00    +0.011 C 
ATOM     11  C   UNL     1      17.359  -2.897  23.811  0.00  0.00    +0.021 C 
ATOM     12  C   UNL     1      19.712  -6.101  24.457  0.00  0.00    +0.055 C 
ATOM     13  C   UNL     1      18.743  -4.375  26.070  0.00  0.00    +0.010 C 
ATOM     14  C   UNL     1      16.902  -2.845  25.296  0.00  0.00    +0.123 C 
ATOM     15  C   UNL     1      18.729  -4.359  22.115  0.00  0.00    +0.049 C 
ATOM     16  C   UNL     1      18.048  -3.038  26.284  0.00  0.00    +0.032 C 
ATOM     17  C   UNL     1      20.583  -3.686  24.494  0.00  0.00    +0.012 C 
ATOM     18  C   UNL     1      19.929  -6.435  23.004  0.00  0.00    +0.058 A 
ATOM     20  C   UNL     1      16.074  -2.943  22.935  0.00  0.00    +0.016 C 
ATOM     21  C   UNL     1      19.464  -5.649  21.969  0.00  0.00    +0.015 A 
ATOM     23  C   UNL     1      20.607  -7.646  21.302  0.00  0.00    +0.165 A 
ATOM     26  C   UNL     1      21.817  -9.785  20.951  0.00  0.00    +0.222 C 
ATOM     34  H   UNL     1      21.067  -8.464  19.516  0.00  0.00    +0.157 HD
ENDROOT
BRANCH  26  25
ATOM     25  C   UNL     1      22.290 -10.620  19.799  0.00  0.00    +0.075 C 
ATOM     27  C   UNL     1      21.094 -11.070  18.956  0.00  0.00    +0.013 C 
ATOM     28  C   UNL     1      23.298  -9.829  18.962  0.00  0.00    +0.013 C 
ATOM     29  C   UNL     1      21.536 -11.844  17.717  0.00  0.00    +0.001 C 
ATOM     30  C   UNL     1      23.734 -10.607  17.723  0.00  0.00    +0.001 C 
ATOM     31  C   UNL     1      22.540 -11.051  16.886  0.00  0.00    +0.000 C 
ENDBRANCH  26  25
BRANCH  14   2
ATOM      2  O   UNL     1      16.256  -1.605  25.580  0.00  0.00    -0.391 OA
ATOM     32  H   UNL     1      15.752  -1.341  24.792  0.00  0.00    +0.210 HD
ENDBRANCH  14   2
BRANCH  11  19
ATOM     19  C   UNL     1      18.087  -1.596  23.412  0.00  0.00    +0.165 C 
BRANCH  19   3
ATOM      3  O   UNL     1      17.469  -1.094  22.248  0.00  0.00    -0.394 OA
ATOM     33  H   UNL     1      17.449  -0.125  22.310  0.00  0.00    +0.209 HD
ENDBRANCH  19   3
ENDBRANCH  11  19
BRANCH  12  22
ATOM     22  C   UNL     1      20.892  -6.565  25.322  0.00  0.00    +0.130 C 
BRANCH  22  24
ATOM      5  O   UNL     1      20.131  -7.704  27.339  0.00  0.00    -0.251 OA
ATOM     24  C   UNL     1      20.516  -7.738  26.180  0.00  0.00    +0.305 C 
BRANCH  24   4
ATOM      4  O   UNL     1      20.666  -8.885  25.469  0.00  0.00    -0.481 OA
ATOM     35  H   UNL     1      21.348  -9.472  25.860  0.00  0.00    +0.295 HD
ENDBRANCH  24   4
ENDBRANCH  22  24
ENDBRANCH  12  22
TORSDOF 7
ENDMDL
MODEL 4
REMARK VINA RESULT:      -6.1      2.330      8.521
REMARK  Name = 11882971
REMARK  9 active torsions:
REMARK  status: ('A' for Active; 'I' for Inactive)
REMARK    1  A    between atoms: O_2  and  C_14
REMARK    2  A    between atoms: O_3  and  C_19
REMARK    3  A    between atoms: O_4  and  C_24
REMARK    4  A    between atoms: C_9  and  C_17
REMARK    5  A    between atoms: C_11  and  C_19
REMARK    6  A    between atoms: C_11  and  C_20
REMARK    7  A    between atoms: C_12  and  C_22
REMARK    8  A    between atoms: C_22  and  C_24
REMARK    9  A    between atoms: C_25  and  C_26
REMARK                            x       y       z     vdW  Elec       q    Type
REMARK                         _______ _______ _______ _____ _____    ______ ____
ROOT
ATOM      1  S   UNL     1      -8.295 -11.090  14.757  0.00  0.00    -0.057 S 
ATOM      6  O   UNL     1      -6.081 -11.809  18.802  0.00  0.00    -0.275 OA
ATOM      7  N   UNL     1      -5.974 -11.190  15.895  0.00  0.00    -0.229 NA
ATOM      8  N   UNL     1      -7.891 -11.604  17.297  0.00  0.00    -0.264 N 
ATOM      9  C   UNL     1      -4.389 -10.769  12.405  0.00  0.00    -0.019 C 
ATOM     10  C   UNL     1      -5.613  -9.903  11.868  0.00  0.00    +0.011 C 
ATOM     11  C   UNL     1      -5.589  -9.501  10.342  0.00  0.00    +0.021 C 
ATOM     12  C   UNL     1      -4.388 -10.683  14.001  0.00  0.00    +0.055 C 
ATOM     13  C   UNL     1      -3.060 -10.165  11.882  0.00  0.00    +0.010 C 
ATOM     14  C   UNL     1      -4.178  -8.961   9.976  0.00  0.00    +0.123 C 
ATOM     15  C   UNL     1      -6.975 -10.487  12.341  0.00  0.00    +0.049 C 
ATOM     16  C   UNL     1      -3.050  -9.904  10.382  0.00  0.00    +0.032 C 
ATOM     17  C   UNL     1      -4.466 -12.254  11.971  0.00  0.00    +0.012 C 
ATOM     18  C   UNL     1      -5.770 -10.906  14.557  0.00  0.00    +0.058 A 
ATOM     20  C   UNL     1      -6.602  -8.344  10.107  0.00  0.00    +0.016 C 
ATOM     21  C   UNL     1      -6.918 -10.796  13.799  0.00  0.00    +0.015 A 
ATOM     23  C   UNL     1      -7.265 -11.315  16.112  0.00  0.00    +0.165 A 
ATOM     26  C   UNL     1      -7.279 -11.827  18.541  0.00  0.00    +0.222 C 
ATOM     34  H   UNL     1      -8.905 -11.647  17.241  0.00  0.00    +0.157 HD
ENDROOT
BRANCH  26  25
ATOM     25  C   UNL     1      -8.289 -12.112  19.612  0.00  0.00    +0.075 C 
ATOM     27  C   UNL     1      -9.550 -11.278  19.376  0.00  0.00    +0.013 C 
ATOM     28  C   UNL     1      -8.607 -13.610  19.644  0.00  0.00    +0.013 C 
ATOM     29  C   UNL     1     -10.643 -11.607  20.389  0.00  0.00    +0.001 C 
ATOM     30  C   UNL     1      -9.701 -13.932  20.657  0.00  0.00    +0.001 C 
ATOM     31  C   UNL     1     -10.956 -13.100  20.415  0.00  0.00    +0.000 C 
ENDBRANCH  26  25
BRANCH  14   2
ATOM      2  O   UNL     1      -4.084  -8.709   8.574  0.00  0.00    -0.391 OA
ATOM     32  H   UNL     1      -4.980  -8.745   8.202  0.00  0.00    +0.210 HD
ENDBRANCH  14   2
BRANCH  11  19
ATOM     19  C   UNL     1      -6.015 -10.628   9.376  0.00  0.00    +0.165 C 
BRANCH  19   3
ATOM      3  O   UNL     1      -6.659 -10.030   8.273  0.00  0.00    -0.394 OA
ATOM     33  H   UNL     1      -7.610  -9.984   8.467  0.00  0.00    +0.209 HD
ENDBRANCH  19   3
ENDBRANCH  11  19
BRANCH  12  22
ATOM     22  C   UNL     1      -3.353 -11.584  14.688  0.00  0.00    +0.130 C 
BRANCH  22  24
ATOM      5  O   UNL     1      -1.181 -10.841  15.509  0.00  0.00    -0.251 OA
ATOM     24  C   UNL     1      -2.401 -10.784  15.529  0.00  0.00    +0.305 C 
BRANCH  24   4
ATOM      4  O   UNL     1      -3.104  -9.958  16.347  0.00  0.00    -0.481 OA
ATOM     35  H   UNL     1      -2.679  -9.864  17.225  0.00  0.00    +0.295 HD
ENDBRANCH  24   4
ENDBRANCH  22  24
ENDBRANCH  12  22
TORSDOF 7
ENDMDL
MODEL 5
REMARK VINA RESULT:      -6.1      2.304      4.174
REMARK  Name = 11882971
REMARK  9 active torsions:
REMARK  status: ('A' for Active; 'I' for Inactive)
REMARK    1  A    between atoms: O_2  and  C_14
REMARK    2  A    between atoms: O_3  and  C_19
REMARK    3  A    between atoms: O_4  and  C_24
REMARK    4  A    between atoms: C_9  and  C_17
REMARK    5  A    between atoms: C_11  and  C_19
REMARK    6  A    between atoms: C_11  and  C_20
REMARK    7  A    between atoms: C_12  and  C_22
REMARK    8  A    between atoms: C_22  and  C_24
REMARK    9  A    between atoms: C_25  and  C_26
REMARK                            x       y       z     vdW  Elec       q    Type
REMARK                         _______ _______ _______ _____ _____    ______ ____
ROOT
ATOM      1  S   UNL     1      -5.169 -10.894  12.646  0.00  0.00    -0.057 S 
ATOM      6  O   UNL     1      -8.276  -8.475  10.143  0.00  0.00    -0.275 OA
ATOM      7  N   UNL     1      -7.424  -9.631  12.747  0.00  0.00    -0.229 NA
ATOM      8  N   UNL     1      -6.319  -9.715  10.606  0.00  0.00    -0.264 N 
ATOM      9  C   UNL     1      -7.786 -10.833  16.393  0.00  0.00    -0.019 C 
ATOM     10  C   UNL     1      -6.212 -10.840  16.629  0.00  0.00    +0.011 C 
ATOM     11  C   UNL     1      -5.699 -11.399  18.013  0.00  0.00    +0.021 C 
ATOM     12  C   UNL     1      -8.095  -9.854  15.168  0.00  0.00    +0.055 C 
ATOM     13  C   UNL     1      -8.495 -10.275  17.654  0.00  0.00    +0.010 C 
ATOM     14  C   UNL     1      -6.542 -10.775  19.161  0.00  0.00    +0.123 C 
ATOM     15  C   UNL     1      -5.454 -11.422  15.399  0.00  0.00    +0.049 C 
ATOM     16  C   UNL     1      -8.046 -10.930  18.953  0.00  0.00    +0.032 C 
ATOM     17  C   UNL     1      -8.355 -12.240  16.083  0.00  0.00    +0.012 C 
ATOM     18  C   UNL     1      -7.163 -10.118  14.014  0.00  0.00    +0.058 A 
ATOM     20  C   UNL     1      -4.225 -10.948  18.226  0.00  0.00    +0.016 C 
ATOM     21  C   UNL     1      -5.975 -10.808  14.144  0.00  0.00    +0.015 A 
ATOM     23  C   UNL     1      -6.445  -9.986  11.943  0.00  0.00    +0.165 A 
ATOM     26  C   UNL     1      -7.219  -8.993   9.803  0.00  0.00    +0.222 C 
ATOM     34  H   UNL     1      -5.474 -10.082  10.176  0.00  0.00    +0.157 HD
ENDROOT
BRANCH  26  25
ATOM     25  C   UNL     1      -6.743  -8.899   8.384  0.00  0.00    +0.075 C 
ATOM     27  C   UNL     1      -6.153 -10.240   7.942  0.00  0.00    +0.013 C 
ATOM     28  C   UNL     1      -7.897  -8.469   7.475  0.00  0.00    +0.013 C 
ATOM     29  C   UNL     1      -5.742 -10.219   6.472  0.00  0.00    +0.001 C 
ATOM     30  C   UNL     1      -7.481  -8.451   6.007  0.00  0.00    +0.001 C 
ATOM     31  C   UNL     1      -6.896  -9.791   5.571  0.00  0.00    +0.000 C 
ENDBRANCH  26  25
BRANCH  14   2
ATOM      2  O   UNL     1      -6.190 -11.356  20.416  0.00  0.00    -0.391 OA
ATOM     32  H   UNL     1      -6.418 -10.721  21.115  0.00  0.00    +0.210 HD
ENDBRANCH  14   2
BRANCH  11  19
ATOM     19  C   UNL     1      -5.681 -12.939  18.116  0.00  0.00    +0.165 C 
BRANCH  19   3
ATOM      3  O   UNL     1      -4.417 -13.325  18.606  0.00  0.00    -0.394 OA
ATOM     33  H   UNL     1      -4.194 -14.188  18.222  0.00  0.00    +0.209 HD
ENDBRANCH  19   3
ENDBRANCH  11  19
BRANCH  12  22
ATOM     22  C   UNL     1      -9.562  -9.844  14.714  0.00  0.00    +0.130 C 
BRANCH  22  24
ATOM      5  O   UNL     1     -11.268  -8.121  14.456  0.00  0.00    -0.251 OA
ATOM     24  C   UNL     1     -10.171  -8.479  14.859  0.00  0.00    +0.305 C 
BRANCH  24   4
ATOM      4  O   UNL     1      -9.309  -7.666  15.522  0.00  0.00    -0.481 OA
ATOM     35  H   UNL     1      -9.011  -6.916  14.965  0.00  0.00    +0.295 HD
ENDBRANCH  24   4
ENDBRANCH  22  24
ENDBRANCH  12  22
TORSDOF 7
ENDMDL
MODEL 6
REMARK VINA RESULT:      -6.0      2.772      5.191
REMARK  Name = 11882971
REMARK  9 active torsions:
REMARK  status: ('A' for Active; 'I' for Inactive)
REMARK    1  A    between atoms: O_2  and  C_14
REMARK    2  A    between atoms: O_3  and  C_19
REMARK    3  A    between atoms: O_4  and  C_24
REMARK    4  A    between atoms: C_9  and  C_17
REMARK    5  A    between atoms: C_11  and  C_19
REMARK    6  A    between atoms: C_11  and  C_20
REMARK    7  A    between atoms: C_12  and  C_22
REMARK    8  A    between atoms: C_22  and  C_24
REMARK    9  A    between atoms: C_25  and  C_26
REMARK                            x       y       z     vdW  Elec       q    Type
REMARK                         _______ _______ _______ _____ _____    ______ ____
ROOT
ATOM      1  S   UNL     1      -4.397  -9.439   9.840  0.00  0.00    -0.057 S 
ATOM      6  O   UNL     1      -8.813  -8.187   8.998  0.00  0.00    -0.275 OA
ATOM      7  N   UNL     1      -6.761  -9.247  10.872  0.00  0.00    -0.229 NA
ATOM      8  N   UNL     1      -6.519  -8.562   8.573  0.00  0.00    -0.264 N 
ATOM      9  C   UNL     1      -5.388 -10.999  14.020  0.00  0.00    -0.019 C 
ATOM     10  C   UNL     1      -3.931 -10.389  13.819  0.00  0.00    +0.011 C 
ATOM     11  C   UNL     1      -2.808 -10.877  14.814  0.00  0.00    +0.021 C 
ATOM     12  C   UNL     1      -6.423 -10.071  13.231  0.00  0.00    +0.055 C 
ATOM     13  C   UNL     1      -5.756 -10.969  15.527  0.00  0.00    +0.010 C 
ATOM     14  C   UNL     1      -3.356 -10.829  16.268  0.00  0.00    +0.123 C 
ATOM     15  C   UNL     1      -3.501 -10.425  12.323  0.00  0.00    +0.049 C 
ATOM     16  C   UNL     1      -4.685 -11.558  16.434  0.00  0.00    +0.032 C 
ATOM     17  C   UNL     1      -5.508 -12.455  13.507  0.00  0.00    +0.012 C 
ATOM     18  C   UNL     1      -5.923  -9.758  11.845  0.00  0.00    +0.058 A 
ATOM     20  C   UNL     1      -1.604  -9.895  14.741  0.00  0.00    +0.016 C 
ATOM     21  C   UNL     1      -4.605  -9.908  11.463  0.00  0.00    +0.015 A 
ATOM     23  C   UNL     1      -6.068  -9.048   9.772  0.00  0.00    +0.165 A 
ATOM     26  C   UNL     1      -7.832  -8.168   8.263  0.00  0.00    +0.222 C 
ATOM     34  H   UNL     1      -5.807  -8.481   7.853  0.00  0.00    +0.157 HD
ENDROOT
BRANCH  26  25
ATOM     25  C   UNL     1      -7.946  -7.685   6.848  0.00  0.00    +0.075 C 
ATOM     27  C   UNL     1      -7.281  -8.685   5.900  0.00  0.00    +0.013 C 
ATOM     28  C   UNL     1      -9.418  -7.467   6.489  0.00  0.00    +0.013 C 
ATOM     29  C   UNL     1      -7.457  -8.280   4.439  0.00  0.00    +0.001 C 
ATOM     30  C   UNL     1      -9.588  -7.065   5.027  0.00  0.00    +0.001 C 
ATOM     31  C   UNL     1      -8.926  -8.066   4.087  0.00  0.00    +0.000 C 
ENDBRANCH  26  25
BRANCH  14   2
ATOM      2  O   UNL     1      -2.410 -11.385  17.181  0.00  0.00    -0.391 OA
ATOM     32  H   UNL     1      -2.015 -10.656  17.687  0.00  0.00    +0.210 HD
ENDBRANCH  14   2
BRANCH  11  19
ATOM     19  C   UNL     1      -2.227 -12.271  14.490  0.00  0.00    +0.165 C 
BRANCH  19   3
ATOM      3  O   UNL     1      -0.860 -12.261  14.840  0.00  0.00    -0.394 OA
ATOM     33  H   UNL     1      -0.449 -13.062  14.476  0.00  0.00    +0.209 HD
ENDBRANCH  19   3
ENDBRANCH  11  19
BRANCH  12  22
ATOM     22  C   UNL     1      -7.863 -10.601  13.204  0.00  0.00    +0.130 C 
BRANCH  22  24
ATOM      5  O   UNL     1      -9.940  -9.332  13.335  0.00  0.00    -0.251 OA
ATOM     24  C   UNL     1      -8.828  -9.598  13.765  0.00  0.00    +0.305 C 
BRANCH  24   4
ATOM      4  O   UNL     1      -8.279  -9.003  14.856  0.00  0.00    -0.481 OA
ATOM     35  H   UNL     1      -8.956  -8.557  15.409  0.00  0.00    +0.295 HD
ENDBRANCH  24   4
ENDBRANCH  22  24
ENDBRANCH  12  22
TORSDOF 7
ENDMDL
MODEL 7
REMARK VINA RESULT:      -6.0     28.423     30.987
REMARK  Name = 11882971
REMARK  9 active torsions:
REMARK  status: ('A' for Active; 'I' for Inactive)
REMARK    1  A    between atoms: O_2  and  C_14
REMARK    2  A    between atoms: O_3  and  C_19
REMARK    3  A    between atoms: O_4  and  C_24
REMARK    4  A    between atoms: C_9  and  C_17
REMARK    5  A    between atoms: C_11  and  C_19
REMARK    6  A    between atoms: C_11  and  C_20
REMARK    7  A    between atoms: C_12  and  C_22
REMARK    8  A    between atoms: C_22  and  C_24
REMARK    9  A    between atoms: C_25  and  C_26
REMARK                            x       y       z     vdW  Elec       q    Type
REMARK                         _______ _______ _______ _____ _____    ______ ____
ROOT
ATOM      1  S   UNL     1      -7.630   8.735  36.984  0.00  0.00    -0.057 S 
ATOM      6  O   UNL     1      -8.772  11.121  33.139  0.00  0.00    -0.275 OA
ATOM      7  N   UNL     1      -6.775  10.436  35.234  0.00  0.00    -0.229 NA
ATOM      8  N   UNL     1      -9.032   9.637  34.960  0.00  0.00    -0.264 N 
ATOM      9  C   UNL     1      -3.573  10.806  37.350  0.00  0.00    -0.019 C 
ATOM     10  C   UNL     1      -3.651   9.304  37.872  0.00  0.00    +0.011 C 
ATOM     11  C   UNL     1      -2.586   8.866  38.951  0.00  0.00    +0.021 C 
ATOM     12  C   UNL     1      -4.416  10.901  35.996  0.00  0.00    +0.055 C 
ATOM     13  C   UNL     1      -2.098  11.166  37.034  0.00  0.00    +0.010 C 
ATOM     14  C   UNL     1      -1.176   9.343  38.502  0.00  0.00    +0.123 C 
ATOM     15  C   UNL     1      -5.110   8.902  38.234  0.00  0.00    +0.049 C 
ATOM     16  C   UNL     1      -1.126  10.828  38.156  0.00  0.00    +0.032 C 
ATOM     17  C   UNL     1      -4.126  11.829  38.373  0.00  0.00    +0.012 C 
ATOM     18  C   UNL     1      -5.753  10.223  36.141  0.00  0.00    +0.058 A 
ATOM     20  C   UNL     1      -2.546   7.312  39.022  0.00  0.00    +0.016 C 
ATOM     21  C   UNL     1      -6.038   9.317  37.142  0.00  0.00    +0.015 A 
ATOM     23  C   UNL     1      -7.814   9.710  35.583  0.00  0.00    +0.165 A 
ATOM     26  C   UNL     1      -9.431  10.328  33.803  0.00  0.00    +0.222 C 
ATOM     34  H   UNL     1      -9.695   9.003  35.398  0.00  0.00    +0.157 HD
ENDROOT
BRANCH  26  25
ATOM     25  C   UNL     1     -10.839   9.990  33.413  0.00  0.00    +0.075 C 
ATOM     27  C   UNL     1     -10.842   9.203  32.100  0.00  0.00    +0.013 C 
ATOM     28  C   UNL     1     -11.517   9.204  34.538  0.00  0.00    +0.013 C 
ATOM     29  C   UNL     1     -12.249   8.756  31.714  0.00  0.00    +0.001 C 
ATOM     30  C   UNL     1     -12.922   8.757  34.144  0.00  0.00    +0.001 C 
ATOM     31  C   UNL     1     -12.919   7.972  32.837  0.00  0.00    +0.000 C 
ENDBRANCH  26  25
BRANCH  14   2
ATOM      2  O   UNL     1      -0.208   9.076  39.517  0.00  0.00    -0.391 OA
ATOM     32  H   UNL     1      -0.008   8.126  39.499  0.00  0.00    +0.210 HD
ENDBRANCH  14   2
BRANCH  11  19
ATOM     19  C   UNL     1      -2.896   9.339  40.388  0.00  0.00    +0.165 C 
BRANCH  19   3
ATOM      3  O   UNL     1      -2.307   8.421  41.281  0.00  0.00    -0.394 OA
ATOM     33  H   UNL     1      -2.618   7.531  41.048  0.00  0.00    +0.209 HD
ENDBRANCH  19   3
ENDBRANCH  11  19
BRANCH  12  22
ATOM     22  C   UNL     1      -4.563  12.321  35.433  0.00  0.00    +0.130 C 
BRANCH  22  24
ATOM      5  O   UNL     1      -2.945  12.953  33.723  0.00  0.00    -0.251 OA
ATOM     24  C   UNL     1      -3.998  12.424  34.047  0.00  0.00    +0.305 C 
BRANCH  24   4
ATOM      4  O   UNL     1      -4.844  11.829  33.167  0.00  0.00    -0.481 OA
ATOM     35  H   UNL     1      -4.812  12.253  32.284  0.00  0.00    +0.295 HD
ENDBRANCH  24   4
ENDBRANCH  22  24
ENDBRANCH  12  22
TORSDOF 7
ENDMDL
MODEL 8
REMARK VINA RESULT:      -5.9      3.243      8.793
REMARK  Name = 11882971
REMARK  9 active torsions:
REMARK  status: ('A' for Active; 'I' for Inactive)
REMARK    1  A    between atoms: O_2  and  C_14
REMARK    2  A    between atoms: O_3  and  C_19
REMARK    3  A    between atoms: O_4  and  C_24
REMARK    4  A    between atoms: C_9  and  C_17
REMARK    5  A    between atoms: C_11  and  C_19
REMARK    6  A    between atoms: C_11  and  C_20
REMARK    7  A    between atoms: C_12  and  C_22
REMARK    8  A    between atoms: C_22  and  C_24
REMARK    9  A    between atoms: C_25  and  C_26
REMARK                            x       y       z     vdW  Elec       q    Type
REMARK                         _______ _______ _______ _____ _____    ______ ____
ROOT
ATOM      1  S   UNL     1      -8.834 -11.439  15.331  0.00  0.00    -0.057 S 
ATOM      6  O   UNL     1      -9.164 -11.665  19.981  0.00  0.00    -0.275 OA
ATOM      7  N   UNL     1      -7.484 -11.654  17.527  0.00  0.00    -0.229 NA
ATOM      8  N   UNL     1      -9.880 -11.496  17.735  0.00  0.00    -0.264 N 
ATOM      9  C   UNL     1      -4.322 -12.166  15.380  0.00  0.00    -0.019 C 
ATOM     10  C   UNL     1      -4.879 -11.252  14.201  0.00  0.00    +0.011 C 
ATOM     11  C   UNL     1      -4.007 -11.167  12.889  0.00  0.00    +0.021 C 
ATOM     12  C   UNL     1      -5.097 -11.768  16.720  0.00  0.00    +0.055 C 
ATOM     13  C   UNL     1      -2.812 -11.879  15.586  0.00  0.00    +0.010 C 
ATOM     14  C   UNL     1      -2.521 -10.923  13.277  0.00  0.00    +0.123 C 
ATOM     15  C   UNL     1      -6.388 -11.525  13.934  0.00  0.00    +0.049 C 
ATOM     16  C   UNL     1      -1.995 -11.923  14.301  0.00  0.00    +0.032 C 
ATOM     17  C   UNL     1      -4.508 -13.679  15.108  0.00  0.00    +0.012 C 
ATOM     18  C   UNL     1      -6.581 -11.672  16.480  0.00  0.00    +0.058 A 
ATOM     20  C   UNL     1      -4.472  -9.943  12.050  0.00  0.00    +0.016 C 
ATOM     21  C   UNL     1      -7.138 -11.546  15.223  0.00  0.00    +0.015 A 
ATOM     23  C   UNL     1      -8.700 -11.542  17.040  0.00  0.00    +0.165 A 
ATOM     26  C   UNL     1     -10.040 -11.558  19.129  0.00  0.00    +0.222 C 
ATOM     34  H   UNL     1     -10.710 -11.400  17.156  0.00  0.00    +0.157 HD
ENDROOT
BRANCH  26  25
ATOM     25  C   UNL     1     -11.484 -11.475  19.526  0.00  0.00    +0.075 C 
ATOM     27  C   UNL     1     -11.835 -12.634  20.462  0.00  0.00    +0.013 C 
ATOM     28  C   UNL     1     -11.767 -10.121  20.182  0.00  0.00    +0.013 C 
ATOM     29  C   UNL     1     -13.272 -12.535  20.967  0.00  0.00    +0.001 C 
ATOM     30  C   UNL     1     -13.204 -10.029  20.687  0.00  0.00    +0.001 C 
ATOM     31  C   UNL     1     -13.548 -11.185  21.621  0.00  0.00    +0.000 C 
ENDBRANCH  26  25
BRANCH  14   2
ATOM      2  O   UNL     1      -1.686 -10.969  12.120  0.00  0.00    -0.391 OA
ATOM     32  H   UNL     1      -1.069 -11.713  12.225  0.00  0.00    +0.210 HD
ENDBRANCH  14   2
BRANCH  11  19
ATOM     19  C   UNL     1      -4.139 -12.387  11.952  0.00  0.00    +0.165 C 
BRANCH  19   3
ATOM      3  O   UNL     1      -3.869 -11.952  10.637  0.00  0.00    -0.394 OA
ATOM     33  H   UNL     1      -3.330 -12.632  10.200  0.00  0.00    +0.209 HD
ENDBRANCH  19   3
ENDBRANCH  11  19
BRANCH  12  22
ATOM     22  C   UNL     1      -4.780 -12.659  17.929  0.00  0.00    +0.130 C 
BRANCH  22  24
ATOM      5  O   UNL     1      -3.318 -12.110  19.801  0.00  0.00    -0.251 OA
ATOM     24  C   UNL     1      -4.276 -11.850  19.089  0.00  0.00    +0.305 C 
BRANCH  24   4
ATOM      4  O   UNL     1      -5.057 -10.751  19.248  0.00  0.00    -0.481 OA
ATOM     35  H   UNL     1      -5.268 -10.324  18.390  0.00  0.00    +0.295 HD
ENDBRANCH  24   4
ENDBRANCH  22  24
ENDBRANCH  12  22
TORSDOF 7
ENDMDL
MODEL 9
REMARK VINA RESULT:      -5.9     23.100     26.015
REMARK  Name = 11882971
REMARK  9 active torsions:
REMARK  status: ('A' for Active; 'I' for Inactive)
REMARK    1  A    between atoms: O_2  and  C_14
REMARK    2  A    between atoms: O_3  and  C_19
REMARK    3  A    between atoms: O_4  and  C_24
REMARK    4  A    between atoms: C_9  and  C_17
REMARK    5  A    between atoms: C_11  and  C_19
REMARK    6  A    between atoms: C_11  and  C_20
REMARK    7  A    between atoms: C_12  and  C_22
REMARK    8  A    between atoms: C_22  and  C_24
REMARK    9  A    between atoms: C_25  and  C_26
REMARK                            x       y       z     vdW  Elec       q    Type
REMARK                         _______ _______ _______ _____ _____    ______ ____
ROOT
ATOM      1  S   UNL     1      -6.562  -7.914  39.206  0.00  0.00    -0.057 S 
ATOM      6  O   UNL     1     -10.957  -6.412  39.659  0.00  0.00    -0.275 OA
ATOM      7  N   UNL     1      -9.047  -8.565  38.907  0.00  0.00    -0.229 NA
ATOM      8  N   UNL     1      -8.596  -6.346  39.736  0.00  0.00    -0.264 N 
ATOM      9  C   UNL     1      -7.856 -11.856  37.291  0.00  0.00    -0.019 C 
ATOM     10  C   UNL     1      -6.528 -11.898  38.168  0.00  0.00    +0.011 C 
ATOM     11  C   UNL     1      -5.495 -13.047  37.848  0.00  0.00    +0.021 C 
ATOM     12  C   UNL     1      -8.917 -10.932  38.048  0.00  0.00    +0.055 C 
ATOM     13  C   UNL     1      -8.445 -13.286  37.179  0.00  0.00    +0.010 C 
ATOM     14  C   UNL     1      -6.255 -14.398  37.725  0.00  0.00    +0.123 C 
ATOM     15  C   UNL     1      -5.879 -10.488  38.285  0.00  0.00    +0.049 C 
ATOM     16  C   UNL     1      -7.431 -14.340  36.755  0.00  0.00    +0.032 C 
ATOM     17  C   UNL     1      -7.619 -11.303  35.864  0.00  0.00    +0.012 C 
ATOM     18  C   UNL     1      -8.283  -9.648  38.514  0.00  0.00    +0.058 A 
ATOM     20  C   UNL     1      -4.503 -13.183  39.039  0.00  0.00    +0.016 C 
ATOM     21  C   UNL     1      -6.919  -9.475  38.629  0.00  0.00    +0.015 A 
ATOM     23  C   UNL     1      -8.246  -7.592  39.284  0.00  0.00    +0.165 A 
ATOM     26  C   UNL     1      -9.898  -5.841  39.894  0.00  0.00    +0.222 C 
ATOM     34  H   UNL     1      -7.812  -5.748  39.981  0.00  0.00    +0.157 HD
ENDROOT
BRANCH  26  25
ATOM     25  C   UNL     1      -9.888  -4.436  40.416  0.00  0.00    +0.075 C 
ATOM     27  C   UNL     1      -8.754  -3.644  39.759  0.00  0.00    +0.013 C 
ATOM     28  C   UNL     1     -11.247  -3.778  40.167  0.00  0.00    +0.013 C 
ATOM     29  C   UNL     1      -8.766  -2.180  40.190  0.00  0.00    +0.001 C 
ATOM     30  C   UNL     1     -11.251  -2.313  40.598  0.00  0.00    +0.001 C 
ATOM     31  C   UNL     1     -10.122  -1.529  39.938  0.00  0.00    +0.000 C 
ENDBRANCH  26  25
BRANCH  14   2
ATOM      2  O   UNL     1      -5.369 -15.437  37.309  0.00  0.00    -0.391 OA
ATOM     32  H   UNL     1      -5.403 -16.145  37.975  0.00  0.00    +0.210 HD
ENDBRANCH  14   2
BRANCH  11  19
ATOM     19  C   UNL     1      -4.618 -12.793  36.604  0.00  0.00    +0.165 C 
BRANCH  19   3
ATOM      3  O   UNL     1      -3.316 -13.251  36.893  0.00  0.00    -0.394 OA
ATOM     33  H   UNL     1      -3.349 -14.217  36.985  0.00  0.00    +0.209 HD
ENDBRANCH  19   3
ENDBRANCH  11  19
BRANCH  12  22
ATOM     22  C   UNL     1     -10.209 -10.669  37.262  0.00  0.00    +0.130 C 
BRANCH  22  24
ATOM      5  O   UNL     1     -11.997 -12.143  38.021  0.00  0.00    -0.251 OA
ATOM     24  C   UNL     1     -11.423 -11.065  38.053  0.00  0.00    +0.305 C 
BRANCH  24   4
ATOM      4  O   UNL     1     -11.811 -10.026  38.837  0.00  0.00    -0.481 OA
ATOM     35  H   UNL     1     -12.069  -9.243  38.306  0.00  0.00    +0.295 HD
ENDBRANCH  24   4
ENDBRANCH  22  24
ENDBRANCH  12  22
TORSDOF 7
ENDMDL
MODEL 10
REMARK VINA RESULT:      -5.6     24.128     27.767
REMARK  Name = 11882971
REMARK  9 active torsions:
REMARK  status: ('A' for Active; 'I' for Inactive)
REMARK    1  A    between atoms: O_2  and  C_14
REMARK    2  A    between atoms: O_3  and  C_19
REMARK    3  A    between atoms: O_4  and  C_24
REMARK    4  A    between atoms: C_9  and  C_17
REMARK    5  A    between atoms: C_11  and  C_19
REMARK    6  A    between atoms: C_11  and  C_20
REMARK    7  A    between atoms: C_12  and  C_22
REMARK    8  A    between atoms: C_22  and  C_24
REMARK    9  A    between atoms: C_25  and  C_26
REMARK                            x       y       z     vdW  Elec       q    Type
REMARK                         _______ _______ _______ _____ _____    ______ ____
ROOT
ATOM      1  S   UNL     1      10.666  -6.015  35.533  0.00  0.00    -0.057 S 
ATOM      6  O   UNL     1       6.594  -6.829  33.404  0.00  0.00    -0.275 OA
ATOM      7  N   UNL     1       8.155  -5.396  35.491  0.00  0.00    -0.229 NA
ATOM      8  N   UNL     1       8.902  -7.021  33.874  0.00  0.00    -0.264 N 
ATOM      9  C   UNL     1       8.754  -3.295  38.668  0.00  0.00    -0.019 C 
ATOM     10  C   UNL     1      10.253  -2.954  38.254  0.00  0.00    +0.011 C 
ATOM     11  C   UNL     1      11.119  -2.152  39.301  0.00  0.00    +0.021 C 
ATOM     12  C   UNL     1       7.956  -3.695  37.342  0.00  0.00    +0.055 C 
ATOM     13  C   UNL     1       8.087  -2.034  39.277  0.00  0.00    +0.010 C 
ATOM     14  C   UNL     1      10.289  -0.955  39.843  0.00  0.00    +0.123 C 
ATOM     15  C   UNL     1      10.978  -4.199  37.663  0.00  0.00    +0.049 C 
ATOM     16  C   UNL     1       8.915  -1.364  40.365  0.00  0.00    +0.032 C 
ATOM     17  C   UNL     1       8.660  -4.451  39.693  0.00  0.00    +0.012 C 
ATOM     18  C   UNL     1       8.746  -4.668  36.507  0.00  0.00    +0.058 A 
ATOM     20  C   UNL     1      12.365  -1.561  38.581  0.00  0.00    +0.016 C 
ATOM     21  C   UNL     1      10.104  -4.866  36.656  0.00  0.00    +0.015 A 
ATOM     23  C   UNL     1       9.070  -6.146  34.915  0.00  0.00    +0.165 A 
ATOM     26  C   UNL     1       7.704  -7.305  33.195  0.00  0.00    +0.222 C 
ATOM     34  H   UNL     1       9.750  -7.497  33.578  0.00  0.00    +0.157 HD
ENDROOT
BRANCH  26  25
ATOM     25  C   UNL     1       7.910  -8.316  32.108  0.00  0.00    +0.075 C 
ATOM     27  C   UNL     1       8.373  -9.644  32.711  0.00  0.00    +0.013 C 
ATOM     28  C   UNL     1       6.618  -8.487  31.305  0.00  0.00    +0.013 C 
ATOM     29  C   UNL     1       8.503 -10.732  31.648  0.00  0.00    +0.001 C 
ATOM     30  C   UNL     1       6.753  -9.578  30.245  0.00  0.00    +0.001 C 
ATOM     31  C   UNL     1       7.213 -10.899  30.852  0.00  0.00    +0.000 C 
ENDBRANCH  26  25
BRANCH  14   2
ATOM      2  O   UNL     1      10.995  -0.284  40.887  0.00  0.00    -0.391 OA
ATOM     32  H   UNL     1      11.945  -0.433  40.750  0.00  0.00    +0.210 HD
ENDBRANCH  14   2
BRANCH  11  19
ATOM     19  C   UNL     1      11.676  -3.006  40.460  0.00  0.00    +0.165 C 
BRANCH  19   3
ATOM      3  O   UNL     1      12.940  -2.488  40.811  0.00  0.00    -0.394 OA
ATOM     33  H   UNL     1      13.192  -2.862  41.671  0.00  0.00    +0.209 HD
ENDBRANCH  19   3
ENDBRANCH  11  19
BRANCH  12  22
ATOM     22  C   UNL     1       6.525  -4.194  37.584  0.00  0.00    +0.130 C 
BRANCH  22  24
ATOM      5  O   UNL     1       4.642  -2.649  37.477  0.00  0.00    -0.251 OA
ATOM     24  C   UNL     1       5.514  -3.302  36.924  0.00  0.00    +0.305 C 
BRANCH  24   4
ATOM      4  O   UNL     1       5.704  -3.320  35.579  0.00  0.00    -0.481 OA
ATOM     35  H   UNL     1       5.742  -4.234  35.226  0.00  0.00    +0.295 HD
ENDBRANCH  24   4
ENDBRANCH  22  24
ENDBRANCH  12  22
TORSDOF 7
ENDMDL
