MODEL 1
REMARK VINA RESULT:      -6.3      0.000      0.000
REMARK  Name = 45784328
REMARK  5 active torsions:
REMARK  status: ('A' for Active; 'I' for Inactive)
REMARK    1  A    between atoms: N_1  and  C_9
REMARK    2  A    between atoms: C_5  and  C_10
REMARK    3  A    between atoms: C_9  and  C_11
REMARK    4  A    between atoms: C_9  and  C_12
REMARK    5  A    between atoms: C_17  and  C_19
REMARK                            x       y       z     vdW  Elec       q    Type
REMARK                         _______ _______ _______ _____ _____    ______ ____
ROOT
ATOM      2  N   UNL     1      16.053   6.111  19.289  0.00  0.00    -0.342 N 
ATOM      3  N   UNL     1      15.731   8.001  20.414  0.00  0.00    -0.232 NA
ATOM     10  C   UNL     1      15.176   7.102  19.634  0.00  0.00    +0.113 A 
ATOM     13  C   UNL     1      17.255   6.389  19.889  0.00  0.00    +0.067 A 
ATOM     14  C   UNL     1      17.028   7.573  20.585  0.00  0.00    +0.089 A 
ATOM     15  C   UNL     1      18.483   5.727  19.883  0.00  0.00    +0.046 A 
ATOM     16  C   UNL     1      18.077   8.145  21.325  0.00  0.00    +0.031 A 
ATOM     17  C   UNL     1      19.516   6.310  20.624  0.00  0.00    +0.054 A 
ATOM     18  C   UNL     1      19.320   7.497  21.333  0.00  0.00    +0.021 A 
ATOM     20  H   UNL     1      15.856   5.314  18.699  0.00  0.00    +0.167 HD
ENDROOT
BRANCH  10   5
ATOM      1  N   UNL     1      12.234   8.288  17.800  0.00  0.00    -0.299 NA
ATOM      5  C   UNL     1      13.750   7.095  19.134  0.00  0.00    +0.070 C 
ATOM      6  C   UNL     1      13.597   7.754  17.756  0.00  0.00    +0.096 C 
ATOM      7  C   UNL     1      12.746   7.836  20.033  0.00  0.00    +0.028 C 
ATOM      8  C   UNL     1      12.105   8.883  19.131  0.00  0.00    +0.085 C 
BRANCH   1   9
ATOM      9  C   UNL     1      11.979   9.250  16.737  0.00  0.00    +0.050 C 
ATOM     11  C   UNL     1      13.178   9.292  15.794  0.00  0.00    +0.024 C 
ATOM     12  C   UNL     1      10.703   8.881  15.985  0.00  0.00    +0.024 C 
ENDBRANCH   1   9
ENDBRANCH  10   5
BRANCH  17  19
ATOM      4  N   UNL     1      21.839   5.163  20.680  0.00  0.00    -0.191 NA
ATOM     19  C   UNL     1      20.798   5.677  20.655  0.00  0.00    +0.099 C 
ENDBRANCH  17  19
TORSDOF 3
ENDMDL
MODEL 2
REMARK VINA RESULT:      -6.2     12.974     16.699
REMARK  Name = 45784328
REMARK  5 active torsions:
REMARK  status: ('A' for Active; 'I' for Inactive)
REMARK    1  A    between atoms: N_1  and  C_9
REMARK    2  A    between atoms: C_5  and  C_10
REMARK    3  A    between atoms: C_9  and  C_11
REMARK    4  A    between atoms: C_9  and  C_12
REMARK    5  A    between atoms: C_17  and  C_19
REMARK                            x       y       z     vdW  Elec       q    Type
REMARK                         _______ _______ _______ _____ _____    ______ ____
ROOT
ATOM      2  N   UNL     1      10.358   4.518   4.770  0.00  0.00    -0.342 N 
ATOM      3  N   UNL     1       9.504   6.524   4.339  0.00  0.00    -0.232 NA
ATOM     10  C   UNL     1      10.043   5.446   3.817  0.00  0.00    +0.113 A 
ATOM     13  C   UNL     1       9.998   5.031   5.989  0.00  0.00    +0.067 A 
ATOM     14  C   UNL     1       9.466   6.284   5.694  0.00  0.00    +0.089 A 
ATOM     15  C   UNL     1      10.086   4.524   7.286  0.00  0.00    +0.046 A 
ATOM     16  C   UNL     1       8.992   7.091   6.741  0.00  0.00    +0.031 A 
ATOM     17  C   UNL     1       9.610   5.341   8.316  0.00  0.00    +0.054 A 
ATOM     18  C   UNL     1       9.071   6.602   8.051  0.00  0.00    +0.021 A 
ATOM     20  H   UNL     1      10.781   3.614   4.610  0.00  0.00    +0.167 HD
ENDROOT
BRANCH  10   5
ATOM      1  N   UNL     1      11.868   4.227   0.883  0.00  0.00    -0.299 NA
ATOM      5  C   UNL     1      10.314   5.190   2.352  0.00  0.00    +0.070 C 
ATOM      6  C   UNL     1      11.133   3.915   2.110  0.00  0.00    +0.096 C 
ATOM      7  C   UNL     1      11.102   6.300   1.637  0.00  0.00    +0.028 C 
ATOM      8  C   UNL     1      12.328   5.604   1.058  0.00  0.00    +0.085 C 
BRANCH   1   9
ATOM      9  C   UNL     1      12.966   3.302   0.641  0.00  0.00    +0.050 C 
ATOM     11  C   UNL     1      13.485   3.492  -0.781  0.00  0.00    +0.024 C 
ATOM     12  C   UNL     1      14.077   3.521   1.664  0.00  0.00    +0.024 C 
ENDBRANCH   1   9
ENDBRANCH  10   5
BRANCH  17  19
ATOM      4  N   UNL     1       9.729   4.494  10.762  0.00  0.00    -0.191 NA
ATOM     19  C   UNL     1       9.675   4.874   9.666  0.00  0.00    +0.099 C 
ENDBRANCH  17  19
TORSDOF 3
ENDMDL
MODEL 3
REMARK VINA RESULT:      -6.1      1.691      2.766
REMARK  Name = 45784328
REMARK  5 active torsions:
REMARK  status: ('A' for Active; 'I' for Inactive)
REMARK    1  A    between atoms: N_1  and  C_9
REMARK    2  A    between atoms: C_5  and  C_10
REMARK    3  A    between atoms: C_9  and  C_11
REMARK    4  A    between atoms: C_9  and  C_12
REMARK    5  A    between atoms: C_17  and  C_19
REMARK                            x       y       z     vdW  Elec       q    Type
REMARK                         _______ _______ _______ _____ _____    ______ ____
ROOT
ATOM      2  N   UNL     1      16.180   7.023  19.766  0.00  0.00    -0.342 N 
ATOM      3  N   UNL     1      16.466   8.895  20.930  0.00  0.00    -0.232 NA
ATOM     10  C   UNL     1      15.628   8.197  20.196  0.00  0.00    +0.113 A 
ATOM     13  C   UNL     1      17.460   6.957  20.256  0.00  0.00    +0.067 A 
ATOM     14  C   UNL     1      17.613   8.137  20.979  0.00  0.00    +0.089 A 
ATOM     15  C   UNL     1      18.464   5.997  20.133  0.00  0.00    +0.046 A 
ATOM     16  C   UNL     1      18.836   8.391  21.624  0.00  0.00    +0.031 A 
ATOM     17  C   UNL     1      19.674   6.266  20.781  0.00  0.00    +0.054 A 
ATOM     18  C   UNL     1      19.859   7.440  21.514  0.00  0.00    +0.021 A 
ATOM     20  H   UNL     1      15.730   6.324  19.190  0.00  0.00    +0.167 HD
ENDROOT
BRANCH  10   5
ATOM      1  N   UNL     1      11.967   8.087  20.286  0.00  0.00    -0.299 NA
ATOM      5  C   UNL     1      14.213   8.580  19.828  0.00  0.00    +0.070 C 
ATOM      6  C   UNL     1      13.221   8.383  20.982  0.00  0.00    +0.096 C 
ATOM      7  C   UNL     1      13.612   7.784  18.657  0.00  0.00    +0.028 C 
ATOM      8  C   UNL     1      12.339   7.162  19.216  0.00  0.00    +0.085 C 
BRANCH   1   9
ATOM      9  C   UNL     1      10.957   7.529  21.174  0.00  0.00    +0.050 C 
ATOM     11  C   UNL     1      11.309   6.080  21.495  0.00  0.00    +0.024 C 
ATOM     12  C   UNL     1      10.854   8.363  22.448  0.00  0.00    +0.024 C 
ENDBRANCH   1   9
ENDBRANCH  10   5
BRANCH  17  19
ATOM      4  N   UNL     1      21.608   4.549  20.617  0.00  0.00    -0.191 NA
ATOM     19  C   UNL     1      20.741   5.318  20.691  0.00  0.00    +0.099 C 
ENDBRANCH  17  19
TORSDOF 3
ENDMDL
MODEL 4
REMARK VINA RESULT:      -6.0      2.292      3.601
REMARK  Name = 45784328
REMARK  5 active torsions:
REMARK  status: ('A' for Active; 'I' for Inactive)
REMARK    1  A    between atoms: N_1  and  C_9
REMARK    2  A    between atoms: C_5  and  C_10
REMARK    3  A    between atoms: C_9  and  C_11
REMARK    4  A    between atoms: C_9  and  C_12
REMARK    5  A    between atoms: C_17  and  C_19
REMARK                            x       y       z     vdW  Elec       q    Type
REMARK                         _______ _______ _______ _____ _____    ______ ____
ROOT
ATOM      2  N   UNL     1      14.927   7.917  21.114  0.00  0.00    -0.342 N 
ATOM      3  N   UNL     1      14.411   6.788  19.269  0.00  0.00    -0.232 NA
ATOM     10  C   UNL     1      13.953   7.574  20.217  0.00  0.00    +0.113 A 
ATOM     13  C   UNL     1      16.092   7.311  20.717  0.00  0.00    +0.067 A 
ATOM     14  C   UNL     1      15.744   6.613  19.564  0.00  0.00    +0.089 A 
ATOM     15  C   UNL     1      17.381   7.315  21.251  0.00  0.00    +0.046 A 
ATOM     16  C   UNL     1      16.727   5.869  18.891  0.00  0.00    +0.031 A 
ATOM     17  C   UNL     1      18.347   6.568  20.568  0.00  0.00    +0.054 A 
ATOM     18  C   UNL     1      18.028   5.857  19.409  0.00  0.00    +0.021 A 
ATOM     20  H   UNL     1      14.814   8.509  21.925  0.00  0.00    +0.167 HD
ENDROOT
BRANCH  10   5
ATOM      1  N   UNL     1      11.240   9.708  21.449  0.00  0.00    -0.299 NA
ATOM      5  C   UNL     1      12.537   8.080  20.367  0.00  0.00    +0.070 C 
ATOM      6  C   UNL     1      12.467   9.585  20.659  0.00  0.00    +0.096 C 
ATOM      7  C   UNL     1      11.733   7.426  21.503  0.00  0.00    +0.028 C 
ATOM      8  C   UNL     1      11.280   8.583  22.385  0.00  0.00    +0.085 C 
BRANCH   1   9
ATOM      9  C   UNL     1      11.143  10.991  22.130  0.00  0.00    +0.050 C 
ATOM     11  C   UNL     1      11.268  10.776  23.636  0.00  0.00    +0.024 C 
ATOM     12  C   UNL     1      12.221  11.943  21.620  0.00  0.00    +0.024 C 
ENDBRANCH   1   9
ENDBRANCH  10   5
BRANCH  17  19
ATOM      4  N   UNL     1      20.774   6.505  21.474  0.00  0.00    -0.191 NA
ATOM     19  C   UNL     1      19.686   6.533  21.068  0.00  0.00    +0.099 C 
ENDBRANCH  17  19
TORSDOF 3
ENDMDL
MODEL 5
REMARK VINA RESULT:      -5.9      5.311      8.334
REMARK  Name = 45784328
REMARK  5 active torsions:
REMARK  status: ('A' for Active; 'I' for Inactive)
REMARK    1  A    between atoms: N_1  and  C_9
REMARK    2  A    between atoms: C_5  and  C_10
REMARK    3  A    between atoms: C_9  and  C_11
REMARK    4  A    between atoms: C_9  and  C_12
REMARK    5  A    between atoms: C_17  and  C_19
REMARK                            x       y       z     vdW  Elec       q    Type
REMARK                         _______ _______ _______ _____ _____    ______ ____
ROOT
ATOM      2  N   UNL     1      11.449   9.993  23.857  0.00  0.00    -0.342 N 
ATOM      3  N   UNL     1      11.208  10.866  21.828  0.00  0.00    -0.232 NA
ATOM     10  C   UNL     1      11.422   9.764  22.510  0.00  0.00    +0.113 A 
ATOM     13  C   UNL     1      11.239  11.333  24.059  0.00  0.00    +0.067 A 
ATOM     14  C   UNL     1      11.091  11.856  22.777  0.00  0.00    +0.089 A 
ATOM     15  C   UNL     1      11.166  12.109  25.216  0.00  0.00    +0.046 A 
ATOM     16  C   UNL     1      10.856  13.232  22.622  0.00  0.00    +0.031 A 
ATOM     17  C   UNL     1      10.933  13.477  25.043  0.00  0.00    +0.054 A 
ATOM     18  C   UNL     1      10.780  14.031  23.770  0.00  0.00    +0.021 A 
ATOM     20  H   UNL     1      11.598   9.301  24.580  0.00  0.00    +0.167 HD
ENDROOT
BRANCH  10   5
ATOM      1  N   UNL     1      13.022   7.114  20.549  0.00  0.00    -0.299 NA
ATOM      5  C   UNL     1      11.623   8.376  21.946  0.00  0.00    +0.070 C 
ATOM      6  C   UNL     1      13.098   8.050  21.673  0.00  0.00    +0.096 C 
ATOM      7  C   UNL     1      10.912   8.113  20.607  0.00  0.00    +0.028 C 
ATOM      8  C   UNL     1      12.018   7.684  19.651  0.00  0.00    +0.085 C 
BRANCH   1   9
ATOM      9  C   UNL     1      14.309   6.926  19.894  0.00  0.00    +0.050 C 
ATOM     11  C   UNL     1      14.696   8.208  19.163  0.00  0.00    +0.024 C 
ATOM     12  C   UNL     1      15.371   6.536  20.917  0.00  0.00    +0.024 C 
ENDBRANCH   1   9
ENDBRANCH  10   5
BRANCH  17  19
ATOM      4  N   UNL     1      10.781  15.010  27.126  0.00  0.00    -0.191 NA
ATOM     19  C   UNL     1      10.849  14.323  26.193  0.00  0.00    +0.099 C 
ENDBRANCH  17  19
TORSDOF 3
ENDMDL
MODEL 6
REMARK VINA RESULT:      -5.9      2.197      3.343
REMARK  Name = 45784328
REMARK  5 active torsions:
REMARK  status: ('A' for Active; 'I' for Inactive)
REMARK    1  A    between atoms: N_1  and  C_9
REMARK    2  A    between atoms: C_5  and  C_10
REMARK    3  A    between atoms: C_9  and  C_11
REMARK    4  A    between atoms: C_9  and  C_12
REMARK    5  A    between atoms: C_17  and  C_19
REMARK                            x       y       z     vdW  Elec       q    Type
REMARK                         _______ _______ _______ _____ _____    ______ ____
ROOT
ATOM      2  N   UNL     1      17.206   7.630  21.520  0.00  0.00    -0.342 N 
ATOM      3  N   UNL     1      17.007   6.444  19.651  0.00  0.00    -0.232 NA
ATOM     10  C   UNL     1      16.432   7.328  20.434  0.00  0.00    +0.113 A 
ATOM     13  C   UNL     1      18.358   6.890  21.432  0.00  0.00    +0.067 A 
ATOM     14  C   UNL     1      18.209   6.159  20.256  0.00  0.00    +0.089 A 
ATOM     15  C   UNL     1      19.483   6.802  22.252  0.00  0.00    +0.046 A 
ATOM     16  C   UNL     1      19.233   5.283  19.861  0.00  0.00    +0.031 A 
ATOM     17  C   UNL     1      20.492   5.924  21.844  0.00  0.00    +0.054 A 
ATOM     18  C   UNL     1      20.372   5.177  20.670  0.00  0.00    +0.021 A 
ATOM     20  H   UNL     1      16.975   8.280  22.259  0.00  0.00    +0.167 HD
ENDROOT
BRANCH  10   5
ATOM      1  N   UNL     1      12.836   7.863  20.890  0.00  0.00    -0.299 NA
ATOM      5  C   UNL     1      15.083   7.978  20.228  0.00  0.00    +0.070 C 
ATOM      6  C   UNL     1      14.181   7.888  21.467  0.00  0.00    +0.096 C 
ATOM      7  C   UNL     1      14.242   7.375  19.090  0.00  0.00    +0.028 C 
ATOM      8  C   UNL     1      12.933   6.955  19.747  0.00  0.00    +0.085 C 
BRANCH   1   9
ATOM      9  C   UNL     1      11.826   7.439  21.849  0.00  0.00    +0.050 C 
ATOM     11  C   UNL     1      10.694   8.462  21.878  0.00  0.00    +0.024 C 
ATOM     12  C   UNL     1      11.304   6.052  21.490  0.00  0.00    +0.024 C 
ENDBRANCH   1   9
ENDBRANCH  10   5
BRANCH  17  19
ATOM      4  N   UNL     1      22.624   5.681  23.296  0.00  0.00    -0.191 NA
ATOM     19  C   UNL     1      21.669   5.790  22.645  0.00  0.00    +0.099 C 
ENDBRANCH  17  19
TORSDOF 3
ENDMDL
MODEL 7
REMARK VINA RESULT:      -5.9      2.601      8.163
REMARK  Name = 45784328
REMARK  5 active torsions:
REMARK  status: ('A' for Active; 'I' for Inactive)
REMARK    1  A    between atoms: N_1  and  C_9
REMARK    2  A    between atoms: C_5  and  C_10
REMARK    3  A    between atoms: C_9  and  C_11
REMARK    4  A    between atoms: C_9  and  C_12
REMARK    5  A    between atoms: C_17  and  C_19
REMARK                            x       y       z     vdW  Elec       q    Type
REMARK                         _______ _______ _______ _____ _____    ______ ____
ROOT
ATOM      2  N   UNL     1      17.956   6.840  21.606  0.00  0.00    -0.342 N 
ATOM      3  N   UNL     1      18.030   6.248  19.465  0.00  0.00    -0.232 NA
ATOM     10  C   UNL     1      18.733   6.421  20.562  0.00  0.00    +0.113 A 
ATOM     13  C   UNL     1      16.666   6.945  21.153  0.00  0.00    +0.067 A 
ATOM     14  C   UNL     1      16.738   6.569  19.814  0.00  0.00    +0.089 A 
ATOM     15  C   UNL     1      15.478   7.322  21.780  0.00  0.00    +0.046 A 
ATOM     16  C   UNL     1      15.566   6.564  19.040  0.00  0.00    +0.031 A 
ATOM     17  C   UNL     1      14.321   7.313  20.994  0.00  0.00    +0.054 A 
ATOM     18  C   UNL     1      14.361   6.940  19.648  0.00  0.00    +0.021 A 
ATOM     20  H   UNL     1      18.272   7.040  22.545  0.00  0.00    +0.167 HD
ENDROOT
BRANCH  10   5
ATOM      1  N   UNL     1      21.808   4.646  21.466  0.00  0.00    -0.299 NA
ATOM      5  C   UNL     1      20.219   6.205  20.727  0.00  0.00    +0.070 C 
ATOM      6  C   UNL     1      20.626   4.730  20.605  0.00  0.00    +0.096 C 
ATOM      7  C   UNL     1      20.792   6.656  22.081  0.00  0.00    +0.028 C 
ATOM      8  C   UNL     1      21.460   5.416  22.660  0.00  0.00    +0.085 C 
BRANCH   1   9
ATOM      9  C   UNL     1      22.171   3.271  21.779  0.00  0.00    +0.050 C 
ATOM     11  C   UNL     1      23.326   2.835  20.882  0.00  0.00    +0.024 C 
ATOM     12  C   UNL     1      22.544   3.146  23.253  0.00  0.00    +0.024 C 
ENDBRANCH   1   9
ENDBRANCH  10   5
BRANCH  17  19
ATOM      4  N   UNL     1      12.061   7.998  22.059  0.00  0.00    -0.191 NA
ATOM     19  C   UNL     1      13.074   7.691  21.581  0.00  0.00    +0.099 C 
ENDBRANCH  17  19
TORSDOF 3
ENDMDL
MODEL 8
REMARK VINA RESULT:      -5.7      5.138      6.709
REMARK  Name = 45784328
REMARK  5 active torsions:
REMARK  status: ('A' for Active; 'I' for Inactive)
REMARK    1  A    between atoms: N_1  and  C_9
REMARK    2  A    between atoms: C_5  and  C_10
REMARK    3  A    between atoms: C_9  and  C_11
REMARK    4  A    between atoms: C_9  and  C_12
REMARK    5  A    between atoms: C_17  and  C_19
REMARK                            x       y       z     vdW  Elec       q    Type
REMARK                         _______ _______ _______ _____ _____    ______ ____
ROOT
ATOM      2  N   UNL     1      12.460   9.937  19.217  0.00  0.00    -0.342 N 
ATOM      3  N   UNL     1      11.598   7.889  19.149  0.00  0.00    -0.232 NA
ATOM     10  C   UNL     1      12.270   8.800  18.482  0.00  0.00    +0.113 A 
ATOM     13  C   UNL     1      11.871   9.747  20.441  0.00  0.00    +0.067 A 
ATOM     14  C   UNL     1      11.341   8.462  20.374  0.00  0.00    +0.089 A 
ATOM     15  C   UNL     1      11.761  10.564  21.568  0.00  0.00    +0.046 A 
ATOM     16  C   UNL     1      10.656   7.944  21.487  0.00  0.00    +0.031 A 
ATOM     17  C   UNL     1      11.076  10.033  22.665  0.00  0.00    +0.054 A 
ATOM     18  C   UNL     1      10.533   8.747  22.629  0.00  0.00    +0.021 A 
ATOM     20  H   UNL     1      12.946  10.771  18.917  0.00  0.00    +0.167 HD
ENDROOT
BRANCH  10   5
ATOM      1  N   UNL     1      13.940   9.865  15.399  0.00  0.00    -0.299 NA
ATOM      5  C   UNL     1      12.801   8.680  17.072  0.00  0.00    +0.070 C 
ATOM      6  C   UNL     1      14.042   9.547  16.825  0.00  0.00    +0.096 C 
ATOM      7  C   UNL     1      11.810   9.095  15.971  0.00  0.00    +0.028 C 
ATOM      8  C   UNL     1      12.528  10.186  15.185  0.00  0.00    +0.085 C 
BRANCH   1   9
ATOM      9  C   UNL     1      14.821  10.956  15.007  0.00  0.00    +0.050 C 
ATOM     11  C   UNL     1      14.023  11.995  14.225  0.00  0.00    +0.024 C 
ATOM     12  C   UNL     1      15.472  11.578  16.239  0.00  0.00    +0.024 C 
ENDBRANCH   1   9
ENDBRANCH  10   5
BRANCH  17  19
ATOM      4  N   UNL     1      10.814  11.465  24.808  0.00  0.00    -0.191 NA
ATOM     19  C   UNL     1      10.932  10.824  23.848  0.00  0.00    +0.099 C 
ENDBRANCH  17  19
TORSDOF 3
ENDMDL
MODEL 9
REMARK VINA RESULT:      -5.7     26.577     28.225
REMARK  Name = 45784328
REMARK  5 active torsions:
REMARK  status: ('A' for Active; 'I' for Inactive)
REMARK    1  A    between atoms: N_1  and  C_9
REMARK    2  A    between atoms: C_5  and  C_10
REMARK    3  A    between atoms: C_9  and  C_11
REMARK    4  A    between atoms: C_9  and  C_12
REMARK    5  A    between atoms: C_17  and  C_19
REMARK                            x       y       z     vdW  Elec       q    Type
REMARK                         _______ _______ _______ _____ _____    ______ ____
ROOT
ATOM      2  N   UNL     1      -4.801 -10.565  15.680  0.00  0.00    -0.342 N 
ATOM      3  N   UNL     1      -3.075 -11.278  16.887  0.00  0.00    -0.232 NA
ATOM     10  C   UNL     1      -3.463 -10.845  15.708  0.00  0.00    +0.113 A 
ATOM     13  C   UNL     1      -5.311 -10.835  16.924  0.00  0.00    +0.067 A 
ATOM     14  C   UNL     1      -4.214 -11.278  17.659  0.00  0.00    +0.089 A 
ATOM     15  C   UNL     1      -6.597 -10.731  17.455  0.00  0.00    +0.046 A 
ATOM     16  C   UNL     1      -4.393 -11.644  19.003  0.00  0.00    +0.031 A 
ATOM     17  C   UNL     1      -6.758 -11.101  18.794  0.00  0.00    +0.054 A 
ATOM     18  C   UNL     1      -5.677 -11.549  19.557  0.00  0.00    +0.021 A 
ATOM     20  H   UNL     1      -5.325 -10.221  14.887  0.00  0.00    +0.167 HD
ENDROOT
BRANCH  10   5
ATOM      1  N   UNL     1      -2.550 -10.972  12.162  0.00  0.00    -0.299 NA
ATOM      5  C   UNL     1      -2.596 -10.655  14.485  0.00  0.00    +0.070 C 
ATOM      6  C   UNL     1      -3.410 -10.413  13.207  0.00  0.00    +0.096 C 
ATOM      7  C   UNL     1      -1.685 -11.847  14.146  0.00  0.00    +0.028 C 
ATOM      8  C   UNL     1      -2.050 -12.229  12.717  0.00  0.00    +0.085 C 
BRANCH   1   9
ATOM      9  C   UNL     1      -3.257 -11.165  10.903  0.00  0.00    +0.050 C 
ATOM     11  C   UNL     1      -4.615 -11.805  11.179  0.00  0.00    +0.024 C 
ATOM     12  C   UNL     1      -3.416  -9.833  10.176  0.00  0.00    +0.024 C 
ENDBRANCH   1   9
ENDBRANCH  10   5
BRANCH  17  19
ATOM      4  N   UNL     1      -9.106 -10.948  19.878  0.00  0.00    -0.191 NA
ATOM     19  C   UNL     1      -8.054 -11.017  19.392  0.00  0.00    +0.099 C 
ENDBRANCH  17  19
TORSDOF 3
ENDMDL
MODEL 10
REMARK VINA RESULT:      -5.7     30.621     32.924
REMARK  Name = 45784328
REMARK  5 active torsions:
REMARK  status: ('A' for Active; 'I' for Inactive)
REMARK    1  A    between atoms: N_1  and  C_9
REMARK    2  A    between atoms: C_5  and  C_10
REMARK    3  A    between atoms: C_9  and  C_11
REMARK    4  A    between atoms: C_9  and  C_12
REMARK    5  A    between atoms: C_17  and  C_19
REMARK                            x       y       z     vdW  Elec       q    Type
REMARK                         _______ _______ _______ _____ _____    ______ ____
ROOT
ATOM      2  N   UNL     1     -14.364   4.945  31.857  0.00  0.00    -0.342 N 
ATOM      3  N   UNL     1     -14.723   4.373  33.975  0.00  0.00    -0.232 NA
ATOM     10  C   UNL     1     -14.536   5.373  33.145  0.00  0.00    +0.113 A 
ATOM     13  C   UNL     1     -14.447   3.576  31.857  0.00  0.00    +0.067 A 
ATOM     14  C   UNL     1     -14.672   3.243  33.191  0.00  0.00    +0.089 A 
ATOM     15  C   UNL     1     -14.349   2.629  30.838  0.00  0.00    +0.046 A 
ATOM     16  C   UNL     1     -14.809   1.891  33.545  0.00  0.00    +0.031 A 
ATOM     17  C   UNL     1     -14.487   1.288  31.209  0.00  0.00    +0.054 A 
ATOM     18  C   UNL     1     -14.714   0.922  32.538  0.00  0.00    +0.021 A 
ATOM     20  H   UNL     1     -14.204   5.528  31.048  0.00  0.00    +0.167 HD
ENDROOT
BRANCH  10   5
ATOM      1  N   UNL     1     -13.412   8.857  32.981  0.00  0.00    -0.299 NA
ATOM      5  C   UNL     1     -14.500   6.843  33.493  0.00  0.00    +0.070 C 
ATOM      6  C   UNL     1     -14.063   7.726  32.316  0.00  0.00    +0.096 C 
ATOM      7  C   UNL     1     -13.539   7.214  34.635  0.00  0.00    +0.028 C 
ATOM      8  C   UNL     1     -12.600   8.256  34.040  0.00  0.00    +0.085 C 
BRANCH   1   9
ATOM      9  C   UNL     1     -12.618   9.660  32.062  0.00  0.00    +0.050 C 
ATOM     11  C   UNL     1     -11.355   8.893  31.681  0.00  0.00    +0.024 C 
ATOM     12  C   UNL     1     -13.438  10.016  30.826  0.00  0.00    +0.024 C 
ENDBRANCH   1   9
ENDBRANCH  10   5
BRANCH  17  19
ATOM      4  N   UNL     1     -14.320  -0.553  29.393  0.00  0.00    -0.191 NA
ATOM     19  C   UNL     1     -14.395   0.272  30.206  0.00  0.00    +0.099 C 
ENDBRANCH  17  19
TORSDOF 3
ENDMDL
