MODEL 1
REMARK VINA RESULT:      -6.7      0.000      0.000
REMARK  Name = 45784207
REMARK  4 active torsions:
REMARK  status: ('A' for Active; 'I' for Inactive)
REMARK    1  A    between atoms: N_4  and  C_11
REMARK    2  A    between atoms: N_6  and  C_16
REMARK    3  A    between atoms: C_7  and  C_12
REMARK    4  A    between atoms: C_11  and  C_13
REMARK                            x       y       z     vdW  Elec       q    Type
REMARK                         _______ _______ _______ _____ _____    ______ ____
ROOT
ATOM      4  N   UNL     1      15.532   7.478  20.914  0.00  0.00    -0.297 NA
ATOM      7  C   UNL     1      17.762   7.057  20.322  0.00  0.00    +0.090 C 
ATOM      8  C   UNL     1      16.824   6.312  19.357  0.00  0.00    +0.029 C 
ATOM      9  C   UNL     1      16.869   7.444  21.509  0.00  0.00    +0.097 C 
ATOM     10  C   UNL     1      15.471   6.294  20.056  0.00  0.00    +0.085 C 
ENDROOT
BRANCH   7  12
ATOM      1  O   UNL     1      19.635   6.740  21.849  0.00  0.00    -0.439 OA
ATOM      5  N   UNL     1      19.522   5.225  20.167  0.00  0.00    -0.213 NA
ATOM     12  C   UNL     1      18.991   6.283  20.739  0.00  0.00    +0.201 A 
ATOM     14  C   UNL     1      20.682   5.875  21.990  0.00  0.00    +0.155 A 
ATOM     15  C   UNL     1      20.610   4.949  20.959  0.00  0.00    +0.110 A 
ATOM     18  C   UNL     1      21.662   5.887  22.976  0.00  0.00    +0.048 A 
ATOM     19  C   UNL     1      21.584   3.943  20.882  0.00  0.00    +0.031 A 
ATOM     23  C   UNL     1      22.626   4.877  22.884  0.00  0.00    +0.004 A 
ATOM     24  C   UNL     1      22.590   3.924  21.860  0.00  0.00    +0.002 A 
ENDBRANCH   7  12
BRANCH   4  11
ATOM     11  C   UNL     1      14.476   7.490  21.916  0.00  0.00    +0.121 C 
BRANCH  11  13
ATOM     13  C   UNL     1      13.473   8.582  21.662  0.00  0.00    -0.003 A 
ATOM     16  C   UNL     1      12.226   8.307  21.103  0.00  0.00    +0.131 A 
ATOM     17  C   UNL     1      13.813   9.893  21.997  0.00  0.00    +0.007 A 
ATOM     20  C   UNL     1      11.317   9.341  20.878  0.00  0.00    +0.033 A 
ATOM     21  C   UNL     1      12.904  10.928  21.772  0.00  0.00    +0.000 A 
ATOM     22  C   UNL     1      11.657  10.652  21.213  0.00  0.00    +0.002 A 
BRANCH  16   6
ATOM      2  O   UNL     1      11.369   6.233  21.637  0.00  0.00    -0.126 OA
ATOM      3  O   UNL     1      12.035   6.588  19.576  0.00  0.00    -0.126 OA
ATOM      6  N   UNL     1      11.858   6.977  20.754  0.00  0.00    +0.057 N 
ENDBRANCH  16   6
ENDBRANCH  11  13
ENDBRANCH   4  11
TORSDOF 4
ENDMDL
MODEL 2
REMARK VINA RESULT:      -6.4     17.962     20.488
REMARK  Name = 45784207
REMARK  4 active torsions:
REMARK  status: ('A' for Active; 'I' for Inactive)
REMARK    1  A    between atoms: N_4  and  C_11
REMARK    2  A    between atoms: N_6  and  C_16
REMARK    3  A    between atoms: C_7  and  C_12
REMARK    4  A    between atoms: C_11  and  C_13
REMARK                            x       y       z     vdW  Elec       q    Type
REMARK                         _______ _______ _______ _____ _____    ______ ____
ROOT
ATOM      4  N   UNL     1      11.711   4.440   1.610  0.00  0.00    -0.297 NA
ATOM      7  C   UNL     1      10.224   5.172   3.269  0.00  0.00    +0.090 C 
ATOM      8  C   UNL     1      11.017   6.371   2.724  0.00  0.00    +0.029 C 
ATOM      9  C   UNL     1      11.006   3.941   2.792  0.00  0.00    +0.097 C 
ATOM     10  C   UNL     1      12.209   5.760   1.999  0.00  0.00    +0.085 C 
ENDROOT
BRANCH   7  12
ATOM      1  O   UNL     1       9.602   6.373   5.297  0.00  0.00    -0.439 OA
ATOM      5  N   UNL     1      10.143   4.196   5.619  0.00  0.00    -0.213 NA
ATOM     12  C   UNL     1      10.000   5.185   4.764  0.00  0.00    +0.201 A 
ATOM     14  C   UNL     1       9.480   6.102   6.629  0.00  0.00    +0.155 A 
ATOM     15  C   UNL     1       9.811   4.769   6.823  0.00  0.00    +0.110 A 
ATOM     18  C   UNL     1       9.095   6.977   7.638  0.00  0.00    +0.048 A 
ATOM     19  C   UNL     1       9.764   4.240   8.121  0.00  0.00    +0.031 A 
ATOM     23  C   UNL     1       9.053   6.433   8.927  0.00  0.00    +0.004 A 
ATOM     24  C   UNL     1       9.379   5.093   9.166  0.00  0.00    +0.002 A 
ENDBRANCH   7  12
BRANCH   4  11
ATOM     11  C   UNL     1      12.780   3.549   1.183  0.00  0.00    +0.121 C 
BRANCH  11  13
ATOM     13  C   UNL     1      13.072   3.688  -0.287  0.00  0.00    -0.003 A 
ATOM     16  C   UNL     1      14.307   4.149  -0.741  0.00  0.00    +0.131 A 
ATOM     17  C   UNL     1      12.076   3.346  -1.202  0.00  0.00    +0.007 A 
ATOM     20  C   UNL     1      14.548   4.267  -2.110  0.00  0.00    +0.033 A 
ATOM     21  C   UNL     1      12.316   3.464  -2.571  0.00  0.00    +0.000 A 
ATOM     22  C   UNL     1      13.552   3.925  -3.025  0.00  0.00    +0.002 A 
BRANCH  16   6
ATOM      2  O   UNL     1      15.433   5.697   0.545  0.00  0.00    -0.126 OA
ATOM      3  O   UNL     1      16.119   3.612   0.581  0.00  0.00    -0.126 OA
ATOM      6  N   UNL     1      15.337   4.503   0.174  0.00  0.00    +0.057 N 
ENDBRANCH  16   6
ENDBRANCH  11  13
ENDBRANCH   4  11
TORSDOF 4
ENDMDL
MODEL 3
REMARK VINA RESULT:      -6.4     27.004     29.925
REMARK  Name = 45784207
REMARK  4 active torsions:
REMARK  status: ('A' for Active; 'I' for Inactive)
REMARK    1  A    between atoms: N_4  and  C_11
REMARK    2  A    between atoms: N_6  and  C_16
REMARK    3  A    between atoms: C_7  and  C_12
REMARK    4  A    between atoms: C_11  and  C_13
REMARK                            x       y       z     vdW  Elec       q    Type
REMARK                         _______ _______ _______ _____ _____    ______ ____
ROOT
ATOM      4  N   UNL     1      -4.858 -10.558  15.014  0.00  0.00    -0.297 NA
ATOM      7  C   UNL     1      -6.269  -9.498  16.559  0.00  0.00    +0.090 C 
ATOM      8  C   UNL     1      -5.206 -10.317  17.310  0.00  0.00    +0.029 C 
ATOM      9  C   UNL     1      -6.217 -10.025  15.118  0.00  0.00    +0.097 C 
ATOM     10  C   UNL     1      -4.636 -11.273  16.271  0.00  0.00    +0.085 C 
ENDROOT
BRANCH   7  12
ATOM      1  O   UNL     1      -7.814 -10.401  18.212  0.00  0.00    -0.439 OA
ATOM      5  N   UNL     1      -8.730  -8.892  16.791  0.00  0.00    -0.213 NA
ATOM     12  C   UNL     1      -7.655  -9.554  17.157  0.00  0.00    +0.201 A 
ATOM     14  C   UNL     1      -9.130 -10.255  18.545  0.00  0.00    +0.155 A 
ATOM     15  C   UNL     1      -9.688  -9.331  17.673  0.00  0.00    +0.110 A 
ATOM     18  C   UNL     1      -9.821 -10.898  19.565  0.00  0.00    +0.048 A 
ATOM     19  C   UNL     1     -11.045  -9.004  17.809  0.00  0.00    +0.031 A 
ATOM     23  C   UNL     1     -11.173 -10.560  19.687  0.00  0.00    +0.004 A 
ATOM     24  C   UNL     1     -11.775  -9.632  18.828  0.00  0.00    +0.002 A 
ENDBRANCH   7  12
BRANCH   4  11
ATOM     11  C   UNL     1      -4.684 -11.415  13.850  0.00  0.00    +0.121 C 
BRANCH  11  13
ATOM     13  C   UNL     1      -3.884 -10.739  12.770  0.00  0.00    -0.003 A 
ATOM     16  C   UNL     1      -2.490 -10.731  12.796  0.00  0.00    +0.131 A 
ATOM     17  C   UNL     1      -4.565 -10.112  11.726  0.00  0.00    +0.007 A 
ATOM     20  C   UNL     1      -1.776 -10.095  11.780  0.00  0.00    +0.033 A 
ATOM     21  C   UNL     1      -3.851  -9.476  10.710  0.00  0.00    +0.000 A 
ATOM     22  C   UNL     1      -2.457  -9.468  10.737  0.00  0.00    +0.002 A 
BRANCH  16   6
ATOM      2  O   UNL     1      -1.421 -10.680  14.839  0.00  0.00    -0.126 OA
ATOM      3  O   UNL     1      -1.518 -12.589  13.759  0.00  0.00    -0.126 OA
ATOM      6  N   UNL     1      -1.775 -11.365  13.850  0.00  0.00    +0.057 N 
ENDBRANCH  16   6
ENDBRANCH  11  13
ENDBRANCH   4  11
TORSDOF 4
ENDMDL
MODEL 4
REMARK VINA RESULT:      -6.4     17.807     19.870
REMARK  Name = 45784207
REMARK  4 active torsions:
REMARK  status: ('A' for Active; 'I' for Inactive)
REMARK    1  A    between atoms: N_4  and  C_11
REMARK    2  A    between atoms: N_6  and  C_16
REMARK    3  A    between atoms: C_7  and  C_12
REMARK    4  A    between atoms: C_11  and  C_13
REMARK                            x       y       z     vdW  Elec       q    Type
REMARK                         _______ _______ _______ _____ _____    ______ ____
ROOT
ATOM      4  N   UNL     1      10.722   5.380   4.243  0.00  0.00    -0.297 NA
ATOM      7  C   UNL     1      11.997   4.553   2.457  0.00  0.00    +0.090 C 
ATOM      8  C   UNL     1      12.373   6.021   2.722  0.00  0.00    +0.029 C 
ATOM      9  C   UNL     1      10.670   4.353   3.201  0.00  0.00    +0.097 C 
ATOM     10  C   UNL     1      11.235   6.573   3.571  0.00  0.00    +0.085 C 
ENDROOT
BRANCH   7  12
ATOM      1  O   UNL     1      10.907   4.747   0.286  0.00  0.00    -0.439 OA
ATOM      5  N   UNL     1      12.694   3.354   0.322  0.00  0.00    -0.213 NA
ATOM     12  C   UNL     1      11.916   4.172   0.997  0.00  0.00    +0.201 A 
ATOM     14  C   UNL     1      11.069   4.237  -0.970  0.00  0.00    +0.155 A 
ATOM     15  C   UNL     1      12.163   3.385  -0.944  0.00  0.00    +0.110 A 
ATOM     18  C   UNL     1      10.297   4.501  -2.096  0.00  0.00    +0.048 A 
ATOM     19  C   UNL     1      12.539   2.729  -2.126  0.00  0.00    +0.031 A 
ATOM     23  C   UNL     1      10.686   3.838  -3.265  0.00  0.00    +0.004 A 
ATOM     24  C   UNL     1      11.784   2.970  -3.283  0.00  0.00    +0.002 A 
ENDBRANCH   7  12
BRANCH   4  11
ATOM     11  C   UNL     1       9.425   5.608   4.864  0.00  0.00    +0.121 C 
BRANCH  11  13
ATOM     13  C   UNL     1       9.484   5.455   6.360  0.00  0.00    -0.003 A 
ATOM     16  C   UNL     1       9.275   6.540   7.210  0.00  0.00    +0.131 A 
ATOM     17  C   UNL     1       9.756   4.194   6.892  0.00  0.00    +0.007 A 
ATOM     20  C   UNL     1       9.337   6.366   8.593  0.00  0.00    +0.033 A 
ATOM     21  C   UNL     1       9.818   4.020   8.275  0.00  0.00    +0.000 A 
ATOM     22  C   UNL     1       9.609   5.105   9.125  0.00  0.00    +0.002 A 
BRANCH  16   6
ATOM      2  O   UNL     1       9.954   8.576   6.366  0.00  0.00    -0.126 OA
ATOM      3  O   UNL     1       7.802   8.195   6.568  0.00  0.00    -0.126 OA
ATOM      6  N   UNL     1       8.996   7.834   6.689  0.00  0.00    +0.057 N 
ENDBRANCH  16   6
ENDBRANCH  11  13
ENDBRANCH   4  11
TORSDOF 4
ENDMDL
MODEL 5
REMARK VINA RESULT:      -6.4     27.343     29.980
REMARK  Name = 45784207
REMARK  4 active torsions:
REMARK  status: ('A' for Active; 'I' for Inactive)
REMARK    1  A    between atoms: N_4  and  C_11
REMARK    2  A    between atoms: N_6  and  C_16
REMARK    3  A    between atoms: C_7  and  C_12
REMARK    4  A    between atoms: C_11  and  C_13
REMARK                            x       y       z     vdW  Elec       q    Type
REMARK                         _______ _______ _______ _____ _____    ______ ____
ROOT
ATOM      4  N   UNL     1      -4.677 -10.484  14.746  0.00  0.00    -0.297 NA
ATOM      7  C   UNL     1      -5.974  -9.557  16.466  0.00  0.00    +0.090 C 
ATOM      8  C   UNL     1      -4.880 -10.452  17.072  0.00  0.00    +0.029 C 
ATOM      9  C   UNL     1      -6.019  -9.950  14.983  0.00  0.00    +0.097 C 
ATOM     10  C   UNL     1      -4.389 -11.314  15.916  0.00  0.00    +0.085 C 
ENDROOT
BRANCH   7  12
ATOM      1  O   UNL     1      -7.395 -10.506  18.205  0.00  0.00    -0.439 OA
ATOM      5  N   UNL     1      -8.437  -9.029  16.838  0.00  0.00    -0.213 NA
ATOM     12  C   UNL     1      -7.322  -9.656  17.143  0.00  0.00    +0.201 A 
ATOM     14  C   UNL     1      -8.693 -10.400  18.612  0.00  0.00    +0.155 A 
ATOM     15  C   UNL     1      -9.328  -9.495  17.773  0.00  0.00    +0.110 A 
ATOM     18  C   UNL     1      -9.305 -11.062  19.670  0.00  0.00    +0.048 A 
ATOM     19  C   UNL     1     -10.685  -9.210  17.986  0.00  0.00    +0.031 A 
ATOM     23  C   UNL     1     -10.658 -10.766  19.868  0.00  0.00    +0.004 A 
ATOM     24  C   UNL     1     -11.336  -9.860  19.045  0.00  0.00    +0.002 A 
ENDBRANCH   7  12
BRANCH   4  11
ATOM     11  C   UNL     1      -4.588 -11.232  13.501  0.00  0.00    +0.121 C 
BRANCH  11  13
ATOM     13  C   UNL     1      -3.736 -10.525  12.481  0.00  0.00    -0.003 A 
ATOM     16  C   UNL     1      -4.304  -9.886  11.378  0.00  0.00    +0.131 A 
ATOM     17  C   UNL     1      -2.352 -10.517  12.655  0.00  0.00    +0.007 A 
ATOM     20  C   UNL     1      -3.488  -9.240  10.450  0.00  0.00    +0.033 A 
ATOM     21  C   UNL     1      -1.536  -9.870  11.727  0.00  0.00    +0.000 A 
ATOM     22  C   UNL     1      -2.104  -9.232  10.624  0.00  0.00    +0.002 A 
BRANCH  16   6
ATOM      2  O   UNL     1      -6.241 -10.838  10.567  0.00  0.00    -0.126 OA
ATOM      3  O   UNL     1      -6.384  -8.921  11.627  0.00  0.00    -0.126 OA
ATOM      6  N   UNL     1      -5.712  -9.881  11.181  0.00  0.00    +0.057 N 
ENDBRANCH  16   6
ENDBRANCH  11  13
ENDBRANCH   4  11
TORSDOF 4
ENDMDL
MODEL 6
REMARK VINA RESULT:      -6.4     26.834     29.000
REMARK  Name = 45784207
REMARK  4 active torsions:
REMARK  status: ('A' for Active; 'I' for Inactive)
REMARK    1  A    between atoms: N_4  and  C_11
REMARK    2  A    between atoms: N_6  and  C_16
REMARK    3  A    between atoms: C_7  and  C_12
REMARK    4  A    between atoms: C_11  and  C_13
REMARK                            x       y       z     vdW  Elec       q    Type
REMARK                         _______ _______ _______ _____ _____    ______ ____
ROOT
ATOM      4  N   UNL     1      -2.204 -11.151  13.241  0.00  0.00    -0.297 NA
ATOM      7  C   UNL     1      -2.828 -10.385  15.368  0.00  0.00    +0.090 C 
ATOM      8  C   UNL     1      -1.500 -11.154  15.467  0.00  0.00    +0.029 C 
ATOM      9  C   UNL     1      -3.399 -10.773  13.997  0.00  0.00    +0.097 C 
ATOM     10  C   UNL     1      -1.406 -11.949  14.172  0.00  0.00    +0.085 C 
ENDROOT
BRANCH   7  12
ATOM      1  O   UNL     1      -5.020 -10.054  16.382  0.00  0.00    -0.439 OA
ATOM      5  N   UNL     1      -3.608 -11.350  17.592  0.00  0.00    -0.213 NA
ATOM     12  C   UNL     1      -3.795 -10.638  16.502  0.00  0.00    +0.201 A 
ATOM     14  C   UNL     1      -5.671 -10.440  17.518  0.00  0.00    +0.155 A 
ATOM     15  C   UNL     1      -4.804 -11.233  18.256  0.00  0.00    +0.110 A 
ATOM     18  C   UNL     1      -6.969 -10.118  17.900  0.00  0.00    +0.048 A 
ATOM     19  C   UNL     1      -5.243 -11.760  19.479  0.00  0.00    +0.031 A 
ATOM     23  C   UNL     1      -7.390 -10.652  19.123  0.00  0.00    +0.004 A 
ATOM     24  C   UNL     1      -6.547 -11.456  19.898  0.00  0.00    +0.002 A 
ENDBRANCH   7  12
BRANCH   4  11
ATOM     11  C   UNL     1      -2.524 -11.878  12.022  0.00  0.00    +0.121 C 
BRANCH  11  13
ATOM     13  C   UNL     1      -3.257 -11.016  11.030  0.00  0.00    -0.003 A 
ATOM     16  C   UNL     1      -4.454 -11.434  10.449  0.00  0.00    +0.131 A 
ATOM     17  C   UNL     1      -2.715  -9.775  10.694  0.00  0.00    +0.007 A 
ATOM     20  C   UNL     1      -5.109 -10.612   9.532  0.00  0.00    +0.033 A 
ATOM     21  C   UNL     1      -3.370  -8.953   9.777  0.00  0.00    +0.000 A 
ATOM     22  C   UNL     1      -4.567  -9.371   9.196  0.00  0.00    +0.002 A 
BRANCH  16   6
ATOM      2  O   UNL     1      -4.711 -13.698  10.093  0.00  0.00    -0.126 OA
ATOM      3  O   UNL     1      -5.824 -12.767  11.740  0.00  0.00    -0.126 OA
ATOM      6  N   UNL     1      -5.024 -12.695  10.777  0.00  0.00    +0.057 N 
ENDBRANCH  16   6
ENDBRANCH  11  13
ENDBRANCH   4  11
TORSDOF 4
ENDMDL
MODEL 7
REMARK VINA RESULT:      -6.3      1.524      8.576
REMARK  Name = 45784207
REMARK  4 active torsions:
REMARK  status: ('A' for Active; 'I' for Inactive)
REMARK    1  A    between atoms: N_4  and  C_11
REMARK    2  A    between atoms: N_6  and  C_16
REMARK    3  A    between atoms: C_7  and  C_12
REMARK    4  A    between atoms: C_11  and  C_13
REMARK                            x       y       z     vdW  Elec       q    Type
REMARK                         _______ _______ _______ _____ _____    ______ ____
ROOT
ATOM      4  N   UNL     1      18.240   6.199  20.742  0.00  0.00    -0.297 NA
ATOM      7  C   UNL     1      15.935   6.589  20.934  0.00  0.00    +0.090 C 
ATOM      8  C   UNL     1      16.253   6.065  19.523  0.00  0.00    +0.029 C 
ATOM      9  C   UNL     1      17.294   7.017  21.503  0.00  0.00    +0.097 C 
ATOM     10  C   UNL     1      17.756   6.251  19.362  0.00  0.00    +0.085 C 
ENDROOT
BRANCH   7  12
ATOM      1  O   UNL     1      13.840   7.472  21.811  0.00  0.00    -0.439 OA
ATOM      5  N   UNL     1      14.892   8.832  20.335  0.00  0.00    -0.213 NA
ATOM     12  C   UNL     1      14.901   7.690  20.985  0.00  0.00    +0.201 A 
ATOM     14  C   UNL     1      13.084   8.599  21.664  0.00  0.00    +0.155 A 
ATOM     15  C   UNL     1      13.731   9.429  20.759  0.00  0.00    +0.110 A 
ATOM     18  C   UNL     1      11.879   8.897  22.290  0.00  0.00    +0.048 A 
ATOM     19  C   UNL     1      13.148  10.664  20.436  0.00  0.00    +0.031 A 
ATOM     23  C   UNL     1      11.312  10.132  21.955  0.00  0.00    +0.004 A 
ATOM     24  C   UNL     1      11.932  10.999  21.048  0.00  0.00    +0.002 A 
ENDBRANCH   7  12
BRANCH   4  11
ATOM     11  C   UNL     1      19.611   6.673  20.866  0.00  0.00    +0.121 C 
BRANCH  11  13
ATOM     13  C   UNL     1      20.543   5.581  21.318  0.00  0.00    -0.003 A 
ATOM     16  C   UNL     1      21.238   5.673  22.523  0.00  0.00    +0.131 A 
ATOM     17  C   UNL     1      20.705   4.461  20.502  0.00  0.00    +0.007 A 
ATOM     20  C   UNL     1      22.095   4.644  22.914  0.00  0.00    +0.033 A 
ATOM     21  C   UNL     1      21.563   3.433  20.893  0.00  0.00    +0.000 A 
ATOM     22  C   UNL     1      22.258   3.524  22.099  0.00  0.00    +0.002 A 
BRANCH  16   6
ATOM      2  O   UNL     1      20.207   6.781  24.263  0.00  0.00    -0.126 OA
ATOM      3  O   UNL     1      21.836   7.796  23.198  0.00  0.00    -0.126 OA
ATOM      6  N   UNL     1      21.086   6.805  23.370  0.00  0.00    +0.057 N 
ENDBRANCH  16   6
ENDBRANCH  11  13
ENDBRANCH   4  11
TORSDOF 4
ENDMDL
MODEL 8
REMARK VINA RESULT:      -6.2      1.708      2.163
REMARK  Name = 45784207
REMARK  4 active torsions:
REMARK  status: ('A' for Active; 'I' for Inactive)
REMARK    1  A    between atoms: N_4  and  C_11
REMARK    2  A    between atoms: N_6  and  C_16
REMARK    3  A    between atoms: C_7  and  C_12
REMARK    4  A    between atoms: C_11  and  C_13
REMARK                            x       y       z     vdW  Elec       q    Type
REMARK                         _______ _______ _______ _____ _____    ______ ____
ROOT
ATOM      4  N   UNL     1      16.156   7.633  20.024  0.00  0.00    -0.297 NA
ATOM      7  C   UNL     1      18.415   7.007  20.089  0.00  0.00    +0.090 C 
ATOM      8  C   UNL     1      17.605   5.936  19.339  0.00  0.00    +0.029 C 
ATOM      9  C   UNL     1      17.361   7.842  20.828  0.00  0.00    +0.097 C 
ATOM     10  C   UNL     1      16.154   6.203  19.713  0.00  0.00    +0.085 C 
ENDROOT
BRANCH   7  12
ATOM      1  O   UNL     1      20.093   5.316  20.601  0.00  0.00    -0.439 OA
ATOM      5  N   UNL     1      19.912   6.963  22.147  0.00  0.00    -0.213 NA
ATOM     12  C   UNL     1      19.488   6.467  21.006  0.00  0.00    +0.201 A 
ATOM     14  C   UNL     1      20.996   5.062  21.594  0.00  0.00    +0.155 A 
ATOM     15  C   UNL     1      20.882   6.072  22.538  0.00  0.00    +0.110 A 
ATOM     18  C   UNL     1      21.884   3.996  21.677  0.00  0.00    +0.048 A 
ATOM     19  C   UNL     1      21.711   6.039  23.669  0.00  0.00    +0.031 A 
ATOM     23  C   UNL     1      22.703   3.979  22.811  0.00  0.00    +0.004 A 
ATOM     24  C   UNL     1      22.621   4.978  23.788  0.00  0.00    +0.002 A 
ENDBRANCH   7  12
BRANCH   4  11
ATOM     11  C   UNL     1      14.945   8.051  20.716  0.00  0.00    +0.121 C 
BRANCH  11  13
ATOM     13  C   UNL     1      13.826   8.354  19.757  0.00  0.00    -0.003 A 
ATOM     16  C   UNL     1      12.492   8.149  20.109  0.00  0.00    +0.131 A 
ATOM     17  C   UNL     1      14.145   8.848  18.492  0.00  0.00    +0.007 A 
ATOM     20  C   UNL     1      11.477   8.438  19.197  0.00  0.00    +0.033 A 
ATOM     21  C   UNL     1      13.130   9.138  17.580  0.00  0.00    +0.000 A 
ATOM     22  C   UNL     1      11.796   8.933  17.933  0.00  0.00    +0.002 A 
BRANCH  16   6
ATOM      2  O   UNL     1      11.989   8.455  22.339  0.00  0.00    -0.126 OA
ATOM      3  O   UNL     1      12.005   6.409  21.543  0.00  0.00    -0.126 OA
ATOM      6  N   UNL     1      12.145   7.646  21.393  0.00  0.00    +0.057 N 
ENDBRANCH  16   6
ENDBRANCH  11  13
ENDBRANCH   4  11
TORSDOF 4
ENDMDL
MODEL 9
REMARK VINA RESULT:      -6.0     28.624     31.937
REMARK  Name = 45784207
REMARK  4 active torsions:
REMARK  status: ('A' for Active; 'I' for Inactive)
REMARK    1  A    between atoms: N_4  and  C_11
REMARK    2  A    between atoms: N_6  and  C_16
REMARK    3  A    between atoms: C_7  and  C_12
REMARK    4  A    between atoms: C_11  and  C_13
REMARK                            x       y       z     vdW  Elec       q    Type
REMARK                         _______ _______ _______ _____ _____    ______ ____
ROOT
ATOM      4  N   UNL     1      -9.049  -9.678  17.218  0.00  0.00    -0.297 NA
ATOM      7  C   UNL     1     -10.363  -7.744  17.040  0.00  0.00    +0.090 C 
ATOM      8  C   UNL     1     -11.090  -8.782  17.913  0.00  0.00    +0.029 C 
ATOM      9  C   UNL     1      -9.267  -8.542  16.321  0.00  0.00    +0.097 C 
ATOM     10  C   UNL     1     -10.390 -10.102  17.622  0.00  0.00    +0.085 C 
ENDROOT
BRANCH   7  12
ATOM      1  O   UNL     1     -12.568  -7.336  16.085  0.00  0.00    -0.439 OA
ATOM      5  N   UNL     1     -10.925  -6.011  15.261  0.00  0.00    -0.213 NA
ATOM     12  C   UNL     1     -11.254  -6.978  16.089  0.00  0.00    +0.201 A 
ATOM     14  C   UNL     1     -13.124  -6.504  15.157  0.00  0.00    +0.155 A 
ATOM     15  C   UNL     1     -12.116  -5.694  14.655  0.00  0.00    +0.110 A 
ATOM     18  C   UNL     1     -14.456  -6.448  14.761  0.00  0.00    +0.048 A 
ATOM     19  C   UNL     1     -12.435  -4.743  13.675  0.00  0.00    +0.031 A 
ATOM     23  C   UNL     1     -14.756  -5.493  13.783  0.00  0.00    +0.004 A 
ATOM     24  C   UNL     1     -13.769  -4.657  13.250  0.00  0.00    +0.002 A 
ENDBRANCH   7  12
BRANCH   4  11
ATOM     11  C   UNL     1      -8.296 -10.750  16.584  0.00  0.00    +0.121 C 
BRANCH  11  13
ATOM     13  C   UNL     1      -6.882 -10.822  17.096  0.00  0.00    -0.003 A 
ATOM     16  C   UNL     1      -6.567 -11.516  18.263  0.00  0.00    +0.131 A 
ATOM     17  C   UNL     1      -5.878 -10.174  16.377  0.00  0.00    +0.007 A 
ATOM     20  C   UNL     1      -5.247 -11.564  18.712  0.00  0.00    +0.033 A 
ATOM     21  C   UNL     1      -4.558 -10.222  16.826  0.00  0.00    +0.000 A 
ATOM     22  C   UNL     1      -4.242 -10.916  17.993  0.00  0.00    +0.002 A 
BRANCH  16   6
ATOM      2  O   UNL     1      -7.891 -13.355  18.692  0.00  0.00    -0.126 OA
ATOM      3  O   UNL     1      -8.119 -11.583  19.968  0.00  0.00    -0.126 OA
ATOM      6  N   UNL     1      -7.575 -12.184  19.012  0.00  0.00    +0.057 N 
ENDBRANCH  16   6
ENDBRANCH  11  13
ENDBRANCH   4  11
TORSDOF 4
ENDMDL
MODEL 10
REMARK VINA RESULT:      -5.9     28.673     31.181
REMARK  Name = 45784207
REMARK  4 active torsions:
REMARK  status: ('A' for Active; 'I' for Inactive)
REMARK    1  A    between atoms: N_4  and  C_11
REMARK    2  A    between atoms: N_6  and  C_16
REMARK    3  A    between atoms: C_7  and  C_12
REMARK    4  A    between atoms: C_11  and  C_13
REMARK                            x       y       z     vdW  Elec       q    Type
REMARK                         _______ _______ _______ _____ _____    ______ ____
ROOT
ATOM      4  N   UNL     1       0.985   3.395  -6.651  0.00  0.00    -0.297 NA
ATOM      7  C   UNL     1       1.362   5.337  -5.392  0.00  0.00    +0.090 C 
ATOM      8  C   UNL     1       0.919   5.723  -6.813  0.00  0.00    +0.029 C 
ATOM      9  C   UNL     1       1.759   3.858  -5.498  0.00  0.00    +0.097 C 
ATOM     10  C   UNL     1       1.113   4.462  -7.644  0.00  0.00    +0.085 C 
ENDROOT
BRANCH   7  12
ATOM      1  O   UNL     1       2.349   7.538  -5.045  0.00  0.00    -0.439 OA
ATOM      5  N   UNL     1       3.507   5.828  -4.112  0.00  0.00    -0.213 NA
ATOM     12  C   UNL     1       2.458   6.201  -4.812  0.00  0.00    +0.201 A 
ATOM     14  C   UNL     1       3.446   8.062  -4.424  0.00  0.00    +0.155 A 
ATOM     15  C   UNL     1       4.152   7.013  -3.854  0.00  0.00    +0.110 A 
ATOM     18  C   UNL     1       3.820   9.399  -4.353  0.00  0.00    +0.048 A 
ATOM     19  C   UNL     1       5.333   7.294  -3.150  0.00  0.00    +0.031 A 
ATOM     23  C   UNL     1       5.000   9.661  -3.648  0.00  0.00    +0.004 A 
ATOM     24  C   UNL     1       5.743   8.632  -3.058  0.00  0.00    +0.002 A 
ENDBRANCH   7  12
BRANCH   4  11
ATOM     11  C   UNL     1       1.452   2.111  -7.155  0.00  0.00    +0.121 C 
BRANCH  11  13
ATOM     13  C   UNL     1       0.353   1.083  -7.174  0.00  0.00    -0.003 A 
ATOM     16  C   UNL     1       0.035   0.338  -6.039  0.00  0.00    +0.131 A 
ATOM     17  C   UNL     1      -0.353   0.882  -8.361  0.00  0.00    +0.007 A 
ATOM     20  C   UNL     1      -0.988  -0.608  -6.089  0.00  0.00    +0.033 A 
ATOM     21  C   UNL     1      -1.376  -0.065  -8.411  0.00  0.00    +0.000 A 
ATOM     22  C   UNL     1      -1.694  -0.810  -7.275  0.00  0.00    +0.002 A 
BRANCH  16   6
ATOM      2  O   UNL     1       0.229   1.246  -3.928  0.00  0.00    -0.126 OA
ATOM      3  O   UNL     1       1.855  -0.027  -4.670  0.00  0.00    -0.126 OA
ATOM      6  N   UNL     1       0.741   0.528  -4.819  0.00  0.00    +0.057 N 
ENDBRANCH  16   6
ENDBRANCH  11  13
ENDBRANCH   4  11
TORSDOF 4
ENDMDL
