MODEL 1
REMARK VINA RESULT:      -6.4      0.000      0.000
REMARK  Name = 75536611
REMARK  7 active torsions:
REMARK  status: ('A' for Active; 'I' for Inactive)
REMARK    1  A    between atoms: O_4  and  C_9
REMARK    2  A    between atoms: N_6  and  C_8
REMARK    3  A    between atoms: N_6  and  C_13
REMARK    4  A    between atoms: N_7  and  C_12
REMARK    5  A    between atoms: C_10  and  C_12
REMARK    6  A    between atoms: C_13  and  C_14
REMARK    7  A    between atoms: C_15  and  C_17
REMARK                            x       y       z     vdW  Elec       q    Type
REMARK                         _______ _______ _______ _____ _____    ______ ____
ROOT
ATOM      3  O   UNL     1      10.573   8.507  20.021  0.00  0.00    -0.371 OA
ATOM      8  C   UNL     1      12.458   7.262  19.288  0.00  0.00    +0.111 C 
ATOM      9  C   UNL     1      12.379   7.194  20.802  0.00  0.00    +0.164 C 
ATOM     10  C   UNL     1      10.916   7.548  21.035  0.00  0.00    +0.165 C 
ATOM     11  C   UNL     1      11.579   8.467  18.994  0.00  0.00    +0.181 C 
ENDROOT
BRANCH   9   4
ATOM      4  O   UNL     1      12.698   5.913  21.309  0.00  0.00    -0.388 OA
ATOM     24  H   UNL     1      13.657   5.779  21.220  0.00  0.00    +0.210 HD
ENDBRANCH   9   4
BRANCH   8   6
ATOM      6  N   UNL     1      13.812   7.410  18.781  0.00  0.00    -0.304 NA
ATOM     23  H   UNL     1      13.771   7.778  17.830  0.00  0.00    +0.123 HD
BRANCH   6  13
ATOM     13  C   UNL     1      14.587   8.324  19.612  0.00  0.00    +0.124 C 
BRANCH  13  14
ATOM      1  S   UNL     1      16.807   8.459  21.281  0.00  0.00    -0.100 S 
ATOM     14  C   UNL     1      15.906   7.726  20.024  0.00  0.00    +0.004 A 
ATOM     16  C   UNL     1      16.539   6.613  19.516  0.00  0.00    +0.012 A 
ATOM     18  C   UNL     1      17.779   6.359  20.167  0.00  0.00    +0.008 A 
ATOM     19  C   UNL     1      18.049   7.287  21.149  0.00  0.00    +0.045 A 
ENDBRANCH  13  14
ENDBRANCH   6  13
ENDBRANCH   8   6
BRANCH  10  12
ATOM     12  C   UNL     1      10.652   8.138  22.409  0.00  0.00    +0.138 C 
BRANCH  12   7
ATOM      5  O   UNL     1      12.697  10.114  22.796  0.00  0.00    -0.270 OA
ATOM      7  N   UNL     1      10.490   9.561  22.344  0.00  0.00    -0.308 N 
ATOM     15  C   UNL     1      11.542  10.449  22.547  0.00  0.00    +0.251 C 
ATOM     25  H   UNL     1       9.557   9.910  22.156  0.00  0.00    +0.149 HD
BRANCH  15  17
ATOM      2  S   UNL     1      10.655  12.694  23.884  0.00  0.00    -0.092 S 
ATOM     17  C   UNL     1      11.205  11.894  22.473  0.00  0.00    +0.074 A 
ATOM     20  C   UNL     1      11.268  12.741  21.389  0.00  0.00    +0.021 A 
ATOM     21  C   UNL     1      10.858  14.065  21.721  0.00  0.00    +0.008 A 
ATOM     22  C   UNL     1      10.498  14.179  23.046  0.00  0.00    +0.046 A 
ENDBRANCH  15  17
ENDBRANCH  12   7
ENDBRANCH  10  12
TORSDOF 7
ENDMDL
MODEL 2
REMARK VINA RESULT:      -6.2      2.733      4.171
REMARK  Name = 75536611
REMARK  7 active torsions:
REMARK  status: ('A' for Active; 'I' for Inactive)
REMARK    1  A    between atoms: O_4  and  C_9
REMARK    2  A    between atoms: N_6  and  C_8
REMARK    3  A    between atoms: N_6  and  C_13
REMARK    4  A    between atoms: N_7  and  C_12
REMARK    5  A    between atoms: C_10  and  C_12
REMARK    6  A    between atoms: C_13  and  C_14
REMARK    7  A    between atoms: C_15  and  C_17
REMARK                            x       y       z     vdW  Elec       q    Type
REMARK                         _______ _______ _______ _____ _____    ______ ____
ROOT
ATOM      3  O   UNL     1      15.823   6.200  18.969  0.00  0.00    -0.371 OA
ATOM      8  C   UNL     1      16.892   6.457  21.074  0.00  0.00    +0.111 C 
ATOM      9  C   UNL     1      15.592   7.239  21.081  0.00  0.00    +0.164 C 
ATOM     10  C   UNL     1      14.834   6.559  19.950  0.00  0.00    +0.165 C 
ATOM     11  C   UNL     1      17.121   6.267  19.584  0.00  0.00    +0.181 C 
ENDROOT
BRANCH   9   4
ATOM      4  O   UNL     1      14.902   7.140  22.312  0.00  0.00    -0.388 OA
ATOM     24  H   UNL     1      15.391   6.530  22.889  0.00  0.00    +0.210 HD
ENDBRANCH   9   4
BRANCH   8   6
ATOM      6  N   UNL     1      17.991   7.144  21.734  0.00  0.00    -0.304 NA
ATOM     23  H   UNL     1      18.218   6.652  22.598  0.00  0.00    +0.123 HD
BRANCH   6  13
ATOM     13  C   UNL     1      19.174   7.183  20.882  0.00  0.00    +0.124 C 
BRANCH  13  14
ATOM      1  S   UNL     1      21.008   6.275  22.764  0.00  0.00    -0.100 S 
ATOM     14  C   UNL     1      20.180   6.133  21.272  0.00  0.00    +0.004 A 
ATOM     16  C   UNL     1      20.561   5.009  20.574  0.00  0.00    +0.012 A 
ATOM     18  C   UNL     1      21.546   4.254  21.273  0.00  0.00    +0.008 A 
ATOM     19  C   UNL     1      21.881   4.830  22.478  0.00  0.00    +0.045 A 
ENDBRANCH  13  14
ENDBRANCH   6  13
ENDBRANCH   8   6
BRANCH  10  12
ATOM     12  C   UNL     1      13.780   7.447  19.313  0.00  0.00    +0.138 C 
BRANCH  12   7
ATOM      5  O   UNL     1      11.035   8.154  19.769  0.00  0.00    -0.270 OA
ATOM      7  N   UNL     1      13.291   8.425  20.242  0.00  0.00    -0.308 N 
ATOM     15  C   UNL     1      11.936   8.704  20.397  0.00  0.00    +0.251 C 
ATOM     25  H   UNL     1      13.982   8.929  20.785  0.00  0.00    +0.149 HD
BRANCH  15  17
ATOM      2  S   UNL     1      10.855   9.319  22.860  0.00  0.00    -0.092 S 
ATOM     17  C   UNL     1      11.594   9.764  21.381  0.00  0.00    +0.074 A 
ATOM     20  C   UNL     1      11.788  11.124  21.287  0.00  0.00    +0.021 A 
ATOM     21  C   UNL     1      11.323  11.811  22.446  0.00  0.00    +0.008 A 
ATOM     22  C   UNL     1      10.792  10.949  23.380  0.00  0.00    +0.046 A 
ENDBRANCH  15  17
ENDBRANCH  12   7
ENDBRANCH  10  12
TORSDOF 7
ENDMDL
MODEL 3
REMARK VINA RESULT:      -5.7      4.899      7.386
REMARK  Name = 75536611
REMARK  7 active torsions:
REMARK  status: ('A' for Active; 'I' for Inactive)
REMARK    1  A    between atoms: O_4  and  C_9
REMARK    2  A    between atoms: N_6  and  C_8
REMARK    3  A    between atoms: N_6  and  C_13
REMARK    4  A    between atoms: N_7  and  C_12
REMARK    5  A    between atoms: C_10  and  C_12
REMARK    6  A    between atoms: C_13  and  C_14
REMARK    7  A    between atoms: C_15  and  C_17
REMARK                            x       y       z     vdW  Elec       q    Type
REMARK                         _______ _______ _______ _____ _____    ______ ____
ROOT
ATOM      3  O   UNL     1      19.023   7.300  21.897  0.00  0.00    -0.371 OA
ATOM      8  C   UNL     1      20.127   5.873  20.353  0.00  0.00    +0.111 C 
ATOM      9  C   UNL     1      18.629   5.768  20.139  0.00  0.00    +0.164 C 
ATOM     10  C   UNL     1      18.149   7.063  20.781  0.00  0.00    +0.165 C 
ATOM     11  C   UNL     1      20.191   6.474  21.747  0.00  0.00    +0.181 C 
ENDROOT
BRANCH   9   4
ATOM      4  O   UNL     1      18.276   5.695  18.771  0.00  0.00    -0.388 OA
ATOM     24  H   UNL     1      17.529   6.297  18.616  0.00  0.00    +0.210 HD
ENDBRANCH   9   4
BRANCH   8   6
ATOM      6  N   UNL     1      20.822   4.600  20.252  0.00  0.00    -0.304 NA
ATOM     23  H   UNL     1      21.380   4.594  19.399  0.00  0.00    +0.123 HD
BRANCH   6  13
ATOM     13  C   UNL     1      21.699   4.387  21.398  0.00  0.00    +0.124 C 
BRANCH  13  14
ATOM      1  S   UNL     1      24.213   4.441  20.212  0.00  0.00    -0.100 S 
ATOM     14  C   UNL     1      22.942   3.627  21.018  0.00  0.00    +0.004 A 
ATOM     16  C   UNL     1      23.233   2.298  21.232  0.00  0.00    +0.012 A 
ATOM     18  C   UNL     1      24.516   1.943  20.727  0.00  0.00    +0.008 A 
ATOM     19  C   UNL     1      25.158   3.014  20.146  0.00  0.00    +0.045 A 
ENDBRANCH  13  14
ENDBRANCH   6  13
ENDBRANCH   8   6
BRANCH  10  12
ATOM     12  C   UNL     1      16.710   7.000  21.260  0.00  0.00    +0.138 C 
BRANCH  12   7
ATOM      5  O   UNL     1      15.408   6.403  18.772  0.00  0.00    -0.270 OA
ATOM      7  N   UNL     1      15.868   7.879  20.502  0.00  0.00    -0.308 N 
ATOM     15  C   UNL     1      15.276   7.504  19.299  0.00  0.00    +0.251 C 
ATOM     25  H   UNL     1      15.725   8.812  20.872  0.00  0.00    +0.149 HD
BRANCH  15  17
ATOM      2  S   UNL     1      13.866   8.235  17.043  0.00  0.00    -0.092 S 
ATOM     17  C   UNL     1      14.453   8.539  18.623  0.00  0.00    +0.074 A 
ATOM     20  C   UNL     1      14.064   9.774  19.090  0.00  0.00    +0.021 A 
ATOM     21  C   UNL     1      13.273  10.482  18.138  0.00  0.00    +0.008 A 
ATOM     22  C   UNL     1      13.089   9.760  16.980  0.00  0.00    +0.046 A 
ENDBRANCH  15  17
ENDBRANCH  12   7
ENDBRANCH  10  12
TORSDOF 7
ENDMDL
MODEL 4
REMARK VINA RESULT:      -5.6      2.185      2.919
REMARK  Name = 75536611
REMARK  7 active torsions:
REMARK  status: ('A' for Active; 'I' for Inactive)
REMARK    1  A    between atoms: O_4  and  C_9
REMARK    2  A    between atoms: N_6  and  C_8
REMARK    3  A    between atoms: N_6  and  C_13
REMARK    4  A    between atoms: N_7  and  C_12
REMARK    5  A    between atoms: C_10  and  C_12
REMARK    6  A    between atoms: C_13  and  C_14
REMARK    7  A    between atoms: C_15  and  C_17
REMARK                            x       y       z     vdW  Elec       q    Type
REMARK                         _______ _______ _______ _____ _____    ______ ____
ROOT
ATOM      3  O   UNL     1      10.536   8.396  19.966  0.00  0.00    -0.371 OA
ATOM      8  C   UNL     1      12.488   7.350  19.110  0.00  0.00    +0.111 C 
ATOM      9  C   UNL     1      12.568   7.381  20.624  0.00  0.00    +0.164 C 
ATOM     10  C   UNL     1      11.102   7.563  20.992  0.00  0.00    +0.165 C 
ATOM     11  C   UNL     1      11.433   8.410  18.842  0.00  0.00    +0.181 C 
ENDROOT
BRANCH   9   4
ATOM      4  O   UNL     1      13.103   6.190  21.168  0.00  0.00    -0.388 OA
ATOM     24  H   UNL     1      12.443   5.484  21.068  0.00  0.00    +0.210 HD
ENDBRANCH   9   4
BRANCH   8   6
ATOM      6  N   UNL     1      13.754   7.632  18.453  0.00  0.00    -0.304 NA
ATOM     23  H   UNL     1      13.622   7.581  17.442  0.00  0.00    +0.123 HD
BRANCH   6  13
ATOM     13  C   UNL     1      14.244   8.960  18.804  0.00  0.00    +0.124 C 
BRANCH  13  14
ATOM      1  S   UNL     1      15.013  11.427  17.776  0.00  0.00    -0.100 S 
ATOM     14  C   UNL     1      14.439   9.825  17.587  0.00  0.00    +0.004 A 
ATOM     16  C   UNL     1      14.212   9.510  16.265  0.00  0.00    +0.012 A 
ATOM     18  C   UNL     1      14.514  10.597  15.397  0.00  0.00    +0.008 A 
ATOM     19  C   UNL     1      14.960  11.703  16.087  0.00  0.00    +0.045 A 
ENDBRANCH  13  14
ENDBRANCH   6  13
ENDBRANCH   8   6
BRANCH  10  12
ATOM     12  C   UNL     1      10.898   8.211  22.349  0.00  0.00    +0.138 C 
BRANCH  12   7
ATOM      5  O   UNL     1      12.922  10.224  22.655  0.00  0.00    -0.270 OA
ATOM      7  N   UNL     1      10.720   9.630  22.230  0.00  0.00    -0.308 N 
ATOM     15  C   UNL     1      11.763  10.536  22.396  0.00  0.00    +0.251 C 
ATOM     25  H   UNL     1       9.783   9.961  22.030  0.00  0.00    +0.149 HD
BRANCH  15  17
ATOM      2  S   UNL     1      11.976  12.852  20.912  0.00  0.00    -0.092 S 
ATOM     17  C   UNL     1      11.409  11.973  22.267  0.00  0.00    +0.074 A 
ATOM     20  C   UNL     1      10.654  12.756  23.112  0.00  0.00    +0.021 A 
ATOM     21  C   UNL     1      10.540  14.096  22.641  0.00  0.00    +0.008 A 
ATOM     22  C   UNL     1      11.212  14.286  21.453  0.00  0.00    +0.046 A 
ENDBRANCH  15  17
ENDBRANCH  12   7
ENDBRANCH  10  12
TORSDOF 7
ENDMDL
MODEL 5
REMARK VINA RESULT:      -5.5     26.403     27.772
REMARK  Name = 75536611
REMARK  7 active torsions:
REMARK  status: ('A' for Active; 'I' for Inactive)
REMARK    1  A    between atoms: O_4  and  C_9
REMARK    2  A    between atoms: N_6  and  C_8
REMARK    3  A    between atoms: N_6  and  C_13
REMARK    4  A    between atoms: N_7  and  C_12
REMARK    5  A    between atoms: C_10  and  C_12
REMARK    6  A    between atoms: C_13  and  C_14
REMARK    7  A    between atoms: C_15  and  C_17
REMARK                            x       y       z     vdW  Elec       q    Type
REMARK                         _______ _______ _______ _____ _____    ______ ____
ROOT
ATOM      3  O   UNL     1      -5.083 -11.739  15.838  0.00  0.00    -0.371 OA
ATOM      8  C   UNL     1      -3.037 -11.227  14.748  0.00  0.00    +0.111 C 
ATOM      9  C   UNL     1      -2.944 -10.796  16.200  0.00  0.00    +0.164 C 
ATOM     10  C   UNL     1      -4.044 -11.643  16.827  0.00  0.00    +0.165 C 
ATOM     11  C   UNL     1      -4.540 -11.349  14.565  0.00  0.00    +0.181 C 
ENDROOT
BRANCH   9   4
ATOM      4  O   UNL     1      -1.679 -11.069  16.772  0.00  0.00    -0.388 OA
ATOM     24  H   UNL     1      -1.043 -11.215  16.051  0.00  0.00    +0.210 HD
ENDBRANCH   9   4
BRANCH   8   6
ATOM      6  N   UNL     1      -2.427 -10.287  13.821  0.00  0.00    -0.304 NA
ATOM     23  H   UNL     1      -1.640  -9.830  14.283  0.00  0.00    +0.123 HD
BRANCH   6  13
ATOM     13  C   UNL     1      -1.948 -10.967  12.623  0.00  0.00    +0.124 C 
BRANCH  13  14
ATOM      1  S   UNL     1      -3.729 -11.722  10.626  0.00  0.00    -0.100 S 
ATOM     14  C   UNL     1      -2.731 -10.567  11.401  0.00  0.00    +0.004 A 
ATOM     16  C   UNL     1      -2.772  -9.343  10.771  0.00  0.00    +0.012 A 
ATOM     18  C   UNL     1      -3.634  -9.353   9.637  0.00  0.00    +0.008 A 
ATOM     19  C   UNL     1      -4.219 -10.585   9.443  0.00  0.00    +0.045 A 
ENDBRANCH  13  14
ENDBRANCH   6  13
ENDBRANCH   8   6
BRANCH  10  12
ATOM     12  C   UNL     1      -4.606 -11.047  18.105  0.00  0.00    +0.138 C 
BRANCH  12   7
ATOM      5  O   UNL     1      -6.619 -11.166  20.148  0.00  0.00    -0.270 OA
ATOM      7  N   UNL     1      -5.994 -10.714  17.961  0.00  0.00    -0.308 N 
ATOM     15  C   UNL     1      -6.903 -10.802  19.010  0.00  0.00    +0.251 C 
ATOM     25  H   UNL     1      -6.303 -10.418  17.041  0.00  0.00    +0.149 HD
BRANCH  15  17
ATOM      2  S   UNL     1      -9.570 -11.085  19.660  0.00  0.00    -0.092 S 
ATOM     17  C   UNL     1      -8.310 -10.447  18.691  0.00  0.00    +0.074 A 
ATOM     20  C   UNL     1      -8.790  -9.640  17.684  0.00  0.00    +0.021 A 
ATOM     21  C   UNL     1     -10.212  -9.545  17.706  0.00  0.00    +0.008 A 
ATOM     22  C   UNL     1     -10.764 -10.282  18.731  0.00  0.00    +0.046 A 
ENDBRANCH  15  17
ENDBRANCH  12   7
ENDBRANCH  10  12
TORSDOF 7
ENDMDL
MODEL 6
REMARK VINA RESULT:      -5.5     29.116     30.494
REMARK  Name = 75536611
REMARK  7 active torsions:
REMARK  status: ('A' for Active; 'I' for Inactive)
REMARK    1  A    between atoms: O_4  and  C_9
REMARK    2  A    between atoms: N_6  and  C_8
REMARK    3  A    between atoms: N_6  and  C_13
REMARK    4  A    between atoms: N_7  and  C_12
REMARK    5  A    between atoms: C_10  and  C_12
REMARK    6  A    between atoms: C_13  and  C_14
REMARK    7  A    between atoms: C_15  and  C_17
REMARK                            x       y       z     vdW  Elec       q    Type
REMARK                         _______ _______ _______ _____ _____    ______ ____
ROOT
ATOM      3  O   UNL     1     -15.171  -0.040  29.377  0.00  0.00    -0.371 OA
ATOM      8  C   UNL     1     -14.300   1.966  30.304  0.00  0.00    +0.111 C 
ATOM      9  C   UNL     1     -15.341   2.316  29.258  0.00  0.00    +0.164 C 
ATOM     10  C   UNL     1     -16.127   1.015  29.179  0.00  0.00    +0.165 C 
ATOM     11  C   UNL     1     -13.973   0.529  29.934  0.00  0.00    +0.181 C 
ENDROOT
BRANCH   9   4
ATOM      4  O   UNL     1     -16.160   3.404  29.644  0.00  0.00    -0.388 OA
ATOM     24  H   UNL     1     -15.955   4.160  29.068  0.00  0.00    +0.210 HD
ENDBRANCH   9   4
BRANCH   8   6
ATOM      6  N   UNL     1     -13.136   2.836  30.283  0.00  0.00    -0.304 NA
ATOM     23  H   UNL     1     -13.353   3.666  29.731  0.00  0.00    +0.123 HD
BRANCH   6  13
ATOM     13  C   UNL     1     -12.761   3.245  31.632  0.00  0.00    +0.124 C 
BRANCH  13  14
ATOM      1  S   UNL     1     -14.719   3.244  33.606  0.00  0.00    -0.100 S 
ATOM     14  C   UNL     1     -13.872   3.992  32.321  0.00  0.00    +0.004 A 
ATOM     16  C   UNL     1     -14.343   5.260  32.061  0.00  0.00    +0.012 A 
ATOM     18  C   UNL     1     -15.412   5.622  32.929  0.00  0.00    +0.008 A 
ATOM     19  C   UNL     1     -15.719   4.617  33.819  0.00  0.00    +0.045 A 
ENDBRANCH  13  14
ENDBRANCH   6  13
ENDBRANCH   8   6
BRANCH  10  12
ATOM     12  C   UNL     1     -16.837   0.821  27.851  0.00  0.00    +0.138 C 
BRANCH  12   7
ATOM      5  O   UNL     1     -16.731   0.800  24.982  0.00  0.00    -0.270 OA
ATOM      7  N   UNL     1     -16.660   1.956  26.992  0.00  0.00    -0.308 N 
ATOM     15  C   UNL     1     -16.620   1.853  25.605  0.00  0.00    +0.251 C 
ATOM     25  H   UNL     1     -16.547   2.859  27.441  0.00  0.00    +0.149 HD
BRANCH  15  17
ATOM      2  S   UNL     1     -17.757   3.968  24.247  0.00  0.00    -0.092 S 
ATOM     17  C   UNL     1     -16.402   3.119  24.859  0.00  0.00    +0.074 A 
ATOM     20  C   UNL     1     -15.217   3.755  24.565  0.00  0.00    +0.021 A 
ATOM     21  C   UNL     1     -15.423   4.956  23.827  0.00  0.00    +0.008 A 
ATOM     22  C   UNL     1     -16.759   5.192  23.585  0.00  0.00    +0.046 A 
ENDBRANCH  15  17
ENDBRANCH  12   7
ENDBRANCH  10  12
TORSDOF 7
ENDMDL
MODEL 7
REMARK VINA RESULT:      -5.5     26.513     29.088
REMARK  Name = 75536611
REMARK  7 active torsions:
REMARK  status: ('A' for Active; 'I' for Inactive)
REMARK    1  A    between atoms: O_4  and  C_9
REMARK    2  A    between atoms: N_6  and  C_8
REMARK    3  A    between atoms: N_6  and  C_13
REMARK    4  A    between atoms: N_7  and  C_12
REMARK    5  A    between atoms: C_10  and  C_12
REMARK    6  A    between atoms: C_13  and  C_14
REMARK    7  A    between atoms: C_15  and  C_17
REMARK                            x       y       z     vdW  Elec       q    Type
REMARK                         _______ _______ _______ _____ _____    ______ ____
ROOT
ATOM      3  O   UNL     1     -17.749   5.467  25.016  0.00  0.00    -0.371 OA
ATOM      8  C   UNL     1     -16.466   3.822  26.151  0.00  0.00    +0.111 C 
ATOM      9  C   UNL     1     -15.976   3.930  24.720  0.00  0.00    +0.164 C 
ATOM     10  C   UNL     1     -16.492   5.310  24.336  0.00  0.00    +0.165 C 
ATOM     11  C   UNL     1     -17.836   4.471  26.050  0.00  0.00    +0.181 C 
ENDROOT
BRANCH   9   4
ATOM      4  O   UNL     1     -14.567   3.847  24.616  0.00  0.00    -0.388 OA
ATOM     24  H   UNL     1     -14.349   3.296  23.846  0.00  0.00    +0.210 HD
ENDBRANCH   9   4
BRANCH   8   6
ATOM      6  N   UNL     1     -16.520   2.457  26.648  0.00  0.00    -0.304 NA
ATOM     23  H   UNL     1     -15.598   2.031  26.549  0.00  0.00    +0.123 HD
BRANCH   6  13
ATOM     13  C   UNL     1     -16.911   2.424  28.053  0.00  0.00    +0.124 C 
BRANCH  13  14
ATOM      1  S   UNL     1     -15.184   0.745  29.442  0.00  0.00    -0.100 S 
ATOM     14  C   UNL     1     -15.718   2.299  28.964  0.00  0.00    +0.004 A 
ATOM     16  C   UNL     1     -14.943   3.301  29.504  0.00  0.00    +0.012 A 
ATOM     18  C   UNL     1     -13.897   2.786  30.322  0.00  0.00    +0.008 A 
ATOM     19  C   UNL     1     -13.912   1.409  30.376  0.00  0.00    +0.045 A 
ENDBRANCH  13  14
ENDBRANCH   6  13
ENDBRANCH   8   6
BRANCH  10  12
ATOM     12  C   UNL     1     -16.693   5.482  22.841  0.00  0.00    +0.138 C 
BRANCH  12   7
ATOM      5  O   UNL     1     -14.211   4.518  21.768  0.00  0.00    -0.270 OA
ATOM      7  N   UNL     1     -15.646   6.273  22.260  0.00  0.00    -0.308 N 
ATOM     15  C   UNL     1     -14.471   5.718  21.763  0.00  0.00    +0.251 C 
ATOM     25  H   UNL     1     -15.788   7.277  22.236  0.00  0.00    +0.149 HD
BRANCH  15  17
ATOM      2  S   UNL     1     -13.975   8.261  20.814  0.00  0.00    -0.092 S 
ATOM     17  C   UNL     1     -13.473   6.675  21.219  0.00  0.00    +0.074 A 
ATOM     20  C   UNL     1     -12.133   6.479  20.975  0.00  0.00    +0.021 A 
ATOM     21  C   UNL     1     -11.508   7.646  20.447  0.00  0.00    +0.008 A 
ATOM     22  C   UNL     1     -12.397   8.690  20.309  0.00  0.00    +0.046 A 
ENDBRANCH  15  17
ENDBRANCH  12   7
ENDBRANCH  10  12
TORSDOF 7
ENDMDL
MODEL 8
REMARK VINA RESULT:      -5.4     26.734     29.214
REMARK  Name = 75536611
REMARK  7 active torsions:
REMARK  status: ('A' for Active; 'I' for Inactive)
REMARK    1  A    between atoms: O_4  and  C_9
REMARK    2  A    between atoms: N_6  and  C_8
REMARK    3  A    between atoms: N_6  and  C_13
REMARK    4  A    between atoms: N_7  and  C_12
REMARK    5  A    between atoms: C_10  and  C_12
REMARK    6  A    between atoms: C_13  and  C_14
REMARK    7  A    between atoms: C_15  and  C_17
REMARK                            x       y       z     vdW  Elec       q    Type
REMARK                         _______ _______ _______ _____ _____    ______ ____
ROOT
ATOM      3  O   UNL     1     -18.103   4.376  24.146  0.00  0.00    -0.371 OA
ATOM      8  C   UNL     1     -16.174   4.249  22.767  0.00  0.00    +0.111 C 
ATOM      9  C   UNL     1     -15.741   4.474  24.203  0.00  0.00    +0.164 C 
ATOM     10  C   UNL     1     -16.977   4.006  24.959  0.00  0.00    +0.165 C 
ATOM     11  C   UNL     1     -17.631   4.677  22.821  0.00  0.00    +0.181 C 
ENDROOT
BRANCH   9   4
ATOM      4  O   UNL     1     -14.594   3.722  24.552  0.00  0.00    -0.388 OA
ATOM     24  H   UNL     1     -14.493   3.002  23.908  0.00  0.00    +0.210 HD
ENDBRANCH   9   4
BRANCH   8   6
ATOM      6  N   UNL     1     -15.397   5.005  21.798  0.00  0.00    -0.304 NA
ATOM     23  H   UNL     1     -15.955   5.134  20.954  0.00  0.00    +0.123 HD
BRANCH   6  13
ATOM     13  C   UNL     1     -15.025   6.312  22.328  0.00  0.00    +0.124 C 
BRANCH  13  14
ATOM      1  S   UNL     1     -13.741   8.502  21.192  0.00  0.00    -0.100 S 
ATOM     14  C   UNL     1     -13.789   6.856  21.661  0.00  0.00    +0.004 A 
ATOM     16  C   UNL     1     -12.621   6.196  21.350  0.00  0.00    +0.012 A 
ATOM     18  C   UNL     1     -11.674   7.053  20.719  0.00  0.00    +0.008 A 
ATOM     19  C   UNL     1     -12.155   8.335  20.570  0.00  0.00    +0.045 A 
ENDBRANCH  13  14
ENDBRANCH   6  13
ENDBRANCH   8   6
BRANCH  10  12
ATOM     12  C   UNL     1     -17.112   4.630  26.336  0.00  0.00    +0.138 C 
BRANCH  12   7
ATOM      5  O   UNL     1     -17.662   2.480  28.158  0.00  0.00    -0.270 OA
ATOM      7  N   UNL     1     -16.194   4.042  27.269  0.00  0.00    -0.308 N 
ATOM     15  C   UNL     1     -16.549   2.998  28.118  0.00  0.00    +0.251 C 
ATOM     25  H   UNL     1     -15.259   4.430  27.301  0.00  0.00    +0.149 HD
BRANCH  15  17
ATOM      2  S   UNL     1     -15.336   0.837  29.332  0.00  0.00    -0.092 S 
ATOM     17  C   UNL     1     -15.491   2.517  29.044  0.00  0.00    +0.074 A 
ATOM     20  C   UNL     1     -14.562   3.251  29.748  0.00  0.00    +0.021 A 
ATOM     21  C   UNL     1     -13.711   2.421  30.535  0.00  0.00    +0.008 A 
ATOM     22  C   UNL     1     -14.023   1.086  30.402  0.00  0.00    +0.046 A 
ENDBRANCH  15  17
ENDBRANCH  12   7
ENDBRANCH  10  12
TORSDOF 7
ENDMDL
MODEL 9
REMARK VINA RESULT:      -5.4     27.273     29.184
REMARK  Name = 75536611
REMARK  7 active torsions:
REMARK  status: ('A' for Active; 'I' for Inactive)
REMARK    1  A    between atoms: O_4  and  C_9
REMARK    2  A    between atoms: N_6  and  C_8
REMARK    3  A    between atoms: N_6  and  C_13
REMARK    4  A    between atoms: N_7  and  C_12
REMARK    5  A    between atoms: C_10  and  C_12
REMARK    6  A    between atoms: C_13  and  C_14
REMARK    7  A    between atoms: C_15  and  C_17
REMARK                            x       y       z     vdW  Elec       q    Type
REMARK                         _______ _______ _______ _____ _____    ______ ____
ROOT
ATOM      3  O   UNL     1     -11.628  -8.818  17.497  0.00  0.00    -0.371 OA
ATOM      8  C   UNL     1      -9.357  -8.226  17.129  0.00  0.00    +0.111 C 
ATOM      9  C   UNL     1     -10.207  -7.638  16.019  0.00  0.00    +0.164 C 
ATOM     10  C   UNL     1     -11.584  -7.643  16.669  0.00  0.00    +0.165 C 
ATOM     11  C   UNL     1     -10.284  -9.295  17.684  0.00  0.00    +0.181 C 
ENDROOT
BRANCH   9   4
ATOM      4  O   UNL     1      -9.802  -6.332  15.653  0.00  0.00    -0.388 OA
ATOM     24  H   UNL     1     -10.532  -5.910  15.170  0.00  0.00    +0.210 HD
ENDBRANCH   9   4
BRANCH   8   6
ATOM      6  N   UNL     1      -8.085  -8.761  16.669  0.00  0.00    -0.304 NA
ATOM     23  H   UNL     1      -7.415  -7.996  16.588  0.00  0.00    +0.123 HD
BRANCH   6  13
ATOM     13  C   UNL     1      -7.565  -9.754  17.602  0.00  0.00    +0.124 C 
BRANCH  13  14
ATOM      1  S   UNL     1      -5.648 -10.038  15.608  0.00  0.00    -0.100 S 
ATOM     14  C   UNL     1      -6.176 -10.200  17.228  0.00  0.00    +0.004 A 
ATOM     16  C   UNL     1      -5.206 -10.752  18.035  0.00  0.00    +0.012 A 
ATOM     18  C   UNL     1      -4.014 -11.045  17.315  0.00  0.00    +0.008 A 
ATOM     19  C   UNL     1      -4.117 -10.708  15.983  0.00  0.00    +0.045 A 
ENDBRANCH  13  14
ENDBRANCH   6  13
ENDBRANCH   8   6
BRANCH  10  12
ATOM     12  C   UNL     1     -12.723  -7.680  15.666  0.00  0.00    +0.138 C 
BRANCH  12   7
ATOM      5  O   UNL     1     -12.471  -7.859  12.812  0.00  0.00    -0.270 OA
ATOM      7  N   UNL     1     -12.642  -6.585  14.743  0.00  0.00    -0.308 N 
ATOM     15  C   UNL     1     -12.520  -6.765  13.369  0.00  0.00    +0.251 C 
ATOM     25  H   UNL     1     -12.662  -5.650  15.135  0.00  0.00    +0.149 HD
BRANCH  15  17
ATOM      2  S   UNL     1     -12.310  -5.664  10.848  0.00  0.00    -0.092 S 
ATOM     17  C   UNL     1     -12.421  -5.529  12.551  0.00  0.00    +0.074 A 
ATOM     20  C   UNL     1     -12.404  -4.217  12.968  0.00  0.00    +0.021 A 
ATOM     21  C   UNL     1     -12.297  -3.309  11.874  0.00  0.00    +0.008 A 
ATOM     22  C   UNL     1     -12.238  -3.963  10.663  0.00  0.00    +0.046 A 
ENDBRANCH  15  17
ENDBRANCH  12   7
ENDBRANCH  10  12
TORSDOF 7
ENDMDL
MODEL 10
REMARK VINA RESULT:      -5.4     26.455     28.245
REMARK  Name = 75536611
REMARK  7 active torsions:
REMARK  status: ('A' for Active; 'I' for Inactive)
REMARK    1  A    between atoms: O_4  and  C_9
REMARK    2  A    between atoms: N_6  and  C_8
REMARK    3  A    between atoms: N_6  and  C_13
REMARK    4  A    between atoms: N_7  and  C_12
REMARK    5  A    between atoms: C_10  and  C_12
REMARK    6  A    between atoms: C_13  and  C_14
REMARK    7  A    between atoms: C_15  and  C_17
REMARK                            x       y       z     vdW  Elec       q    Type
REMARK                         _______ _______ _______ _____ _____    ______ ____
ROOT
ATOM      3  O   UNL     1      -3.862 -11.846  18.255  0.00  0.00    -0.371 OA
ATOM      8  C   UNL     1      -6.092 -11.031  18.211  0.00  0.00    +0.111 C 
ATOM      9  C   UNL     1      -5.314 -10.404  17.069  0.00  0.00    +0.164 C 
ATOM     10  C   UNL     1      -4.160 -11.387  16.926  0.00  0.00    +0.165 C 
ATOM     11  C   UNL     1      -4.967 -11.513  19.112  0.00  0.00    +0.181 C 
ENDROOT
BRANCH   9   4
ATOM      4  O   UNL     1      -6.073 -10.305  15.880  0.00  0.00    -0.388 OA
ATOM     24  H   UNL     1      -6.323  -9.375  15.752  0.00  0.00    +0.210 HD
ENDBRANCH   9   4
BRANCH   8   6
ATOM      6  N   UNL     1      -6.996 -10.107  18.877  0.00  0.00    -0.304 NA
ATOM     23  H   UNL     1      -6.877  -9.178  18.473  0.00  0.00    +0.123 HD
BRANCH   6  13
ATOM     13  C   UNL     1      -8.384 -10.523  18.716  0.00  0.00    +0.124 C 
BRANCH  13  14
ATOM      1  S   UNL     1      -9.749 -10.929  16.328  0.00  0.00    -0.100 S 
ATOM     14  C   UNL     1      -9.014  -9.912  17.492  0.00  0.00    +0.004 A 
ATOM     16  C   UNL     1      -9.095  -8.583  17.142  0.00  0.00    +0.012 A 
ATOM     18  C   UNL     1      -9.770  -8.396  15.902  0.00  0.00    +0.008 A 
ATOM     19  C   UNL     1     -10.178  -9.590  15.350  0.00  0.00    +0.045 A 
ENDBRANCH  13  14
ENDBRANCH   6  13
ENDBRANCH   8   6
BRANCH  10  12
ATOM     12  C   UNL     1      -2.919 -10.772  16.305  0.00  0.00    +0.138 C 
BRANCH  12   7
ATOM      5  O   UNL     1      -1.957 -11.990  13.890  0.00  0.00    -0.270 OA
ATOM      7  N   UNL     1      -3.170 -10.330  14.963  0.00  0.00    -0.308 N 
ATOM     15  C   UNL     1      -2.660 -10.984  13.847  0.00  0.00    +0.251 C 
ATOM     25  H   UNL     1      -3.734  -9.494  14.853  0.00  0.00    +0.149 HD
BRANCH  15  17
ATOM      2  S   UNL     1      -4.631 -10.112  12.123  0.00  0.00    -0.092 S 
ATOM     17  C   UNL     1      -2.990 -10.385  12.528  0.00  0.00    +0.074 A 
ATOM     20  C   UNL     1      -2.136  -9.990  11.522  0.00  0.00    +0.021 A 
ATOM     21  C   UNL     1      -2.839  -9.457  10.402  0.00  0.00    +0.008 A 
ATOM     22  C   UNL     1      -4.203  -9.464  10.597  0.00  0.00    +0.046 A 
ENDBRANCH  15  17
ENDBRANCH  12   7
ENDBRANCH  10  12
TORSDOF 7
ENDMDL
