MODEL 1
REMARK VINA RESULT:      -7.2      0.000      0.000
REMARK  Name = 26743149
REMARK  9 active torsions:
REMARK  status: ('A' for Active; 'I' for Inactive)
REMARK    1  A    between atoms: O_3  and  C_19
REMARK    2  A    between atoms: O_3  and  C_25
REMARK    3  A    between atoms: N_5  and  C_18
REMARK    4  A    between atoms: C_7  and  C_13
REMARK    5  A    between atoms: C_8  and  C_12
REMARK    6  A    between atoms: C_12  and  C_14
REMARK    7  A    between atoms: C_13  and  C_15
REMARK    8  A    between atoms: C_17  and  C_19
REMARK    9  A    between atoms: C_18  and  C_20
REMARK                            x       y       z     vdW  Elec       q    Type
REMARK                         _______ _______ _______ _____ _____    ______ ____
ROOT
ATOM      4  N   UNL     1     -19.333   3.380  27.445  0.00  0.00    -0.316 NA
ATOM      7  C   UNL     1     -16.560   2.488  27.912  0.00  0.00    +0.004 C 
ATOM      8  C   UNL     1     -17.085   2.888  26.513  0.00  0.00    +0.012 C 
ATOM      9  C   UNL     1     -17.413   3.183  28.987  0.00  0.00    +0.019 C 
ATOM     10  C   UNL     1     -18.603   2.672  26.393  0.00  0.00    +0.085 C 
ATOM     11  C   UNL     1     -18.910   2.958  28.779  0.00  0.00    +0.081 C 
ATOM     32  H   UNL     1     -20.332   3.206  27.337  0.00  0.00    +0.122 HD
ENDROOT
BRANCH   8  12
ATOM     12  C   UNL     1     -16.350   2.182  25.372  0.00  0.00    +0.064 C 
BRANCH  12  14
ATOM      2  O   UNL     1     -16.008   3.927  22.243  0.00  0.00    -0.356 OA
ATOM      6  N   UNL     1     -16.458   2.863  23.015  0.00  0.00    -0.083 NA
ATOM     14  C   UNL     1     -16.036   3.132  24.253  0.00  0.00    +0.084 A 
ATOM     16  C   UNL     1     -15.321   4.340  24.323  0.00  0.00    +0.074 A 
ATOM     17  C   UNL     1     -15.332   4.800  23.032  0.00  0.00    +0.175 A 
BRANCH  17  19
ATOM     19  C   UNL     1     -14.783   5.990  22.373  0.00  0.00    +0.306 C 
BRANCH  19   3
ATOM      3  O   UNL     1     -13.565   5.665  21.696  0.00  0.00    -0.484 OA
BRANCH   3  25
ATOM     25  C   UNL     1     -13.060   6.620  20.858  0.00  0.00    +0.121 A 
ATOM     27  C   UNL     1     -13.916   7.339  20.024  0.00  0.00    +0.045 A 
ATOM     28  C   UNL     1     -11.689   6.876  20.837  0.00  0.00    +0.045 A 
ATOM     29  C   UNL     1     -13.402   8.313  19.169  0.00  0.00    +0.004 A 
ATOM     30  C   UNL     1     -11.174   7.850  19.982  0.00  0.00    +0.004 A 
ATOM     31  C   UNL     1     -12.030   8.569  19.147  0.00  0.00    +0.000 A 
ENDBRANCH   3  25
ENDBRANCH  19   3
ENDBRANCH  17  19
ENDBRANCH  12  14
ENDBRANCH   8  12
BRANCH   7  13
ATOM     13  C   UNL     1     -16.511   0.973  28.151  0.00  0.00    +0.099 C 
BRANCH  13  15
ATOM      1  O   UNL     1     -16.083  -0.219  30.212  0.00  0.00    -0.276 OA
ATOM      5  N   UNL     1     -14.540   1.347  29.457  0.00  0.00    -0.311 N 
ATOM     15  C   UNL     1     -15.716   0.614  29.388  0.00  0.00    +0.214 C 
ATOM     33  H   UNL     1     -14.336   2.029  28.732  0.00  0.00    +0.149 HD
BRANCH   5  18
ATOM     18  C   UNL     1     -13.588   1.209  30.536  0.00  0.00    +0.139 C 
BRANCH  18  20
ATOM     20  C   UNL     1     -13.861   2.174  31.654  0.00  0.00    -0.030 A 
ATOM     21  C   UNL     1     -14.330   1.705  32.880  0.00  0.00    +0.005 A 
ATOM     22  C   UNL     1     -13.643   3.538  31.465  0.00  0.00    +0.005 A 
ATOM     23  C   UNL     1     -14.583   2.601  33.919  0.00  0.00    +0.000 A 
ATOM     24  C   UNL     1     -13.897   4.434  32.504  0.00  0.00    +0.000 A 
ATOM     26  C   UNL     1     -14.366   3.966  33.731  0.00  0.00    +0.000 A 
ENDBRANCH  18  20
ENDBRANCH   5  18
ENDBRANCH  13  15
ENDBRANCH   7  13
TORSDOF 9
ENDMDL
MODEL 2
REMARK VINA RESULT:      -6.8     19.698     21.823
REMARK  Name = 26743149
REMARK  9 active torsions:
REMARK  status: ('A' for Active; 'I' for Inactive)
REMARK    1  A    between atoms: O_3  and  C_19
REMARK    2  A    between atoms: O_3  and  C_25
REMARK    3  A    between atoms: N_5  and  C_18
REMARK    4  A    between atoms: C_7  and  C_13
REMARK    5  A    between atoms: C_8  and  C_12
REMARK    6  A    between atoms: C_12  and  C_14
REMARK    7  A    between atoms: C_13  and  C_15
REMARK    8  A    between atoms: C_17  and  C_19
REMARK    9  A    between atoms: C_18  and  C_20
REMARK                            x       y       z     vdW  Elec       q    Type
REMARK                         _______ _______ _______ _____ _____    ______ ____
ROOT
ATOM      4  N   UNL     1      -3.174 -14.278  11.057  0.00  0.00    -0.316 NA
ATOM      7  C   UNL     1      -3.220 -12.852  13.639  0.00  0.00    +0.004 C 
ATOM      8  C   UNL     1      -3.968 -12.337  12.386  0.00  0.00    +0.012 C 
ATOM      9  C   UNL     1      -3.029 -14.374  13.521  0.00  0.00    +0.019 C 
ATOM     10  C   UNL     1      -3.300 -12.821  11.088  0.00  0.00    +0.085 C 
ATOM     11  C   UNL     1      -2.399 -14.781  12.190  0.00  0.00    +0.081 C 
ATOM     32  H   UNL     1      -2.720 -14.559  10.188  0.00  0.00    +0.122 HD
ENDROOT
BRANCH   8  12
ATOM     12  C   UNL     1      -4.136 -10.817  12.370  0.00  0.00    +0.064 C 
BRANCH  12  14
ATOM      2  O   UNL     1      -7.337  -9.179  12.512  0.00  0.00    -0.356 OA
ATOM      6  N   UNL     1      -5.985  -9.211  12.193  0.00  0.00    -0.083 NA
ATOM     14  C   UNL     1      -5.570 -10.423  12.570  0.00  0.00    +0.084 A 
ATOM     16  C   UNL     1      -6.606 -11.192  13.128  0.00  0.00    +0.074 A 
ATOM     17  C   UNL     1      -7.695 -10.364  13.068  0.00  0.00    +0.175 A 
BRANCH  17  19
ATOM     19  C   UNL     1      -9.100 -10.502  13.468  0.00  0.00    +0.306 C 
BRANCH  19   3
ATOM      3  O   UNL     1      -9.636  -9.231  13.847  0.00  0.00    -0.484 OA
BRANCH   3  25
ATOM     25  C   UNL     1     -10.025  -9.098  15.151  0.00  0.00    +0.121 A 
ATOM     27  C   UNL     1     -10.495 -10.207  15.855  0.00  0.00    +0.045 A 
ATOM     28  C   UNL     1      -9.954  -7.853  15.776  0.00  0.00    +0.045 A 
ATOM     29  C   UNL     1     -10.892 -10.071  17.185  0.00  0.00    +0.004 A 
ATOM     30  C   UNL     1     -10.351  -7.718  17.106  0.00  0.00    +0.004 A 
ATOM     31  C   UNL     1     -10.821  -8.827  17.811  0.00  0.00    +0.000 A 
ENDBRANCH   3  25
ENDBRANCH  19   3
ENDBRANCH  17  19
ENDBRANCH  12  14
ENDBRANCH   8  12
BRANCH   7  13
ATOM     13  C   UNL     1      -1.879 -12.153  13.896  0.00  0.00    +0.099 C 
BRANCH  13  15
ATOM      1  O   UNL     1      -0.905 -10.762  15.620  0.00  0.00    -0.276 OA
ATOM      5  N   UNL     1      -3.010 -11.691  15.955  0.00  0.00    -0.311 N 
ATOM     15  C   UNL     1      -1.847 -11.450  15.237  0.00  0.00    +0.214 C 
ATOM     33  H   UNL     1      -3.725 -12.292  15.556  0.00  0.00    +0.149 HD
BRANCH   5  18
ATOM     18  C   UNL     1      -3.250 -11.145  17.271  0.00  0.00    +0.139 C 
BRANCH  18  20
ATOM     20  C   UNL     1      -4.660 -10.655  17.429  0.00  0.00    -0.030 A 
ATOM     21  C   UNL     1      -5.289  -9.990  16.378  0.00  0.00    +0.005 A 
ATOM     22  C   UNL     1      -5.341 -10.868  18.627  0.00  0.00    +0.005 A 
ATOM     23  C   UNL     1      -6.600  -9.536  16.525  0.00  0.00    +0.000 A 
ATOM     24  C   UNL     1      -6.652 -10.413  18.774  0.00  0.00    +0.000 A 
ATOM     26  C   UNL     1      -7.282  -9.748  17.723  0.00  0.00    +0.000 A 
ENDBRANCH  18  20
ENDBRANCH   5  18
ENDBRANCH  13  15
ENDBRANCH   7  13
TORSDOF 9
ENDMDL
MODEL 3
REMARK VINA RESULT:      -6.8     18.967     20.731
REMARK  Name = 26743149
REMARK  9 active torsions:
REMARK  status: ('A' for Active; 'I' for Inactive)
REMARK    1  A    between atoms: O_3  and  C_19
REMARK    2  A    between atoms: O_3  and  C_25
REMARK    3  A    between atoms: N_5  and  C_18
REMARK    4  A    between atoms: C_7  and  C_13
REMARK    5  A    between atoms: C_8  and  C_12
REMARK    6  A    between atoms: C_12  and  C_14
REMARK    7  A    between atoms: C_13  and  C_15
REMARK    8  A    between atoms: C_17  and  C_19
REMARK    9  A    between atoms: C_18  and  C_20
REMARK                            x       y       z     vdW  Elec       q    Type
REMARK                         _______ _______ _______ _____ _____    ______ ____
ROOT
ATOM      4  N   UNL     1      -6.295 -12.871  18.778  0.00  0.00    -0.316 NA
ATOM      7  C   UNL     1      -6.605 -10.935  16.574  0.00  0.00    +0.004 C 
ATOM      8  C   UNL     1      -5.223 -11.375  17.111  0.00  0.00    +0.012 C 
ATOM      9  C   UNL     1      -7.636 -12.034  16.880  0.00  0.00    +0.019 C 
ATOM     10  C   UNL     1      -5.300 -11.816  18.583  0.00  0.00    +0.085 C 
ATOM     11  C   UNL     1      -7.627 -12.448  18.351  0.00  0.00    +0.081 C 
ATOM     32  H   UNL     1      -6.323 -13.130  19.764  0.00  0.00    +0.122 HD
ENDROOT
BRANCH   8  12
ATOM     12  C   UNL     1      -4.140 -10.310  16.926  0.00  0.00    +0.064 C 
BRANCH  12  14
ATOM      2  O   UNL     1      -1.353 -11.300  14.875  0.00  0.00    -0.356 OA
ATOM      6  N   UNL     1      -1.939 -11.026  16.104  0.00  0.00    -0.083 NA
ATOM     14  C   UNL     1      -3.196 -10.677  15.818  0.00  0.00    +0.084 A 
ATOM     16  C   UNL     1      -3.458 -10.712  14.437  0.00  0.00    +0.074 A 
ATOM     17  C   UNL     1      -2.267 -11.110  13.890  0.00  0.00    +0.175 A 
BRANCH  17  19
ATOM     19  C   UNL     1      -1.812 -11.356  12.517  0.00  0.00    +0.306 C 
BRANCH  19   3
ATOM      3  O   UNL     1      -2.860 -11.953  11.746  0.00  0.00    -0.484 OA
BRANCH   3  25
ATOM     25  C   UNL     1      -3.386 -11.193  10.739  0.00  0.00    +0.121 A 
ATOM     27  C   UNL     1      -3.138  -9.820  10.701  0.00  0.00    +0.045 A 
ATOM     28  C   UNL     1      -4.169 -11.789   9.752  0.00  0.00    +0.045 A 
ATOM     29  C   UNL     1      -3.675  -9.044   9.674  0.00  0.00    +0.004 A 
ATOM     30  C   UNL     1      -4.705 -11.012   8.725  0.00  0.00    +0.004 A 
ATOM     31  C   UNL     1      -4.459  -9.640   8.685  0.00  0.00    +0.000 A 
ENDBRANCH   3  25
ENDBRANCH  19   3
ENDBRANCH  17  19
ENDBRANCH  12  14
ENDBRANCH   8  12
BRANCH   7  13
ATOM     13  C   UNL     1      -7.079  -9.577  17.107  0.00  0.00    +0.099 C 
BRANCH  13  15
ATOM      1  O   UNL     1      -8.766  -9.225  15.409  0.00  0.00    -0.276 OA
ATOM      5  N   UNL     1      -9.301  -8.865  17.642  0.00  0.00    -0.311 N 
ATOM     15  C   UNL     1      -8.457  -9.212  16.597  0.00  0.00    +0.214 C 
ATOM     33  H   UNL     1      -8.942  -8.867  18.593  0.00  0.00    +0.149 HD
BRANCH   5  18
ATOM     18  C   UNL     1     -10.677  -8.469  17.445  0.00  0.00    +0.139 C 
BRANCH  18  20
ATOM     20  C   UNL     1     -11.620  -9.270  18.296  0.00  0.00    -0.030 A 
ATOM     21  C   UNL     1     -12.965  -9.371  17.941  0.00  0.00    +0.005 A 
ATOM     22  C   UNL     1     -11.150  -9.914  19.440  0.00  0.00    +0.005 A 
ATOM     23  C   UNL     1     -13.841 -10.116  18.731  0.00  0.00    +0.000 A 
ATOM     24  C   UNL     1     -12.027 -10.659  20.230  0.00  0.00    +0.000 A 
ATOM     26  C   UNL     1     -13.372 -10.760  19.876  0.00  0.00    +0.000 A 
ENDBRANCH  18  20
ENDBRANCH   5  18
ENDBRANCH  13  15
ENDBRANCH   7  13
TORSDOF 9
ENDMDL
MODEL 4
REMARK VINA RESULT:      -6.7     20.084     22.927
REMARK  Name = 26743149
REMARK  9 active torsions:
REMARK  status: ('A' for Active; 'I' for Inactive)
REMARK    1  A    between atoms: O_3  and  C_19
REMARK    2  A    between atoms: O_3  and  C_25
REMARK    3  A    between atoms: N_5  and  C_18
REMARK    4  A    between atoms: C_7  and  C_13
REMARK    5  A    between atoms: C_8  and  C_12
REMARK    6  A    between atoms: C_12  and  C_14
REMARK    7  A    between atoms: C_13  and  C_15
REMARK    8  A    between atoms: C_17  and  C_19
REMARK    9  A    between atoms: C_18  and  C_20
REMARK                            x       y       z     vdW  Elec       q    Type
REMARK                         _______ _______ _______ _____ _____    ______ ____
ROOT
ATOM      4  N   UNL     1      -6.941  -9.366   7.885  0.00  0.00    -0.316 NA
ATOM      7  C   UNL     1      -4.837 -10.228   9.765  0.00  0.00    +0.004 C 
ATOM      8  C   UNL     1      -6.245  -9.786  10.231  0.00  0.00    +0.012 C 
ATOM      9  C   UNL     1      -4.921 -10.723   8.312  0.00  0.00    +0.019 C 
ATOM     10  C   UNL     1      -6.890  -8.807   9.236  0.00  0.00    +0.085 C 
ATOM     11  C   UNL     1      -5.610  -9.715   7.392  0.00  0.00    +0.081 C 
ATOM     32  H   UNL     1      -7.366  -8.686   7.255  0.00  0.00    +0.122 HD
ENDROOT
BRANCH   8  12
ATOM     12  C   UNL     1      -6.253  -9.200  11.644  0.00  0.00    +0.064 C 
BRANCH  12  14
ATOM      2  O   UNL     1      -7.634 -11.913  13.565  0.00  0.00    -0.356 OA
ATOM      6  N   UNL     1      -6.809 -11.407  12.568  0.00  0.00    -0.083 NA
ATOM     14  C   UNL     1      -6.999 -10.086  12.600  0.00  0.00    +0.084 A 
ATOM     16  C   UNL     1      -7.925  -9.702  13.586  0.00  0.00    +0.074 A 
ATOM     17  C   UNL     1      -8.294 -10.889  14.164  0.00  0.00    +0.175 A 
BRANCH  17  19
ATOM     19  C   UNL     1      -9.215 -11.247  15.247  0.00  0.00    +0.306 C 
BRANCH  19   3
ATOM      3  O   UNL     1      -8.922 -10.484  16.421  0.00  0.00    -0.484 OA
BRANCH   3  25
ATOM     25  C   UNL     1      -7.935 -10.968  17.233  0.00  0.00    +0.121 A 
ATOM     27  C   UNL     1      -7.168 -10.089  17.999  0.00  0.00    +0.045 A 
ATOM     28  C   UNL     1      -7.693 -12.340  17.295  0.00  0.00    +0.045 A 
ATOM     29  C   UNL     1      -6.161 -10.583  18.827  0.00  0.00    +0.004 A 
ATOM     30  C   UNL     1      -6.686 -12.834  18.123  0.00  0.00    +0.004 A 
ATOM     31  C   UNL     1      -5.919 -11.955  18.890  0.00  0.00    +0.000 A 
ENDBRANCH   3  25
ENDBRANCH  19   3
ENDBRANCH  17  19
ENDBRANCH  12  14
ENDBRANCH   8  12
BRANCH   7  13
ATOM     13  C   UNL     1      -3.763  -9.143   9.911  0.00  0.00    +0.099 C 
BRANCH  13  15
ATOM      1  O   UNL     1      -1.519  -9.047  10.811  0.00  0.00    -0.276 OA
ATOM      5  N   UNL     1      -2.999 -10.654  11.604  0.00  0.00    -0.311 N 
ATOM     15  C   UNL     1      -2.624  -9.582  10.807  0.00  0.00    +0.214 C 
ATOM     33  H   UNL     1      -3.935 -11.039  11.511  0.00  0.00    +0.149 HD
BRANCH   5  18
ATOM     18  C   UNL     1      -2.108 -11.279  12.555  0.00  0.00    +0.139 C 
BRANCH  18  20
ATOM     20  C   UNL     1      -2.527 -11.021  13.973  0.00  0.00    -0.030 A 
ATOM     21  C   UNL     1      -3.865 -10.764  14.270  0.00  0.00    +0.005 A 
ATOM     22  C   UNL     1      -1.577 -11.039  14.994  0.00  0.00    +0.005 A 
ATOM     23  C   UNL     1      -4.254 -10.524  15.588  0.00  0.00    +0.000 A 
ATOM     24  C   UNL     1      -1.967 -10.799  16.312  0.00  0.00    +0.000 A 
ATOM     26  C   UNL     1      -3.305 -10.542  16.610  0.00  0.00    +0.000 A 
ENDBRANCH  18  20
ENDBRANCH   5  18
ENDBRANCH  13  15
ENDBRANCH   7  13
TORSDOF 9
ENDMDL
MODEL 5
REMARK VINA RESULT:      -6.6     20.613     23.030
REMARK  Name = 26743149
REMARK  9 active torsions:
REMARK  status: ('A' for Active; 'I' for Inactive)
REMARK    1  A    between atoms: O_3  and  C_19
REMARK    2  A    between atoms: O_3  and  C_25
REMARK    3  A    between atoms: N_5  and  C_18
REMARK    4  A    between atoms: C_7  and  C_13
REMARK    5  A    between atoms: C_8  and  C_12
REMARK    6  A    between atoms: C_12  and  C_14
REMARK    7  A    between atoms: C_13  and  C_15
REMARK    8  A    between atoms: C_17  and  C_19
REMARK    9  A    between atoms: C_18  and  C_20
REMARK                            x       y       z     vdW  Elec       q    Type
REMARK                         _______ _______ _______ _____ _____    ______ ____
ROOT
ATOM      4  N   UNL     1      -6.440 -12.163  17.602  0.00  0.00    -0.316 NA
ATOM      7  C   UNL     1      -4.601 -10.629  15.880  0.00  0.00    +0.004 C 
ATOM      8  C   UNL     1      -5.837 -11.377  15.326  0.00  0.00    +0.012 C 
ATOM      9  C   UNL     1      -4.837 -10.299  17.364  0.00  0.00    +0.019 C 
ATOM     10  C   UNL     1      -6.223 -12.571  16.215  0.00  0.00    +0.085 C 
ATOM     11  C   UNL     1      -5.256 -11.526  18.174  0.00  0.00    +0.081 C 
ATOM     32  H   UNL     1      -6.685 -12.981  18.160  0.00  0.00    +0.122 HD
ENDROOT
BRANCH   8  12
ATOM     12  C   UNL     1      -5.667 -11.821  13.872  0.00  0.00    +0.064 C 
BRANCH  12  14
ATOM      2  O   UNL     1      -6.335  -8.852  11.950  0.00  0.00    -0.356 OA
ATOM      6  N   UNL     1      -5.656  -9.548  12.943  0.00  0.00    -0.083 NA
ATOM     14  C   UNL     1      -6.174 -10.778  12.918  0.00  0.00    +0.084 A 
ATOM     16  C   UNL     1      -7.174 -10.918  11.941  0.00  0.00    +0.074 A 
ATOM     17  C   UNL     1      -7.237  -9.678  11.360  0.00  0.00    +0.175 A 
BRANCH  17  19
ATOM     19  C   UNL     1      -8.047  -9.101  10.282  0.00  0.00    +0.306 C 
BRANCH  19   3
ATOM      3  O   UNL     1      -7.638  -9.629   9.017  0.00  0.00    -0.484 OA
BRANCH   3  25
ATOM     25  C   UNL     1      -7.912  -8.862   7.919  0.00  0.00    +0.121 A 
ATOM     27  C   UNL     1      -7.454  -9.257   6.661  0.00  0.00    +0.045 A 
ATOM     28  C   UNL     1      -8.649  -7.686   8.055  0.00  0.00    +0.045 A 
ATOM     29  C   UNL     1      -7.734  -8.476   5.541  0.00  0.00    +0.004 A 
ATOM     30  C   UNL     1      -8.929  -6.905   6.934  0.00  0.00    +0.004 A 
ATOM     31  C   UNL     1      -8.471  -7.299   5.677  0.00  0.00    +0.000 A 
ENDBRANCH   3  25
ENDBRANCH  19   3
ENDBRANCH  17  19
ENDBRANCH  12  14
ENDBRANCH   8  12
BRANCH   7  13
ATOM     13  C   UNL     1      -3.279 -11.383  15.692  0.00  0.00    +0.099 C 
BRANCH  13  15
ATOM      1  O   UNL     1      -1.439  -9.945  15.057  0.00  0.00    -0.276 OA
ATOM      5  N   UNL     1      -2.689 -10.997  13.404  0.00  0.00    -0.311 N 
ATOM     15  C   UNL     1      -2.356 -10.686  14.714  0.00  0.00    +0.214 C 
ATOM     33  H   UNL     1      -3.481 -11.608  13.223  0.00  0.00    +0.149 HD
BRANCH   5  18
ATOM     18  C   UNL     1      -1.976 -10.469  12.263  0.00  0.00    +0.139 C 
BRANCH  18  20
ATOM     20  C   UNL     1      -2.844 -10.395  11.041  0.00  0.00    -0.030 A 
ATOM     21  C   UNL     1      -3.046  -9.173  10.401  0.00  0.00    +0.005 A 
ATOM     22  C   UNL     1      -3.447 -11.551  10.545  0.00  0.00    +0.005 A 
ATOM     23  C   UNL     1      -3.853  -9.105   9.265  0.00  0.00    +0.000 A 
ATOM     24  C   UNL     1      -4.254 -11.483   9.409  0.00  0.00    +0.000 A 
ATOM     26  C   UNL     1      -4.457 -10.261   8.768  0.00  0.00    +0.000 A 
ENDBRANCH  18  20
ENDBRANCH   5  18
ENDBRANCH  13  15
ENDBRANCH   7  13
TORSDOF 9
ENDMDL
MODEL 6
REMARK VINA RESULT:      -6.6      2.216      3.457
REMARK  Name = 26743149
REMARK  9 active torsions:
REMARK  status: ('A' for Active; 'I' for Inactive)
REMARK    1  A    between atoms: O_3  and  C_19
REMARK    2  A    between atoms: O_3  and  C_25
REMARK    3  A    between atoms: N_5  and  C_18
REMARK    4  A    between atoms: C_7  and  C_13
REMARK    5  A    between atoms: C_8  and  C_12
REMARK    6  A    between atoms: C_12  and  C_14
REMARK    7  A    between atoms: C_13  and  C_15
REMARK    8  A    between atoms: C_17  and  C_19
REMARK    9  A    between atoms: C_18  and  C_20
REMARK                            x       y       z     vdW  Elec       q    Type
REMARK                         _______ _______ _______ _____ _____    ______ ____
ROOT
ATOM      4  N   UNL     1     -18.660   6.937  25.141  0.00  0.00    -0.316 NA
ATOM      7  C   UNL     1     -16.925   4.564  25.383  0.00  0.00    +0.004 C 
ATOM      8  C   UNL     1     -16.880   5.511  24.161  0.00  0.00    +0.012 C 
ATOM      9  C   UNL     1     -17.470   5.335  26.597  0.00  0.00    +0.019 C 
ATOM     10  C   UNL     1     -18.227   6.219  23.942  0.00  0.00    +0.085 C 
ATOM     11  C   UNL     1     -18.789   6.045  26.292  0.00  0.00    +0.081 C 
ATOM     32  H   UNL     1     -19.559   7.385  24.960  0.00  0.00    +0.122 HD
ENDROOT
BRANCH   8  12
ATOM     12  C   UNL     1     -16.425   4.813  22.878  0.00  0.00    +0.064 C 
BRANCH  12  14
ATOM      2  O   UNL     1     -12.831   5.012  22.829  0.00  0.00    -0.356 OA
ATOM      6  N   UNL     1     -14.031   4.568  23.371  0.00  0.00    -0.083 NA
ATOM     14  C   UNL     1     -14.978   5.091  22.588  0.00  0.00    +0.084 A 
ATOM     16  C   UNL     1     -14.442   5.867  21.546  0.00  0.00    +0.074 A 
ATOM     17  C   UNL     1     -13.088   5.785  21.743  0.00  0.00    +0.175 A 
BRANCH  17  19
ATOM     19  C   UNL     1     -11.924   6.342  21.044  0.00  0.00    +0.306 C 
BRANCH  19   3
ATOM      3  O   UNL     1     -12.117   7.737  20.793  0.00  0.00    -0.484 OA
BRANCH   3  25
ATOM     25  C   UNL     1     -11.465   8.257  19.709  0.00  0.00    +0.121 A 
ATOM     27  C   UNL     1     -11.394   7.527  18.522  0.00  0.00    +0.045 A 
ATOM     28  C   UNL     1     -10.871   9.516  19.791  0.00  0.00    +0.045 A 
ATOM     29  C   UNL     1     -10.729   8.057  17.417  0.00  0.00    +0.004 A 
ATOM     30  C   UNL     1     -10.206  10.045  18.685  0.00  0.00    +0.004 A 
ATOM     31  C   UNL     1     -10.134   9.316  17.498  0.00  0.00    +0.000 A 
ENDBRANCH   3  25
ENDBRANCH  19   3
ENDBRANCH  17  19
ENDBRANCH  12  14
ENDBRANCH   8  12
BRANCH   7  13
ATOM     13  C   UNL     1     -17.728   3.278  25.148  0.00  0.00    +0.099 C 
BRANCH  13  15
ATOM      1  O   UNL     1     -16.439   1.233  25.041  0.00  0.00    -0.276 OA
ATOM      5  N   UNL     1     -17.180   2.010  27.103  0.00  0.00    -0.311 N 
ATOM     15  C   UNL     1     -17.039   2.059  25.724  0.00  0.00    +0.214 C 
ATOM     33  H   UNL     1     -17.714   2.735  27.574  0.00  0.00    +0.149 HD
BRANCH   5  18
ATOM     18  C   UNL     1     -16.624   0.952  27.915  0.00  0.00    +0.139 C 
BRANCH  18  20
ATOM     20  C   UNL     1     -15.607   1.468  28.892  0.00  0.00    -0.030 A 
ATOM     21  C   UNL     1     -14.829   0.573  29.626  0.00  0.00    +0.005 A 
ATOM     22  C   UNL     1     -15.441   2.841  29.064  0.00  0.00    +0.005 A 
ATOM     23  C   UNL     1     -13.884   1.053  30.534  0.00  0.00    +0.000 A 
ATOM     24  C   UNL     1     -14.496   3.320  29.972  0.00  0.00    +0.000 A 
ATOM     26  C   UNL     1     -13.718   2.427  30.707  0.00  0.00    +0.000 A 
ENDBRANCH  18  20
ENDBRANCH   5  18
ENDBRANCH  13  15
ENDBRANCH   7  13
TORSDOF 9
ENDMDL
MODEL 7
REMARK VINA RESULT:      -6.5     19.036     20.895
REMARK  Name = 26743149
REMARK  9 active torsions:
REMARK  status: ('A' for Active; 'I' for Inactive)
REMARK    1  A    between atoms: O_3  and  C_19
REMARK    2  A    between atoms: O_3  and  C_25
REMARK    3  A    between atoms: N_5  and  C_18
REMARK    4  A    between atoms: C_7  and  C_13
REMARK    5  A    between atoms: C_8  and  C_12
REMARK    6  A    between atoms: C_12  and  C_14
REMARK    7  A    between atoms: C_13  and  C_15
REMARK    8  A    between atoms: C_17  and  C_19
REMARK    9  A    between atoms: C_18  and  C_20
REMARK                            x       y       z     vdW  Elec       q    Type
REMARK                         _______ _______ _______ _____ _____    ______ ____
ROOT
ATOM      4  N   UNL     1      -6.099 -14.067  17.605  0.00  0.00    -0.316 NA
ATOM      7  C   UNL     1      -6.973 -11.282  17.177  0.00  0.00    +0.004 C 
ATOM      8  C   UNL     1      -5.533 -11.762  16.877  0.00  0.00    +0.012 C 
ATOM      9  C   UNL     1      -7.929 -12.485  17.105  0.00  0.00    +0.019 C 
ATOM     10  C   UNL     1      -5.144 -12.968  17.748  0.00  0.00    +0.085 C 
ATOM     11  C   UNL     1      -7.455 -13.658  17.963  0.00  0.00    +0.081 C 
ATOM     32  H   UNL     1      -5.812 -14.842  18.203  0.00  0.00    +0.122 HD
ENDROOT
BRANCH   8  12
ATOM     12  C   UNL     1      -4.492 -10.648  17.003  0.00  0.00    +0.064 C 
BRANCH  12  14
ATOM      2  O   UNL     1      -1.439 -10.820  15.104  0.00  0.00    -0.356 OA
ATOM      6  N   UNL     1      -2.141 -10.651  16.291  0.00  0.00    -0.083 NA
ATOM     14  C   UNL     1      -3.427 -10.773  15.952  0.00  0.00    +0.084 A 
ATOM     16  C   UNL     1      -3.597 -11.017  14.579  0.00  0.00    +0.074 A 
ATOM     17  C   UNL     1      -2.316 -11.038  14.091  0.00  0.00    +0.175 A 
BRANCH  17  19
ATOM     19  C   UNL     1      -1.741 -11.238  12.757  0.00  0.00    +0.306 C 
BRANCH  19   3
ATOM      3  O   UNL     1      -1.966 -10.085  11.941  0.00  0.00    -0.484 OA
BRANCH   3  25
ATOM     25  C   UNL     1      -2.858 -10.228  10.915  0.00  0.00    +0.121 A 
ATOM     27  C   UNL     1      -3.270  -9.111  10.188  0.00  0.00    +0.045 A 
ATOM     28  C   UNL     1      -3.357 -11.491  10.595  0.00  0.00    +0.045 A 
ATOM     29  C   UNL     1      -4.180  -9.257   9.142  0.00  0.00    +0.004 A 
ATOM     30  C   UNL     1      -4.267 -11.637   9.549  0.00  0.00    +0.004 A 
ATOM     31  C   UNL     1      -4.679 -10.520   8.821  0.00  0.00    +0.000 A 
ENDBRANCH   3  25
ENDBRANCH  19   3
ENDBRANCH  17  19
ENDBRANCH  12  14
ENDBRANCH   8  12
BRANCH   7  13
ATOM     13  C   UNL     1      -7.120 -10.548  18.516  0.00  0.00    +0.099 C 
BRANCH  13  15
ATOM      1  O   UNL     1      -9.114 -10.832  19.857  0.00  0.00    -0.276 OA
ATOM      5  N   UNL     1      -9.183  -9.454  17.986  0.00  0.00    -0.311 N 
ATOM     15  C   UNL     1      -8.570 -10.315  18.885  0.00  0.00    +0.214 C 
ATOM     33  H   UNL     1      -8.649  -9.094  17.200  0.00  0.00    +0.149 HD
BRANCH   5  18
ATOM     18  C   UNL     1     -10.568  -9.058  18.094  0.00  0.00    +0.139 C 
BRANCH  18  20
ATOM     20  C   UNL     1     -11.029  -8.287  16.890  0.00  0.00    -0.030 A 
ATOM     21  C   UNL     1     -11.584  -8.959  15.802  0.00  0.00    +0.005 A 
ATOM     22  C   UNL     1     -10.902  -6.899  16.863  0.00  0.00    +0.005 A 
ATOM     23  C   UNL     1     -12.012  -8.242  14.684  0.00  0.00    +0.000 A 
ATOM     24  C   UNL     1     -11.330  -6.182  15.744  0.00  0.00    +0.000 A 
ATOM     26  C   UNL     1     -11.885  -6.853  14.655  0.00  0.00    +0.000 A 
ENDBRANCH  18  20
ENDBRANCH   5  18
ENDBRANCH  13  15
ENDBRANCH   7  13
TORSDOF 9
ENDMDL
MODEL 8
REMARK VINA RESULT:      -6.5     15.598     17.120
REMARK  Name = 26743149
REMARK  9 active torsions:
REMARK  status: ('A' for Active; 'I' for Inactive)
REMARK    1  A    between atoms: O_3  and  C_19
REMARK    2  A    between atoms: O_3  and  C_25
REMARK    3  A    between atoms: N_5  and  C_18
REMARK    4  A    between atoms: C_7  and  C_13
REMARK    5  A    between atoms: C_8  and  C_12
REMARK    6  A    between atoms: C_12  and  C_14
REMARK    7  A    between atoms: C_13  and  C_15
REMARK    8  A    between atoms: C_17  and  C_19
REMARK    9  A    between atoms: C_18  and  C_20
REMARK                            x       y       z     vdW  Elec       q    Type
REMARK                         _______ _______ _______ _____ _____    ______ ____
ROOT
ATOM      4  N   UNL     1     -13.862  -9.907  19.304  0.00  0.00    -0.316 NA
ATOM      7  C   UNL     1     -10.917  -9.933  19.144  0.00  0.00    +0.004 C 
ATOM      8  C   UNL     1     -11.805  -9.254  18.075  0.00  0.00    +0.012 C 
ATOM      9  C   UNL     1     -11.688  -9.996  20.473  0.00  0.00    +0.019 C 
ATOM     10  C   UNL     1     -13.198  -9.903  18.000  0.00  0.00    +0.085 C 
ATOM     11  C   UNL     1     -13.076 -10.615  20.312  0.00  0.00    +0.081 C 
ATOM     32  H   UNL     1     -14.776 -10.352  19.215  0.00  0.00    +0.122 HD
ENDROOT
BRANCH   8  12
ATOM     12  C   UNL     1     -11.155  -9.215  16.691  0.00  0.00    +0.064 C 
BRANCH  12  14
ATOM      2  O   UNL     1     -10.852  -5.852  15.444  0.00  0.00    -0.356 OA
ATOM      6  N   UNL     1     -10.376  -6.949  16.151  0.00  0.00    -0.083 NA
ATOM     14  C   UNL     1     -11.333  -7.873  16.041  0.00  0.00    +0.084 A 
ATOM     16  C   UNL     1     -12.428  -7.421  15.284  0.00  0.00    +0.074 A 
ATOM     17  C   UNL     1     -12.075  -6.144  14.933  0.00  0.00    +0.175 A 
BRANCH  17  19
ATOM     19  C   UNL     1     -12.729  -5.088  14.152  0.00  0.00    +0.306 C 
BRANCH  19   3
ATOM      3  O   UNL     1     -11.920  -4.728  13.029  0.00  0.00    -0.484 OA
BRANCH   3  25
ATOM     25  C   UNL     1     -12.574  -4.203  11.950  0.00  0.00    +0.121 A 
ATOM     27  C   UNL     1     -11.979  -4.240  10.688  0.00  0.00    +0.045 A 
ATOM     28  C   UNL     1     -13.835  -3.629  12.110  0.00  0.00    +0.045 A 
ATOM     29  C   UNL     1     -12.646  -3.704   9.587  0.00  0.00    +0.004 A 
ATOM     30  C   UNL     1     -14.501  -3.093  11.008  0.00  0.00    +0.004 A 
ATOM     31  C   UNL     1     -13.907  -3.130   9.746  0.00  0.00    +0.000 A 
ENDBRANCH   3  25
ENDBRANCH  19   3
ENDBRANCH  17  19
ENDBRANCH  12  14
ENDBRANCH   8  12
BRANCH   7  13
ATOM     13  C   UNL     1     -10.407 -11.322  18.742  0.00  0.00    +0.099 C 
BRANCH  13  15
ATOM      1  O   UNL     1      -8.657 -12.642  19.767  0.00  0.00    -0.276 OA
ATOM      5  N   UNL     1      -8.183 -10.486  19.037  0.00  0.00    -0.311 N 
ATOM     15  C   UNL     1      -9.004 -11.586  19.245  0.00  0.00    +0.214 C 
ATOM     33  H   UNL     1      -8.573  -9.649  18.613  0.00  0.00    +0.149 HD
BRANCH   5  18
ATOM     18  C   UNL     1      -6.791 -10.457  19.423  0.00  0.00    +0.139 C 
BRANCH  18  20
ATOM     20  C   UNL     1      -5.876 -10.520  18.234  0.00  0.00    -0.030 A 
ATOM     21  C   UNL     1      -6.247  -9.911  17.037  0.00  0.00    +0.005 A 
ATOM     22  C   UNL     1      -4.655 -11.186  18.330  0.00  0.00    +0.005 A 
ATOM     23  C   UNL     1      -5.396  -9.968  15.932  0.00  0.00    +0.000 A 
ATOM     24  C   UNL     1      -3.804 -11.243  17.225  0.00  0.00    +0.000 A 
ATOM     26  C   UNL     1      -4.174 -10.635  16.027  0.00  0.00    +0.000 A 
ENDBRANCH  18  20
ENDBRANCH   5  18
ENDBRANCH  13  15
ENDBRANCH   7  13
TORSDOF 9
ENDMDL
MODEL 9
REMARK VINA RESULT:      -6.4     16.524     18.259
REMARK  Name = 26743149
REMARK  9 active torsions:
REMARK  status: ('A' for Active; 'I' for Inactive)
REMARK    1  A    between atoms: O_3  and  C_19
REMARK    2  A    between atoms: O_3  and  C_25
REMARK    3  A    between atoms: N_5  and  C_18
REMARK    4  A    between atoms: C_7  and  C_13
REMARK    5  A    between atoms: C_8  and  C_12
REMARK    6  A    between atoms: C_12  and  C_14
REMARK    7  A    between atoms: C_13  and  C_15
REMARK    8  A    between atoms: C_17  and  C_19
REMARK    9  A    between atoms: C_18  and  C_20
REMARK                            x       y       z     vdW  Elec       q    Type
REMARK                         _______ _______ _______ _____ _____    ______ ____
ROOT
ATOM      4  N   UNL     1     -11.853 -11.992  18.382  0.00  0.00    -0.316 NA
ATOM      7  C   UNL     1      -9.246 -11.192  19.505  0.00  0.00    +0.004 C 
ATOM      8  C   UNL     1      -9.998 -10.343  18.454  0.00  0.00    +0.012 C 
ATOM      9  C   UNL     1     -10.259 -12.063  20.267  0.00  0.00    +0.019 C 
ATOM     10  C   UNL     1     -10.915 -11.211  17.575  0.00  0.00    +0.085 C 
ATOM     11  C   UNL     1     -11.161 -12.864  19.329  0.00  0.00    +0.081 C 
ATOM     32  H   UNL     1     -12.436 -12.559  17.766  0.00  0.00    +0.122 HD
ENDROOT
BRANCH   8  12
ATOM     12  C   UNL     1      -9.065  -9.498  17.586  0.00  0.00    +0.064 C 
BRANCH  12  14
ATOM      2  O   UNL     1     -10.579  -7.761  14.821  0.00  0.00    -0.356 OA
ATOM      6  N   UNL     1      -9.754  -8.745  15.352  0.00  0.00    -0.083 NA
ATOM     14  C   UNL     1      -9.838  -8.589  16.675  0.00  0.00    +0.084 A 
ATOM     16  C   UNL     1     -10.694  -7.533  17.035  0.00  0.00    +0.074 A 
ATOM     17  C   UNL     1     -11.133  -7.046  15.832  0.00  0.00    +0.175 A 
BRANCH  17  19
ATOM     19  C   UNL     1     -12.039  -5.959  15.447  0.00  0.00    +0.306 C 
BRANCH  19   3
ATOM      3  O   UNL     1     -11.648  -5.410  14.185  0.00  0.00    -0.484 OA
BRANCH   3  25
ATOM     25  C   UNL     1     -12.630  -4.801  13.454  0.00  0.00    +0.121 A 
ATOM     27  C   UNL     1     -12.289  -3.899  12.446  0.00  0.00    +0.045 A 
ATOM     28  C   UNL     1     -13.971  -5.080  13.716  0.00  0.00    +0.045 A 
ATOM     29  C   UNL     1     -13.290  -3.276  11.700  0.00  0.00    +0.004 A 
ATOM     30  C   UNL     1     -14.971  -4.458  12.970  0.00  0.00    +0.004 A 
ATOM     31  C   UNL     1     -14.631  -3.555  11.962  0.00  0.00    +0.000 A 
ENDBRANCH   3  25
ENDBRANCH  19   3
ENDBRANCH  17  19
ENDBRANCH  12  14
ENDBRANCH   8  12
BRANCH   7  13
ATOM     13  C   UNL     1      -8.117 -12.052  18.922  0.00  0.00    +0.099 C 
BRANCH  13  15
ATOM      1  O   UNL     1      -6.387 -11.205  20.387  0.00  0.00    -0.276 OA
ATOM      5  N   UNL     1      -5.973 -11.368  18.106  0.00  0.00    -0.311 N 
ATOM     15  C   UNL     1      -6.747 -11.497  19.250  0.00  0.00    +0.214 C 
ATOM     33  H   UNL     1      -6.371 -11.621  17.206  0.00  0.00    +0.149 HD
BRANCH   5  18
ATOM     18  C   UNL     1      -4.620 -10.861  18.123  0.00  0.00    +0.139 C 
BRANCH  18  20
ATOM     20  C   UNL     1      -4.031 -10.781  16.744  0.00  0.00    -0.030 A 
ATOM     21  C   UNL     1      -2.648 -10.808  16.574  0.00  0.00    +0.005 A 
ATOM     22  C   UNL     1      -4.869 -10.682  15.634  0.00  0.00    +0.005 A 
ATOM     23  C   UNL     1      -2.101 -10.735  15.292  0.00  0.00    +0.000 A 
ATOM     24  C   UNL     1      -4.322 -10.609  14.352  0.00  0.00    +0.000 A 
ATOM     26  C   UNL     1      -2.938 -10.635  14.181  0.00  0.00    +0.000 A 
ENDBRANCH  18  20
ENDBRANCH   5  18
ENDBRANCH  13  15
ENDBRANCH   7  13
TORSDOF 9
ENDMDL
MODEL 10
REMARK VINA RESULT:      -6.4     15.595     17.112
REMARK  Name = 26743149
REMARK  9 active torsions:
REMARK  status: ('A' for Active; 'I' for Inactive)
REMARK    1  A    between atoms: O_3  and  C_19
REMARK    2  A    between atoms: O_3  and  C_25
REMARK    3  A    between atoms: N_5  and  C_18
REMARK    4  A    between atoms: C_7  and  C_13
REMARK    5  A    between atoms: C_8  and  C_12
REMARK    6  A    between atoms: C_12  and  C_14
REMARK    7  A    between atoms: C_13  and  C_15
REMARK    8  A    between atoms: C_17  and  C_19
REMARK    9  A    between atoms: C_18  and  C_20
REMARK                            x       y       z     vdW  Elec       q    Type
REMARK                         _______ _______ _______ _____ _____    ______ ____
ROOT
ATOM      4  N   UNL     1     -14.134 -10.845  17.976  0.00  0.00    -0.316 NA
ATOM      7  C   UNL     1     -11.815  -9.102  17.441  0.00  0.00    +0.004 C 
ATOM      8  C   UNL     1     -13.029  -9.193  16.488  0.00  0.00    +0.012 C 
ATOM      9  C   UNL     1     -12.257  -9.503  18.859  0.00  0.00    +0.019 C 
ATOM     10  C   UNL     1     -13.737 -10.554  16.598  0.00  0.00    +0.085 C 
ATOM     11  C   UNL     1     -12.988 -10.845  18.883  0.00  0.00    +0.081 C 
ATOM     32  H   UNL     1     -14.590 -11.756  18.010  0.00  0.00    +0.122 HD
ENDROOT
BRANCH   8  12
ATOM     12  C   UNL     1     -12.673  -8.889  15.031  0.00  0.00    +0.064 C 
BRANCH  12  14
ATOM      2  O   UNL     1     -12.673  -5.321  14.562  0.00  0.00    -0.356 OA
ATOM      6  N   UNL     1     -12.106  -6.499  15.031  0.00  0.00    -0.083 NA
ATOM     14  C   UNL     1     -12.967  -7.459  14.683  0.00  0.00    +0.084 A 
ATOM     16  C   UNL     1     -14.085  -6.951  13.998  0.00  0.00    +0.074 A 
ATOM     17  C   UNL     1     -13.850  -5.602  13.949  0.00  0.00    +0.175 A 
BRANCH  17  19
ATOM     19  C   UNL     1     -14.588  -4.463  13.391  0.00  0.00    +0.306 C 
BRANCH  19   3
ATOM      3  O   UNL     1     -13.680  -3.434  12.987  0.00  0.00    -0.484 OA
BRANCH   3  25
ATOM     25  C   UNL     1     -13.298  -3.438  11.674  0.00  0.00    +0.121 A 
ATOM     27  C   UNL     1     -14.255  -3.296  10.670  0.00  0.00    +0.045 A 
ATOM     28  C   UNL     1     -11.952  -3.585  11.340  0.00  0.00    +0.045 A 
ATOM     29  C   UNL     1     -13.867  -3.301   9.331  0.00  0.00    +0.004 A 
ATOM     30  C   UNL     1     -11.563  -3.590  10.001  0.00  0.00    +0.004 A 
ATOM     31  C   UNL     1     -12.520  -3.448   8.995  0.00  0.00    +0.000 A 
ENDBRANCH   3  25
ENDBRANCH  19   3
ENDBRANCH  17  19
ENDBRANCH  12  14
ENDBRANCH   8  12
BRANCH   7  13
ATOM     13  C   UNL     1     -10.605  -9.932  16.992  0.00  0.00    +0.099 C 
BRANCH  13  15
ATOM      1  O   UNL     1      -9.276  -7.926  17.246  0.00  0.00    -0.276 OA
ATOM      5  N   UNL     1      -8.221  -9.941  16.767  0.00  0.00    -0.311 N 
ATOM     15  C   UNL     1      -9.319  -9.132  17.023  0.00  0.00    +0.214 C 
ATOM     33  H   UNL     1      -8.366 -10.929  16.574  0.00  0.00    +0.149 HD
BRANCH   5  18
ATOM     18  C   UNL     1      -6.866  -9.442  16.732  0.00  0.00    +0.139 C 
BRANCH  18  20
ATOM     20  C   UNL     1      -5.934 -10.285  17.553  0.00  0.00    -0.030 A 
ATOM     21  C   UNL     1      -6.339 -10.762  18.798  0.00  0.00    +0.005 A 
ATOM     22  C   UNL     1      -4.663 -10.592  17.067  0.00  0.00    +0.005 A 
ATOM     23  C   UNL     1      -5.473 -11.546  19.561  0.00  0.00    +0.000 A 
ATOM     24  C   UNL     1      -3.797 -11.377  17.830  0.00  0.00    +0.000 A 
ATOM     26  C   UNL     1      -4.201 -11.853  19.076  0.00  0.00    +0.000 A 
ENDBRANCH  18  20
ENDBRANCH   5  18
ENDBRANCH  13  15
ENDBRANCH   7  13
TORSDOF 9
ENDMDL
