MODEL 1
REMARK VINA RESULT:      -6.2      0.000      0.000
REMARK  Name = 25390428
REMARK  10 active torsions:
REMARK  status: ('A' for Active; 'I' for Inactive)
REMARK    1  A    between atoms: O_2  and  C_8
REMARK    2  A    between atoms: O_3  and  C_10
REMARK    3  A    between atoms: N_6  and  C_13
REMARK    4  A    between atoms: N_7  and  C_15
REMARK    5  A    between atoms: C_9  and  C_12
REMARK    6  A    between atoms: C_11  and  C_13
REMARK    7  A    between atoms: C_12  and  C_14
REMARK    8  A    between atoms: C_15  and  C_17
REMARK    9  A    between atoms: C_15  and  C_18
REMARK   10  A    between atoms: C_16  and  C_19
REMARK                            x       y       z     vdW  Elec       q    Type
REMARK                         _______ _______ _______ _____ _____    ______ ____
ROOT
ATOM      1  O   UNL     1      11.363   8.861  19.971  0.00  0.00    -0.366 OA
ATOM      8  C   UNL     1      12.111   6.975  21.173  0.00  0.00    +0.175 C 
ATOM      9  C   UNL     1      11.722   7.479  19.794  0.00  0.00    +0.158 C 
ATOM     10  C   UNL     1      11.149   7.740  22.058  0.00  0.00    +0.176 C 
ATOM     11  C   UNL     1      11.100   9.101  21.372  0.00  0.00    +0.167 C 
ENDROOT
BRANCH   8   2
ATOM      2  O   UNL     1      11.979   5.574  21.283  0.00  0.00    -0.387 OA
ATOM     20  H   UNL     1      11.264   5.300  20.684  0.00  0.00    +0.210 HD
ENDBRANCH   8   2
BRANCH  10   3
ATOM      3  O   UNL     1       9.846   7.162  21.988  0.00  0.00    -0.387 OA
ATOM     21  H   UNL     1       9.944   6.206  22.139  0.00  0.00    +0.210 HD
ENDBRANCH  10   3
BRANCH   9  12
ATOM     12  C   UNL     1      12.840   7.368  18.773  0.00  0.00    +0.130 C 
BRANCH  12  14
ATOM      4  O   UNL     1      14.453   8.916  19.696  0.00  0.00    -0.276 OA
ATOM      7  N   UNL     1      15.060   6.692  19.395  0.00  0.00    -0.313 N 
ATOM     14  C   UNL     1      14.189   7.771  19.339  0.00  0.00    +0.216 C 
ATOM     23  H   UNL     1      14.720   5.772  19.130  0.00  0.00    +0.149 HD
BRANCH   7  15
ATOM     15  C   UNL     1      16.413   6.796  19.892  0.00  0.00    +0.067 C 
ATOM     17  C   UNL     1      17.337   5.875  19.107  0.00  0.00    +0.027 C 
ATOM     18  C   UNL     1      16.460   6.485  21.384  0.00  0.00    +0.027 C 
ENDBRANCH   7  15
ENDBRANCH  12  14
ENDBRANCH   9  12
BRANCH  11  13
ATOM     13  C   UNL     1      12.159  10.066  21.886  0.00  0.00    +0.138 C 
BRANCH  13   6
ATOM      5  O   UNL     1      10.804  12.426  22.899  0.00  0.00    -0.276 OA
ATOM      6  N   UNL     1      11.920  10.414  23.256  0.00  0.00    -0.313 N 
ATOM     16  C   UNL     1      11.260  11.571  23.653  0.00  0.00    +0.210 C 
ATOM     19  C   UNL     1      11.123  11.677  25.148  0.00  0.00    +0.109 C 
ATOM     22  H   UNL     1      12.241   9.764  23.969  0.00  0.00    +0.149 HD
ENDBRANCH  13   6
ENDBRANCH  11  13
TORSDOF 7
ENDMDL
MODEL 2
REMARK VINA RESULT:      -6.0     28.908     30.354
REMARK  Name = 25390428
REMARK  10 active torsions:
REMARK  status: ('A' for Active; 'I' for Inactive)
REMARK    1  A    between atoms: O_2  and  C_8
REMARK    2  A    between atoms: O_3  and  C_10
REMARK    3  A    between atoms: N_6  and  C_13
REMARK    4  A    between atoms: N_7  and  C_15
REMARK    5  A    between atoms: C_9  and  C_12
REMARK    6  A    between atoms: C_11  and  C_13
REMARK    7  A    between atoms: C_12  and  C_14
REMARK    8  A    between atoms: C_15  and  C_17
REMARK    9  A    between atoms: C_15  and  C_18
REMARK   10  A    between atoms: C_16  and  C_19
REMARK                            x       y       z     vdW  Elec       q    Type
REMARK                         _______ _______ _______ _____ _____    ______ ____
ROOT
ATOM      1  O   UNL     1     -13.634   2.529  31.594  0.00  0.00    -0.366 OA
ATOM      8  C   UNL     1     -14.934   0.588  31.273  0.00  0.00    +0.175 C 
ATOM      9  C   UNL     1     -14.065   1.335  32.270  0.00  0.00    +0.158 C 
ATOM     10  C   UNL     1     -14.234   0.901  29.967  0.00  0.00    +0.176 C 
ATOM     11  C   UNL     1     -13.816   2.353  30.171  0.00  0.00    +0.167 C 
ENDROOT
BRANCH   8   2
ATOM      2  O   UNL     1     -14.999  -0.793  31.556  0.00  0.00    -0.387 OA
ATOM     20  H   UNL     1     -15.934  -1.020  31.693  0.00  0.00    +0.210 HD
ENDBRANCH   8   2
BRANCH  10   3
ATOM      3  O   UNL     1     -13.050   0.113  29.838  0.00  0.00    -0.387 OA
ATOM     21  H   UNL     1     -13.085  -0.577  30.522  0.00  0.00    +0.210 HD
ENDBRANCH  10   3
BRANCH   9  12
ATOM     12  C   UNL     1     -14.797   1.706  33.548  0.00  0.00    +0.130 C 
BRANCH  12  14
ATOM      4  O   UNL     1     -16.406   3.486  33.248  0.00  0.00    -0.276 OA
ATOM      7  N   UNL     1     -14.251   4.013  33.940  0.00  0.00    -0.313 N 
ATOM     14  C   UNL     1     -15.266   3.149  33.553  0.00  0.00    +0.216 C 
ATOM     23  H   UNL     1     -13.358   3.622  34.230  0.00  0.00    +0.149 HD
BRANCH   7  15
ATOM     15  C   UNL     1     -14.425   5.444  34.030  0.00  0.00    +0.067 C 
ATOM     17  C   UNL     1     -13.895   6.121  32.773  0.00  0.00    +0.027 C 
ATOM     18  C   UNL     1     -13.743   5.988  35.281  0.00  0.00    +0.027 C 
ENDBRANCH   7  15
ENDBRANCH  12  14
ENDBRANCH   9  12
BRANCH  11  13
ATOM     13  C   UNL     1     -14.872   3.347  29.709  0.00  0.00    +0.138 C 
BRANCH  13   6
ATOM      5  O   UNL     1     -17.358   3.481  28.214  0.00  0.00    -0.276 OA
ATOM      6  N   UNL     1     -15.037   3.304  28.286  0.00  0.00    -0.313 N 
ATOM     16  C   UNL     1     -16.272   3.374  27.651  0.00  0.00    +0.210 C 
ATOM     19  C   UNL     1     -16.156   3.333  26.150  0.00  0.00    +0.109 C 
ATOM     22  H   UNL     1     -14.197   3.235  27.717  0.00  0.00    +0.149 HD
ENDBRANCH  13   6
ENDBRANCH  11  13
TORSDOF 7
ENDMDL
MODEL 3
REMARK VINA RESULT:      -6.0     28.538     30.177
REMARK  Name = 25390428
REMARK  10 active torsions:
REMARK  status: ('A' for Active; 'I' for Inactive)
REMARK    1  A    between atoms: O_2  and  C_8
REMARK    2  A    between atoms: O_3  and  C_10
REMARK    3  A    between atoms: N_6  and  C_13
REMARK    4  A    between atoms: N_7  and  C_15
REMARK    5  A    between atoms: C_9  and  C_12
REMARK    6  A    between atoms: C_11  and  C_13
REMARK    7  A    between atoms: C_12  and  C_14
REMARK    8  A    between atoms: C_15  and  C_17
REMARK    9  A    between atoms: C_15  and  C_18
REMARK   10  A    between atoms: C_16  and  C_19
REMARK                            x       y       z     vdW  Elec       q    Type
REMARK                         _______ _______ _______ _____ _____    ______ ____
ROOT
ATOM      1  O   UNL     1     -13.478   3.749  32.482  0.00  0.00    -0.366 OA
ATOM      8  C   UNL     1     -15.782   3.493  32.914  0.00  0.00    +0.175 C 
ATOM      9  C   UNL     1     -14.570   4.370  33.182  0.00  0.00    +0.158 C 
ATOM     10  C   UNL     1     -15.157   2.113  32.885  0.00  0.00    +0.176 C 
ATOM     11  C   UNL     1     -13.831   2.381  32.181  0.00  0.00    +0.167 C 
ENDROOT
BRANCH   8   2
ATOM      2  O   UNL     1     -16.772   3.637  33.909  0.00  0.00    -0.387 OA
ATOM     20  H   UNL     1     -16.776   4.569  34.184  0.00  0.00    +0.210 HD
ENDBRANCH   8   2
BRANCH  10   3
ATOM      3  O   UNL     1     -14.872   1.670  34.212  0.00  0.00    -0.387 OA
ATOM     21  H   UNL     1     -15.718   1.623  34.690  0.00  0.00    +0.210 HD
ENDBRANCH  10   3
BRANCH   9  12
ATOM     12  C   UNL     1     -14.742   5.799  32.700  0.00  0.00    +0.130 C 
BRANCH  12  14
ATOM      4  O   UNL     1     -12.657   6.984  32.389  0.00  0.00    -0.276 OA
ATOM      7  N   UNL     1     -13.758   7.145  34.429  0.00  0.00    -0.313 N 
ATOM     14  C   UNL     1     -13.598   6.699  33.125  0.00  0.00    +0.216 C 
ATOM     23  H   UNL     1     -14.607   6.897  34.931  0.00  0.00    +0.149 HD
BRANCH   7  15
ATOM     15  C   UNL     1     -12.812   8.016  35.088  0.00  0.00    +0.067 C 
ATOM     17  C   UNL     1     -12.447   7.461  36.458  0.00  0.00    +0.027 C 
ATOM     18  C   UNL     1     -13.372   9.429  35.195  0.00  0.00    +0.027 C 
ENDBRANCH   7  15
ENDBRANCH  12  14
ENDBRANCH   9  12
BRANCH  11  13
ATOM     13  C   UNL     1     -13.922   2.244  30.667  0.00  0.00    +0.138 C 
BRANCH  13   6
ATOM      5  O   UNL     1     -15.204  -0.136  29.608  0.00  0.00    -0.276 OA
ATOM      6  N   UNL     1     -13.288   1.040  30.217  0.00  0.00    -0.313 N 
ATOM     16  C   UNL     1     -13.984  -0.057  29.722  0.00  0.00    +0.210 C 
ATOM     19  C   UNL     1     -13.073  -1.177  29.295  0.00  0.00    +0.109 C 
ATOM     22  H   UNL     1     -12.272   1.003  30.249  0.00  0.00    +0.149 HD
ENDBRANCH  13   6
ENDBRANCH  11  13
TORSDOF 7
ENDMDL
MODEL 4
REMARK VINA RESULT:      -5.9      1.883      2.780
REMARK  Name = 25390428
REMARK  10 active torsions:
REMARK  status: ('A' for Active; 'I' for Inactive)
REMARK    1  A    between atoms: O_2  and  C_8
REMARK    2  A    between atoms: O_3  and  C_10
REMARK    3  A    between atoms: N_6  and  C_13
REMARK    4  A    between atoms: N_7  and  C_15
REMARK    5  A    between atoms: C_9  and  C_12
REMARK    6  A    between atoms: C_11  and  C_13
REMARK    7  A    between atoms: C_12  and  C_14
REMARK    8  A    between atoms: C_15  and  C_17
REMARK    9  A    between atoms: C_15  and  C_18
REMARK   10  A    between atoms: C_16  and  C_19
REMARK                            x       y       z     vdW  Elec       q    Type
REMARK                         _______ _______ _______ _____ _____    ______ ____
ROOT
ATOM      1  O   UNL     1      11.395   8.663  19.988  0.00  0.00    -0.366 OA
ATOM      8  C   UNL     1      11.988   6.903  21.441  0.00  0.00    +0.175 C 
ATOM      9  C   UNL     1      11.758   7.271  19.986  0.00  0.00    +0.158 C 
ATOM     10  C   UNL     1      10.942   7.750  22.137  0.00  0.00    +0.176 C 
ATOM     11  C   UNL     1      10.982   9.037  21.321  0.00  0.00    +0.167 C 
ENDROOT
BRANCH   8   2
ATOM      2  O   UNL     1      11.831   5.519  21.671  0.00  0.00    -0.387 OA
ATOM     20  H   UNL     1      11.735   5.391  22.629  0.00  0.00    +0.210 HD
ENDBRANCH   8   2
BRANCH  10   3
ATOM      3  O   UNL     1       9.649   7.166  21.980  0.00  0.00    -0.387 OA
ATOM     21  H   UNL     1       9.765   6.200  21.973  0.00  0.00    +0.210 HD
ENDBRANCH  10   3
BRANCH   9  12
ATOM     12  C   UNL     1      12.982   7.062  19.111  0.00  0.00    +0.130 C 
BRANCH  12  14
ATOM      4  O   UNL     1      14.824   8.401  19.923  0.00  0.00    -0.276 OA
ATOM      7  N   UNL     1      13.594   9.154  18.100  0.00  0.00    -0.313 N 
ATOM     14  C   UNL     1      13.912   8.260  19.114  0.00  0.00    +0.216 C 
ATOM     23  H   UNL     1      12.855   8.911  17.446  0.00  0.00    +0.149 HD
BRANCH   7  15
ATOM     15  C   UNL     1      14.320  10.383  17.875  0.00  0.00    +0.067 C 
ATOM     17  C   UNL     1      13.542  11.566  18.437  0.00  0.00    +0.027 C 
ATOM     18  C   UNL     1      14.612  10.567  16.391  0.00  0.00    +0.027 C 
ENDBRANCH   7  15
ENDBRANCH  12  14
ENDBRANCH   9  12
BRANCH  11  13
ATOM     13  C   UNL     1      11.987  10.049  21.855  0.00  0.00    +0.138 C 
BRANCH  13   6
ATOM      5  O   UNL     1      10.761  12.021  23.598  0.00  0.00    -0.276 OA
ATOM      6  N   UNL     1      11.601  11.388  21.520  0.00  0.00    -0.313 N 
ATOM     16  C   UNL     1      11.017  12.269  22.422  0.00  0.00    +0.210 C 
ATOM     19  C   UNL     1      10.736  13.618  21.816  0.00  0.00    +0.109 C 
ATOM     22  H   UNL     1      11.785  11.707  20.572  0.00  0.00    +0.149 HD
ENDBRANCH  13   6
ENDBRANCH  11  13
TORSDOF 7
ENDMDL
MODEL 5
REMARK VINA RESULT:      -5.8      2.312      3.425
REMARK  Name = 25390428
REMARK  10 active torsions:
REMARK  status: ('A' for Active; 'I' for Inactive)
REMARK    1  A    between atoms: O_2  and  C_8
REMARK    2  A    between atoms: O_3  and  C_10
REMARK    3  A    between atoms: N_6  and  C_13
REMARK    4  A    between atoms: N_7  and  C_15
REMARK    5  A    between atoms: C_9  and  C_12
REMARK    6  A    between atoms: C_11  and  C_13
REMARK    7  A    between atoms: C_12  and  C_14
REMARK    8  A    between atoms: C_15  and  C_17
REMARK    9  A    between atoms: C_15  and  C_18
REMARK   10  A    between atoms: C_16  and  C_19
REMARK                            x       y       z     vdW  Elec       q    Type
REMARK                         _______ _______ _______ _____ _____    ______ ____
ROOT
ATOM      1  O   UNL     1      12.634   7.269  19.080  0.00  0.00    -0.366 OA
ATOM      8  C   UNL     1      13.791   7.413  21.129  0.00  0.00    +0.175 C 
ATOM      9  C   UNL     1      13.910   6.981  19.678  0.00  0.00    +0.158 C 
ATOM     10  C   UNL     1      12.348   7.064  21.432  0.00  0.00    +0.176 C 
ATOM     11  C   UNL     1      11.652   7.434  20.127  0.00  0.00    +0.167 C 
ENDROOT
BRANCH   8   2
ATOM      2  O   UNL     1      14.715   6.744  21.960  0.00  0.00    -0.387 OA
ATOM     20  H   UNL     1      14.734   7.213  22.812  0.00  0.00    +0.210 HD
ENDBRANCH   8   2
BRANCH  10   3
ATOM      3  O   UNL     1      12.210   5.657  21.625  0.00  0.00    -0.387 OA
ATOM     21  H   UNL     1      11.839   5.520  22.514  0.00  0.00    +0.210 HD
ENDBRANCH  10   3
BRANCH   9  12
ATOM     12  C   UNL     1      15.006   7.709  18.920  0.00  0.00    +0.130 C 
BRANCH  12  14
ATOM      4  O   UNL     1      14.635  10.099  18.931  0.00  0.00    -0.276 OA
ATOM      7  N   UNL     1      13.989   8.861  17.074  0.00  0.00    -0.313 N 
ATOM     14  C   UNL     1      14.536   9.029  18.338  0.00  0.00    +0.216 C 
ATOM     23  H   UNL     1      14.009   7.937  16.649  0.00  0.00    +0.149 HD
BRANCH   7  15
ATOM     15  C   UNL     1      13.460   9.954  16.291  0.00  0.00    +0.067 C 
ATOM     17  C   UNL     1      12.208   9.514  15.545  0.00  0.00    +0.027 C 
ATOM     18  C   UNL     1      14.519  10.484  15.331  0.00  0.00    +0.027 C 
ENDBRANCH   7  15
ENDBRANCH  12  14
ENDBRANCH   9  12
BRANCH  11  13
ATOM     13  C   UNL     1      11.173   8.879  20.096  0.00  0.00    +0.138 C 
BRANCH  13   6
ATOM      5  O   UNL     1      12.011  11.436  21.186  0.00  0.00    -0.276 OA
ATOM      6  N   UNL     1      10.946   9.378  21.420  0.00  0.00    -0.313 N 
ATOM     16  C   UNL     1      11.385  10.621  21.860  0.00  0.00    +0.210 C 
ATOM     19  C   UNL     1      10.989  10.906  23.284  0.00  0.00    +0.109 C 
ATOM     22  H   UNL     1      10.419   8.790  22.060  0.00  0.00    +0.149 HD
ENDBRANCH  13   6
ENDBRANCH  11  13
TORSDOF 7
ENDMDL
MODEL 6
REMARK VINA RESULT:      -5.6      2.299      5.208
REMARK  Name = 25390428
REMARK  10 active torsions:
REMARK  status: ('A' for Active; 'I' for Inactive)
REMARK    1  A    between atoms: O_2  and  C_8
REMARK    2  A    between atoms: O_3  and  C_10
REMARK    3  A    between atoms: N_6  and  C_13
REMARK    4  A    between atoms: N_7  and  C_15
REMARK    5  A    between atoms: C_9  and  C_12
REMARK    6  A    between atoms: C_11  and  C_13
REMARK    7  A    between atoms: C_12  and  C_14
REMARK    8  A    between atoms: C_15  and  C_17
REMARK    9  A    between atoms: C_15  and  C_18
REMARK   10  A    between atoms: C_16  and  C_19
REMARK                            x       y       z     vdW  Elec       q    Type
REMARK                         _______ _______ _______ _____ _____    ______ ____
ROOT
ATOM      1  O   UNL     1      12.895   8.645  21.810  0.00  0.00    -0.366 OA
ATOM      8  C   UNL     1      10.755   7.786  21.314  0.00  0.00    +0.175 C 
ATOM      9  C   UNL     1      11.582   8.488  22.378  0.00  0.00    +0.158 C 
ATOM     10  C   UNL     1      11.784   6.865  20.689  0.00  0.00    +0.176 C 
ATOM     11  C   UNL     1      13.035   7.737  20.695  0.00  0.00    +0.167 C 
ENDROOT
BRANCH   8   2
ATOM      2  O   UNL     1       9.652   7.101  21.865  0.00  0.00    -0.387 OA
ATOM     20  H   UNL     1       9.508   6.301  21.332  0.00  0.00    +0.210 HD
ENDBRANCH   8   2
BRANCH  10   3
ATOM      3  O   UNL     1      12.022   5.743  21.538  0.00  0.00    -0.387 OA
ATOM     21  H   UNL     1      11.366   5.062  21.311  0.00  0.00    +0.210 HD
ENDBRANCH  10   3
BRANCH   9  12
ATOM     12  C   UNL     1      11.029   9.847  22.772  0.00  0.00    +0.130 C 
BRANCH  12  14
ATOM      4  O   UNL     1      12.056  11.863  21.918  0.00  0.00    -0.276 OA
ATOM      7  N   UNL     1      13.050  10.753  23.701  0.00  0.00    -0.313 N 
ATOM     14  C   UNL     1      12.080  10.939  22.726  0.00  0.00    +0.216 C 
ATOM     23  H   UNL     1      12.943   9.987  24.360  0.00  0.00    +0.149 HD
BRANCH   7  15
ATOM     15  C   UNL     1      14.171  11.648  23.880  0.00  0.00    +0.067 C 
ATOM     17  C   UNL     1      15.340  11.212  23.007  0.00  0.00    +0.027 C 
ATOM     18  C   UNL     1      14.572  11.715  25.349  0.00  0.00    +0.027 C 
ENDBRANCH   7  15
ENDBRANCH  12  14
ENDBRANCH   9  12
BRANCH  11  13
ATOM     13  C   UNL     1      13.185   8.571  19.430  0.00  0.00    +0.138 C 
BRANCH  13   6
ATOM      5  O   UNL     1      12.924   8.427  16.542  0.00  0.00    -0.276 OA
ATOM      6  N   UNL     1      11.974   8.572  18.664  0.00  0.00    -0.313 N 
ATOM     16  C   UNL     1      11.942   8.500  17.276  0.00  0.00    +0.210 C 
ATOM     19  C   UNL     1      10.539   8.493  16.728  0.00  0.00    +0.109 C 
ATOM     22  H   UNL     1      11.095   8.611  19.173  0.00  0.00    +0.149 HD
ENDBRANCH  13   6
ENDBRANCH  11  13
TORSDOF 7
ENDMDL
MODEL 7
REMARK VINA RESULT:      -5.5      2.485      6.031
REMARK  Name = 25390428
REMARK  10 active torsions:
REMARK  status: ('A' for Active; 'I' for Inactive)
REMARK    1  A    between atoms: O_2  and  C_8
REMARK    2  A    between atoms: O_3  and  C_10
REMARK    3  A    between atoms: N_6  and  C_13
REMARK    4  A    between atoms: N_7  and  C_15
REMARK    5  A    between atoms: C_9  and  C_12
REMARK    6  A    between atoms: C_11  and  C_13
REMARK    7  A    between atoms: C_12  and  C_14
REMARK    8  A    between atoms: C_15  and  C_17
REMARK    9  A    between atoms: C_15  and  C_18
REMARK   10  A    between atoms: C_16  and  C_19
REMARK                            x       y       z     vdW  Elec       q    Type
REMARK                         _______ _______ _______ _____ _____    ______ ____
ROOT
ATOM      1  O   UNL     1      12.490   9.131  20.810  0.00  0.00    -0.366 OA
ATOM      8  C   UNL     1      11.321   7.091  20.996  0.00  0.00    +0.175 C 
ATOM      9  C   UNL     1      11.767   8.327  21.759  0.00  0.00    +0.158 C 
ATOM     10  C   UNL     1      12.492   6.874  20.060  0.00  0.00    +0.176 C 
ATOM     11  C   UNL     1      12.871   8.304  19.688  0.00  0.00    +0.167 C 
ENDROOT
BRANCH   8   2
ATOM      2  O   UNL     1      11.078   5.997  21.853  0.00  0.00    -0.387 OA
ATOM     20  H   UNL     1      11.299   5.187  21.362  0.00  0.00    +0.210 HD
ENDBRANCH   8   2
BRANCH  10   3
ATOM      3  O   UNL     1      13.589   6.294  20.767  0.00  0.00    -0.387 OA
ATOM     21  H   UNL     1      13.218   5.706  21.447  0.00  0.00    +0.210 HD
ENDBRANCH  10   3
BRANCH   9  12
ATOM     12  C   UNL     1      10.613   9.129  22.335  0.00  0.00    +0.130 C 
BRANCH  12  14
ATOM      4  O   UNL     1      11.314  10.755  23.981  0.00  0.00    -0.276 OA
ATOM      7  N   UNL     1      11.073  11.417  21.767  0.00  0.00    -0.313 N 
ATOM     14  C   UNL     1      11.039  10.504  22.812  0.00  0.00    +0.216 C 
ATOM     23  H   UNL     1      10.885  11.089  20.823  0.00  0.00    +0.149 HD
BRANCH   7  15
ATOM     15  C   UNL     1      11.445  12.802  21.940  0.00  0.00    +0.067 C 
ATOM     17  C   UNL     1      10.209  13.654  22.191  0.00  0.00    +0.027 C 
ATOM     18  C   UNL     1      12.226  13.302  20.730  0.00  0.00    +0.027 C 
ENDBRANCH   7  15
ENDBRANCH  12  14
ENDBRANCH   9  12
BRANCH  11  13
ATOM     13  C   UNL     1      12.134   8.815  18.459  0.00  0.00    +0.138 C 
BRANCH  13   6
ATOM      5  O   UNL     1      12.175   8.919  15.557  0.00  0.00    -0.276 OA
ATOM      6  N   UNL     1      12.997   9.601  17.627  0.00  0.00    -0.313 N 
ATOM     16  C   UNL     1      12.947   9.589  16.238  0.00  0.00    +0.210 C 
ATOM     19  C   UNL     1      13.946  10.526  15.614  0.00  0.00    +0.109 C 
ATOM     22  H   UNL     1      13.668  10.210  18.088  0.00  0.00    +0.149 HD
ENDBRANCH  13   6
ENDBRANCH  11  13
TORSDOF 7
ENDMDL
MODEL 8
REMARK VINA RESULT:      -5.4     25.303     26.766
REMARK  Name = 25390428
REMARK  10 active torsions:
REMARK  status: ('A' for Active; 'I' for Inactive)
REMARK    1  A    between atoms: O_2  and  C_8
REMARK    2  A    between atoms: O_3  and  C_10
REMARK    3  A    between atoms: N_6  and  C_13
REMARK    4  A    between atoms: N_7  and  C_15
REMARK    5  A    between atoms: C_9  and  C_12
REMARK    6  A    between atoms: C_11  and  C_13
REMARK    7  A    between atoms: C_12  and  C_14
REMARK    8  A    between atoms: C_15  and  C_17
REMARK    9  A    between atoms: C_15  and  C_18
REMARK   10  A    between atoms: C_16  and  C_19
REMARK                            x       y       z     vdW  Elec       q    Type
REMARK                         _______ _______ _______ _____ _____    ______ ____
ROOT
ATOM      1  O   UNL     1      -4.126 -11.869  14.578  0.00  0.00    -0.366 OA
ATOM      8  C   UNL     1      -2.596 -10.799  16.019  0.00  0.00    +0.175 C 
ATOM      9  C   UNL     1      -2.728 -11.836  14.916  0.00  0.00    +0.158 C 
ATOM     10  C   UNL     1      -3.891 -10.999  16.779  0.00  0.00    +0.176 C 
ATOM     11  C   UNL     1      -4.882 -11.268  15.652  0.00  0.00    +0.167 C 
ENDROOT
BRANCH   8   2
ATOM      2  O   UNL     1      -1.445 -11.008  16.808  0.00  0.00    -0.387 OA
ATOM     20  H   UNL     1      -1.079 -10.135  17.028  0.00  0.00    +0.210 HD
ENDBRANCH   8   2
BRANCH  10   3
ATOM      3  O   UNL     1      -3.812 -12.172  17.589  0.00  0.00    -0.387 OA
ATOM     21  H   UNL     1      -3.980 -12.936  17.012  0.00  0.00    +0.210 HD
ENDBRANCH  10   3
BRANCH   9  12
ATOM     12  C   UNL     1      -1.910 -11.508  13.679  0.00  0.00    +0.130 C 
BRANCH  12  14
ATOM      4  O   UNL     1      -2.868 -12.474  11.680  0.00  0.00    -0.276 OA
ATOM      7  N   UNL     1      -3.338 -10.260  12.205  0.00  0.00    -0.313 N 
ATOM     14  C   UNL     1      -2.746 -11.497  12.413  0.00  0.00    +0.216 C 
ATOM     23  H   UNL     1      -3.220  -9.535  12.908  0.00  0.00    +0.149 HD
BRANCH   7  15
ATOM     15  C   UNL     1      -4.188  -9.972  11.072  0.00  0.00    +0.067 C 
ATOM     17  C   UNL     1      -3.396  -9.254   9.987  0.00  0.00    +0.027 C 
ATOM     18  C   UNL     1      -5.399  -9.155  11.506  0.00  0.00    +0.027 C 
ENDBRANCH   7  15
ENDBRANCH  12  14
ENDBRANCH   9  12
BRANCH  11  13
ATOM     13  C   UNL     1      -5.530 -10.000  15.115  0.00  0.00    +0.138 C 
BRANCH  13   6
ATOM      5  O   UNL     1      -8.373 -10.500  15.429  0.00  0.00    -0.276 OA
ATOM      6  N   UNL     1      -6.415  -9.420  16.082  0.00  0.00    -0.313 N 
ATOM     16  C   UNL     1      -7.771  -9.718  16.161  0.00  0.00    +0.210 C 
ATOM     19  C   UNL     1      -8.461  -8.989  17.283  0.00  0.00    +0.109 C 
ATOM     22  H   UNL     1      -6.017  -8.769  16.753  0.00  0.00    +0.149 HD
ENDBRANCH  13   6
ENDBRANCH  11  13
TORSDOF 7
ENDMDL
MODEL 9
REMARK VINA RESULT:      -5.2     25.632     27.196
REMARK  Name = 25390428
REMARK  10 active torsions:
REMARK  status: ('A' for Active; 'I' for Inactive)
REMARK    1  A    between atoms: O_2  and  C_8
REMARK    2  A    between atoms: O_3  and  C_10
REMARK    3  A    between atoms: N_6  and  C_13
REMARK    4  A    between atoms: N_7  and  C_15
REMARK    5  A    between atoms: C_9  and  C_12
REMARK    6  A    between atoms: C_11  and  C_13
REMARK    7  A    between atoms: C_12  and  C_14
REMARK    8  A    between atoms: C_15  and  C_17
REMARK    9  A    between atoms: C_15  and  C_18
REMARK   10  A    between atoms: C_16  and  C_19
REMARK                            x       y       z     vdW  Elec       q    Type
REMARK                         _______ _______ _______ _____ _____    ______ ____
ROOT
ATOM      1  O   UNL     1      -5.371 -11.182  16.499  0.00  0.00    -0.366 OA
ATOM      8  C   UNL     1      -4.389 -11.650  18.591  0.00  0.00    +0.175 C 
ATOM      9  C   UNL     1      -4.119 -11.559  17.099  0.00  0.00    +0.158 C 
ATOM     10  C   UNL     1      -5.806 -12.186  18.611  0.00  0.00    +0.176 C 
ATOM     11  C   UNL     1      -6.439 -11.452  17.434  0.00  0.00    +0.167 C 
ENDROOT
BRANCH   8   2
ATOM      2  O   UNL     1      -3.464 -12.489  19.248  0.00  0.00    -0.387 OA
ATOM     20  H   UNL     1      -3.692 -12.491  20.193  0.00  0.00    +0.210 HD
ENDBRANCH   8   2
BRANCH  10   3
ATOM      3  O   UNL     1      -5.811 -13.583  18.316  0.00  0.00    -0.387 OA
ATOM     21  H   UNL     1      -6.739 -13.864  18.254  0.00  0.00    +0.210 HD
ENDBRANCH  10   3
BRANCH   9  12
ATOM     12  C   UNL     1      -3.052 -10.540  16.741  0.00  0.00    +0.130 C 
BRANCH  12  14
ATOM      4  O   UNL     1      -0.938 -10.585  15.568  0.00  0.00    -0.276 OA
ATOM      7  N   UNL     1      -2.559 -12.164  15.041  0.00  0.00    -0.313 N 
ATOM     14  C   UNL     1      -2.052 -11.073  15.733  0.00  0.00    +0.216 C 
ATOM     23  H   UNL     1      -3.473 -12.526  15.298  0.00  0.00    +0.149 HD
BRANCH   7  15
ATOM     15  C   UNL     1      -1.816 -12.866  14.019  0.00  0.00    +0.067 C 
ATOM     17  C   UNL     1      -2.096 -12.260  12.651  0.00  0.00    +0.027 C 
ATOM     18  C   UNL     1      -2.147 -14.353  14.045  0.00  0.00    +0.027 C 
ENDBRANCH   7  15
ENDBRANCH  12  14
ENDBRANCH   9  12
BRANCH  11  13
ATOM     13  C   UNL     1      -7.062 -10.120  17.829  0.00  0.00    +0.138 C 
BRANCH  13   6
ATOM      5  O   UNL     1      -9.890 -10.748  17.622  0.00  0.00    -0.276 OA
ATOM      6  N   UNL     1      -7.999 -10.284  18.901  0.00  0.00    -0.313 N 
ATOM     16  C   UNL     1      -9.343 -10.585  18.710  0.00  0.00    +0.210 C 
ATOM     19  C   UNL     1     -10.095 -10.727  20.006  0.00  0.00    +0.109 C 
ATOM     22  H   UNL     1      -7.648 -10.188  19.851  0.00  0.00    +0.149 HD
ENDBRANCH  13   6
ENDBRANCH  11  13
TORSDOF 7
ENDMDL
MODEL 10
REMARK VINA RESULT:      -5.1     25.700     27.594
REMARK  Name = 25390428
REMARK  10 active torsions:
REMARK  status: ('A' for Active; 'I' for Inactive)
REMARK    1  A    between atoms: O_2  and  C_8
REMARK    2  A    between atoms: O_3  and  C_10
REMARK    3  A    between atoms: N_6  and  C_13
REMARK    4  A    between atoms: N_7  and  C_15
REMARK    5  A    between atoms: C_9  and  C_12
REMARK    6  A    between atoms: C_11  and  C_13
REMARK    7  A    between atoms: C_12  and  C_14
REMARK    8  A    between atoms: C_15  and  C_17
REMARK    9  A    between atoms: C_15  and  C_18
REMARK   10  A    between atoms: C_16  and  C_19
REMARK                            x       y       z     vdW  Elec       q    Type
REMARK                         _______ _______ _______ _____ _____    ______ ____
ROOT
ATOM      1  O   UNL     1      -5.349 -11.208  17.533  0.00  0.00    -0.366 OA
ATOM      8  C   UNL     1      -7.497 -10.240  17.649  0.00  0.00    +0.175 C 
ATOM      9  C   UNL     1      -6.050  -9.980  17.266  0.00  0.00    +0.158 C 
ATOM     10  C   UNL     1      -7.334 -11.158  18.843  0.00  0.00    +0.176 C 
ATOM     11  C   UNL     1      -6.149 -12.020  18.422  0.00  0.00    +0.167 C 
ENDROOT
BRANCH   8   2
ATOM      2  O   UNL     1      -8.189  -9.047  17.949  0.00  0.00    -0.387 OA
ATOM     20  H   UNL     1      -7.563  -8.311  17.842  0.00  0.00    +0.210 HD
ENDBRANCH   8   2
BRANCH  10   3
ATOM      3  O   UNL     1      -6.949 -10.407  19.995  0.00  0.00    -0.387 OA
ATOM     21  H   UNL     1      -6.089  -9.996  19.799  0.00  0.00    +0.210 HD
ENDBRANCH  10   3
BRANCH   9  12
ATOM     12  C   UNL     1      -5.872  -9.596  15.807  0.00  0.00    +0.130 C 
BRANCH  12  14
ATOM      4  O   UNL     1      -5.291 -11.390  14.293  0.00  0.00    -0.276 OA
ATOM      7  N   UNL     1      -3.596 -10.250  15.401  0.00  0.00    -0.313 N 
ATOM     14  C   UNL     1      -4.917 -10.519  15.074  0.00  0.00    +0.216 C 
ATOM     23  H   UNL     1      -3.393  -9.465  16.014  0.00  0.00    +0.149 HD
BRANCH   7  15
ATOM     15  C   UNL     1      -2.480 -10.982  14.847  0.00  0.00    +0.067 C 
ATOM     17  C   UNL     1      -1.259 -10.844  15.745  0.00  0.00    +0.027 C 
ATOM     18  C   UNL     1      -2.181 -10.507  13.429  0.00  0.00    +0.027 C 
ENDBRANCH   7  15
ENDBRANCH  12  14
ENDBRANCH   9  12
BRANCH  11  13
ATOM     13  C   UNL     1      -6.564 -13.272  17.663  0.00  0.00    +0.138 C 
BRANCH  13   6
ATOM      5  O   UNL     1      -4.570 -15.345  17.261  0.00  0.00    -0.276 OA
ATOM      6  N   UNL     1      -5.739 -13.476  16.509  0.00  0.00    -0.313 N 
ATOM     16  C   UNL     1      -4.805 -14.500  16.401  0.00  0.00    +0.210 C 
ATOM     19  C   UNL     1      -4.094 -14.499  15.074  0.00  0.00    +0.109 C 
ATOM     22  H   UNL     1      -5.863 -12.841  15.724  0.00  0.00    +0.149 HD
ENDBRANCH  13   6
ENDBRANCH  11  13
TORSDOF 7
ENDMDL
