MODEL 1
REMARK VINA RESULT:      -6.7      0.000      0.000
REMARK  Name = 75536690
REMARK  8 active torsions:
REMARK  status: ('A' for Active; 'I' for Inactive)
REMARK    1  A    between atoms: S_1  and  N_7
REMARK    2  A    between atoms: S_1  and  C_17
REMARK    3  A    between atoms: O_3  and  C_11
REMARK    4  A    between atoms: N_6  and  C_10
REMARK    5  A    between atoms: N_6  and  C_15
REMARK    6  A    between atoms: N_7  and  C_14
REMARK    7  A    between atoms: C_12  and  C_14
REMARK    8  A    between atoms: C_15  and  C_16
REMARK                            x       y       z     vdW  Elec       q    Type
REMARK                         _______ _______ _______ _____ _____    ______ ____
ROOT
ATOM      2  O   UNL     1      17.055   7.792  21.079  0.00  0.00    -0.371 OA
ATOM     10  C   UNL     1      18.541   6.372  19.888  0.00  0.00    +0.111 C 
ATOM     11  C   UNL     1      17.122   5.862  19.714  0.00  0.00    +0.164 C 
ATOM     12  C   UNL     1      16.318   7.111  20.050  0.00  0.00    +0.164 C 
ATOM     13  C   UNL     1      18.392   7.262  21.111  0.00  0.00    +0.181 C 
ENDROOT
BRANCH  11   3
ATOM      3  O   UNL     1      16.864   5.406  18.400  0.00  0.00    -0.388 OA
ATOM     27  H   UNL     1      17.706   5.129  18.001  0.00  0.00    +0.210 HD
ENDBRANCH  11   3
BRANCH  10   6
ATOM      6  N   UNL     1      19.523   5.316  20.073  0.00  0.00    -0.304 NA
ATOM     25  H   UNL     1      19.717   4.883  19.170  0.00  0.00    +0.123 HD
BRANCH   6  15
ATOM     15  C   UNL     1      20.765   5.844  20.624  0.00  0.00    +0.136 C 
BRANCH  15  16
ATOM      8  N   UNL     1      21.515   3.449  20.864  0.00  0.00    -0.347 N 
ATOM      9  N   UNL     1      23.731   3.575  20.929  0.00  0.00    -0.244 NA
ATOM     16  C   UNL     1      21.818   4.776  20.756  0.00  0.00    +0.049 A 
ATOM     18  C   UNL     1      23.192   4.829  20.799  0.00  0.00    +0.134 A 
ATOM     21  C   UNL     1      22.696   2.766  20.966  0.00  0.00    +0.196 A 
ATOM     28  H   UNL     1      20.590   3.041  20.869  0.00  0.00    +0.167 HD
ENDBRANCH  15  16
ENDBRANCH   6  15
ENDBRANCH  10   6
BRANCH  12  14
ATOM     14  C   UNL     1      14.914   6.806  20.541  0.00  0.00    +0.140 C 
BRANCH  14   7
ATOM      7  N   UNL     1      14.048   6.476  19.392  0.00  0.00    -0.187 NA
ATOM     26  H   UNL     1      14.379   5.715  18.788  0.00  0.00    +0.148 HD
BRANCH   7   1
ATOM      1  S   UNL     1      13.041   7.668  18.714  0.00  0.00    +0.058 S 
ATOM      4  O   UNL     1      12.118   7.046  17.784  0.00  0.00    -0.153 OA
ATOM      5  O   UNL     1      13.855   8.791  18.292  0.00  0.00    -0.153 OA
BRANCH   1  17
ATOM     17  C   UNL     1      12.115   8.204  20.123  0.00  0.00    +0.105 A 
ATOM     19  C   UNL     1      12.153   9.542  20.514  0.00  0.00    +0.028 A 
ATOM     20  C   UNL     1      11.352   7.287  20.845  0.00  0.00    +0.028 A 
ATOM     22  C   UNL     1      11.425   9.964  21.626  0.00  0.00    +0.002 A 
ATOM     23  C   UNL     1      10.625   7.708  21.958  0.00  0.00    +0.002 A 
ATOM     24  C   UNL     1      10.662   9.047  22.349  0.00  0.00    +0.000 A 
ENDBRANCH   1  17
ENDBRANCH   7   1
ENDBRANCH  14   7
ENDBRANCH  12  14
TORSDOF 8
ENDMDL
MODEL 2
REMARK VINA RESULT:      -6.4      6.403      9.134
REMARK  Name = 75536690
REMARK  8 active torsions:
REMARK  status: ('A' for Active; 'I' for Inactive)
REMARK    1  A    between atoms: S_1  and  N_7
REMARK    2  A    between atoms: S_1  and  C_17
REMARK    3  A    between atoms: O_3  and  C_11
REMARK    4  A    between atoms: N_6  and  C_10
REMARK    5  A    between atoms: N_6  and  C_15
REMARK    6  A    between atoms: N_7  and  C_14
REMARK    7  A    between atoms: C_12  and  C_14
REMARK    8  A    between atoms: C_15  and  C_16
REMARK                            x       y       z     vdW  Elec       q    Type
REMARK                         _______ _______ _______ _____ _____    ______ ____
ROOT
ATOM      2  O   UNL     1      13.226   8.477  21.407  0.00  0.00    -0.371 OA
ATOM     10  C   UNL     1      11.311   9.099  22.666  0.00  0.00    +0.111 C 
ATOM     11  C   UNL     1      10.874   8.248  21.488  0.00  0.00    +0.164 C 
ATOM     12  C   UNL     1      12.174   7.533  21.144  0.00  0.00    +0.164 C 
ATOM     13  C   UNL     1      12.697   9.537  22.223  0.00  0.00    +0.181 C 
ENDROOT
BRANCH  11   3
ATOM      3  O   UNL     1       9.845   7.337  21.825  0.00  0.00    -0.388 OA
ATOM     27  H   UNL     1       9.460   7.611  22.675  0.00  0.00    +0.210 HD
ENDBRANCH  11   3
BRANCH  10   6
ATOM      6  N   UNL     1      10.424  10.218  22.939  0.00  0.00    -0.304 NA
ATOM     25  H   UNL     1       9.512   9.857  23.220  0.00  0.00    +0.123 HD
BRANCH   6  15
ATOM     15  C   UNL     1      10.952  11.059  24.006  0.00  0.00    +0.136 C 
BRANCH  15  16
ATOM      8  N   UNL     1      10.300  13.061  22.619  0.00  0.00    -0.347 N 
ATOM      9  N   UNL     1       9.968  14.673  24.109  0.00  0.00    -0.244 NA
ATOM     16  C   UNL     1      10.545  12.499  23.840  0.00  0.00    +0.049 A 
ATOM     18  C   UNL     1      10.333  13.513  24.743  0.00  0.00    +0.134 A 
ATOM     21  C   UNL     1       9.957  14.368  22.831  0.00  0.00    +0.196 A 
ATOM     28  H   UNL     1      10.360  12.600  21.721  0.00  0.00    +0.167 HD
ENDBRANCH  15  16
ENDBRANCH   6  15
ENDBRANCH  10   6
BRANCH  12  14
ATOM     14  C   UNL     1      12.243   7.078  19.698  0.00  0.00    +0.140 C 
BRANCH  14   7
ATOM      7  N   UNL     1      11.644   8.106  18.824  0.00  0.00    -0.187 NA
ATOM     26  H   UNL     1      10.661   8.334  19.015  0.00  0.00    +0.148 HD
BRANCH   7   1
ATOM      1  S   UNL     1      12.237   8.336  17.247  0.00  0.00    +0.058 S 
ATOM      4  O   UNL     1      11.123   8.488  16.332  0.00  0.00    -0.153 OA
ATOM      5  O   UNL     1      13.269   7.353  16.983  0.00  0.00    -0.153 OA
BRANCH   1  17
ATOM     17  C   UNL     1      13.042   9.904  17.389  0.00  0.00    +0.105 A 
ATOM     19  C   UNL     1      13.705  10.449  16.290  0.00  0.00    +0.028 A 
ATOM     20  C   UNL     1      13.019  10.594  18.601  0.00  0.00    +0.028 A 
ATOM     22  C   UNL     1      14.343  11.684  16.402  0.00  0.00    +0.002 A 
ATOM     23  C   UNL     1      13.657  11.828  18.714  0.00  0.00    +0.002 A 
ATOM     24  C   UNL     1      14.320  12.373  17.614  0.00  0.00    +0.000 A 
ENDBRANCH   1  17
ENDBRANCH   7   1
ENDBRANCH  14   7
ENDBRANCH  12  14
TORSDOF 8
ENDMDL
MODEL 3
REMARK VINA RESULT:      -6.4      2.939      9.706
REMARK  Name = 75536690
REMARK  8 active torsions:
REMARK  status: ('A' for Active; 'I' for Inactive)
REMARK    1  A    between atoms: S_1  and  N_7
REMARK    2  A    between atoms: S_1  and  C_17
REMARK    3  A    between atoms: O_3  and  C_11
REMARK    4  A    between atoms: N_6  and  C_10
REMARK    5  A    between atoms: N_6  and  C_15
REMARK    6  A    between atoms: N_7  and  C_14
REMARK    7  A    between atoms: C_12  and  C_14
REMARK    8  A    between atoms: C_15  and  C_16
REMARK                            x       y       z     vdW  Elec       q    Type
REMARK                         _______ _______ _______ _____ _____    ______ ____
ROOT
ATOM      2  O   UNL     1      17.772   6.551  21.627  0.00  0.00    -0.371 OA
ATOM     10  C   UNL     1      16.135   6.195  19.943  0.00  0.00    +0.111 C 
ATOM     11  C   UNL     1      17.504   6.276  19.294  0.00  0.00    +0.164 C 
ATOM     12  C   UNL     1      18.410   5.968  20.478  0.00  0.00    +0.164 C 
ATOM     13  C   UNL     1      16.403   6.843  21.292  0.00  0.00    +0.181 C 
ENDROOT
BRANCH  11   3
ATOM      3  O   UNL     1      17.667   5.338  18.248  0.00  0.00    -0.388 OA
ATOM     27  H   UNL     1      17.896   4.478  18.640  0.00  0.00    +0.210 HD
ENDBRANCH  11   3
BRANCH  10   6
ATOM      6  N   UNL     1      15.090   6.870  19.190  0.00  0.00    -0.304 NA
ATOM     25  H   UNL     1      14.396   6.181  18.897  0.00  0.00    +0.123 HD
BRANCH   6  15
ATOM     15  C   UNL     1      14.435   7.890  19.999  0.00  0.00    +0.136 C 
BRANCH  15  16
ATOM      8  N   UNL     1      12.825   6.392  21.232  0.00  0.00    -0.347 N 
ATOM      9  N   UNL     1      10.826   7.243  20.773  0.00  0.00    -0.244 NA
ATOM     16  C   UNL     1      13.053   7.468  20.422  0.00  0.00    +0.049 A 
ATOM     18  C   UNL     1      11.804   7.977  20.152  0.00  0.00    +0.134 A 
ATOM     21  C   UNL     1      11.473   6.296  21.415  0.00  0.00    +0.196 A 
ATOM     28  H   UNL     1      13.524   5.777  21.627  0.00  0.00    +0.167 HD
ENDBRANCH  15  16
ENDBRANCH   6  15
ENDBRANCH  10   6
BRANCH  12  14
ATOM     14  C   UNL     1      19.810   6.535  20.326  0.00  0.00    +0.140 C 
BRANCH  14   7
ATOM      7  N   UNL     1      20.800   5.445  20.433  0.00  0.00    -0.187 NA
ATOM     26  H   UNL     1      20.501   4.534  20.065  0.00  0.00    +0.148 HD
BRANCH   7   1
ATOM      1  S   UNL     1      21.972   5.476  21.664  0.00  0.00    +0.058 S 
ATOM      4  O   UNL     1      21.377   5.019  22.906  0.00  0.00    -0.153 OA
ATOM      5  O   UNL     1      22.675   6.743  21.616  0.00  0.00    -0.153 OA
BRANCH   1  17
ATOM     17  C   UNL     1      23.107   4.235  21.116  0.00  0.00    +0.105 A 
ATOM     19  C   UNL     1      22.907   2.902  21.471  0.00  0.00    +0.028 A 
ATOM     20  C   UNL     1      24.204   4.591  20.332  0.00  0.00    +0.028 A 
ATOM     22  C   UNL     1      23.803   1.924  21.041  0.00  0.00    +0.002 A 
ATOM     23  C   UNL     1      25.101   3.614  19.903  0.00  0.00    +0.002 A 
ATOM     24  C   UNL     1      24.901   2.280  20.257  0.00  0.00    +0.000 A 
ENDBRANCH   1  17
ENDBRANCH   7   1
ENDBRANCH  14   7
ENDBRANCH  12  14
TORSDOF 8
ENDMDL
MODEL 4
REMARK VINA RESULT:      -6.3      3.730      9.079
REMARK  Name = 75536690
REMARK  8 active torsions:
REMARK  status: ('A' for Active; 'I' for Inactive)
REMARK    1  A    between atoms: S_1  and  N_7
REMARK    2  A    between atoms: S_1  and  C_17
REMARK    3  A    between atoms: O_3  and  C_11
REMARK    4  A    between atoms: N_6  and  C_10
REMARK    5  A    between atoms: N_6  and  C_15
REMARK    6  A    between atoms: N_7  and  C_14
REMARK    7  A    between atoms: C_12  and  C_14
REMARK    8  A    between atoms: C_15  and  C_16
REMARK                            x       y       z     vdW  Elec       q    Type
REMARK                         _______ _______ _______ _____ _____    ______ ____
ROOT
ATOM      2  O   UNL     1      13.829   8.349  22.101  0.00  0.00    -0.371 OA
ATOM     10  C   UNL     1      11.879   9.703  22.165  0.00  0.00    +0.111 C 
ATOM     11  C   UNL     1      11.674   8.586  21.158  0.00  0.00    +0.164 C 
ATOM     12  C   UNL     1      12.715   7.577  21.623  0.00  0.00    +0.164 C 
ATOM     13  C   UNL     1      13.393   9.704  22.308  0.00  0.00    +0.181 C 
ENDROOT
BRANCH  11   3
ATOM      3  O   UNL     1      10.366   8.050  21.197  0.00  0.00    -0.388 OA
ATOM     27  H   UNL     1      10.432   7.092  21.352  0.00  0.00    +0.210 HD
ENDBRANCH  11   3
BRANCH  10   6
ATOM      6  N   UNL     1      11.352  10.986  21.729  0.00  0.00    -0.304 NA
ATOM     25  H   UNL     1      10.366  11.043  21.985  0.00  0.00    +0.123 HD
BRANCH   6  15
ATOM     15  C   UNL     1      12.070  12.089  22.355  0.00  0.00    +0.136 C 
BRANCH  15  16
ATOM      8  N   UNL     1      10.933  13.849  23.758  0.00  0.00    -0.347 N 
ATOM      9  N   UNL     1      10.424  12.798  25.646  0.00  0.00    -0.244 NA
ATOM     16  C   UNL     1      11.382  12.568  23.606  0.00  0.00    +0.049 A 
ATOM     18  C   UNL     1      11.056  11.939  24.784  0.00  0.00    +0.134 A 
ATOM     21  C   UNL     1      10.364  13.939  24.998  0.00  0.00    +0.196 A 
ATOM     28  H   UNL     1      11.004  14.596  23.080  0.00  0.00    +0.167 HD
ENDBRANCH  15  16
ENDBRANCH   6  15
ENDBRANCH  10   6
BRANCH  12  14
ATOM     14  C   UNL     1      13.176   6.639  20.522  0.00  0.00    +0.140 C 
BRANCH  14   7
ATOM      7  N   UNL     1      14.613   6.347  20.689  0.00  0.00    -0.187 NA
ATOM     26  H   UNL     1      14.934   6.228  21.657  0.00  0.00    +0.148 HD
BRANCH   7   1
ATOM      1  S   UNL     1      15.732   6.881  19.524  0.00  0.00    +0.058 S 
ATOM      4  O   UNL     1      15.186   8.026  18.822  0.00  0.00    -0.153 OA
ATOM      5  O   UNL     1      16.224   5.737  18.782  0.00  0.00    -0.153 OA
BRANCH   1  17
ATOM     17  C   UNL     1      17.065   7.450  20.538  0.00  0.00    +0.105 A 
ATOM     19  C   UNL     1      18.056   6.560  20.951  0.00  0.00    +0.028 A 
ATOM     20  C   UNL     1      17.123   8.788  20.928  0.00  0.00    +0.028 A 
ATOM     22  C   UNL     1      19.106   7.007  21.752  0.00  0.00    +0.002 A 
ATOM     23  C   UNL     1      18.172   9.236  21.730  0.00  0.00    +0.002 A 
ATOM     24  C   UNL     1      19.164   8.345  22.143  0.00  0.00    +0.000 A 
ENDBRANCH   1  17
ENDBRANCH   7   1
ENDBRANCH  14   7
ENDBRANCH  12  14
TORSDOF 8
ENDMDL
MODEL 5
REMARK VINA RESULT:      -6.1      2.224      2.948
REMARK  Name = 75536690
REMARK  8 active torsions:
REMARK  status: ('A' for Active; 'I' for Inactive)
REMARK    1  A    between atoms: S_1  and  N_7
REMARK    2  A    between atoms: S_1  and  C_17
REMARK    3  A    between atoms: O_3  and  C_11
REMARK    4  A    between atoms: N_6  and  C_10
REMARK    5  A    between atoms: N_6  and  C_15
REMARK    6  A    between atoms: N_7  and  C_14
REMARK    7  A    between atoms: C_12  and  C_14
REMARK    8  A    between atoms: C_15  and  C_16
REMARK                            x       y       z     vdW  Elec       q    Type
REMARK                         _______ _______ _______ _____ _____    ______ ____
ROOT
ATOM      2  O   UNL     1      16.674   8.038  21.165  0.00  0.00    -0.371 OA
ATOM     10  C   UNL     1      18.169   6.666  19.930  0.00  0.00    +0.111 C 
ATOM     11  C   UNL     1      16.759   6.125  19.777  0.00  0.00    +0.164 C 
ATOM     12  C   UNL     1      15.932   7.351  20.143  0.00  0.00    +0.164 C 
ATOM     13  C   UNL     1      18.023   7.539  21.166  0.00  0.00    +0.181 C 
ENDROOT
BRANCH  11   3
ATOM      3  O   UNL     1      16.486   5.678  18.464  0.00  0.00    -0.388 OA
ATOM     27  H   UNL     1      17.125   6.093  17.860  0.00  0.00    +0.210 HD
ENDBRANCH  11   3
BRANCH  10   6
ATOM      6  N   UNL     1      19.178   5.631  20.084  0.00  0.00    -0.304 NA
ATOM     25  H   UNL     1      19.438   5.282  19.161  0.00  0.00    +0.123 HD
BRANCH   6  15
ATOM     15  C   UNL     1      20.367   6.152  20.748  0.00  0.00    +0.136 C 
BRANCH  15  16
ATOM      8  N   UNL     1      21.732   5.200  22.642  0.00  0.00    -0.347 N 
ATOM      9  N   UNL     1      22.256   3.152  21.963  0.00  0.00    -0.244 NA
ATOM     16  C   UNL     1      21.166   5.059  21.407  0.00  0.00    +0.049 A 
ATOM     18  C   UNL     1      21.503   3.787  21.008  0.00  0.00    +0.134 A 
ATOM     21  C   UNL     1      22.376   4.030  22.934  0.00  0.00    +0.196 A 
ATOM     28  H   UNL     1      21.686   6.018  23.235  0.00  0.00    +0.167 HD
ENDBRANCH  15  16
ENDBRANCH   6  15
ENDBRANCH  10   6
BRANCH  12  14
ATOM     14  C   UNL     1      14.546   7.008  20.657  0.00  0.00    +0.140 C 
BRANCH  14   7
ATOM      7  N   UNL     1      13.609   8.098  20.319  0.00  0.00    -0.187 NA
ATOM     26  H   UNL     1      13.734   8.971  20.845  0.00  0.00    +0.148 HD
BRANCH   7   1
ATOM      1  S   UNL     1      12.065   7.734  19.707  0.00  0.00    +0.058 S 
ATOM      4  O   UNL     1      11.064   8.465  20.461  0.00  0.00    -0.153 OA
ATOM      5  O   UNL     1      11.948   6.298  19.541  0.00  0.00    -0.153 OA
BRANCH   1  17
ATOM     17  C   UNL     1      12.143   8.435  18.086  0.00  0.00    +0.105 A 
ATOM     19  C   UNL     1      11.004   8.463  17.282  0.00  0.00    +0.028 A 
ATOM     20  C   UNL     1      13.346   8.957  17.609  0.00  0.00    +0.028 A 
ATOM     22  C   UNL     1      11.067   9.013  16.003  0.00  0.00    +0.002 A 
ATOM     23  C   UNL     1      13.409   9.506  16.329  0.00  0.00    +0.002 A 
ATOM     24  C   UNL     1      12.269   9.534  15.525  0.00  0.00    +0.000 A 
ENDBRANCH   1  17
ENDBRANCH   7   1
ENDBRANCH  14   7
ENDBRANCH  12  14
TORSDOF 8
ENDMDL
MODEL 6
REMARK VINA RESULT:      -6.1     30.165     32.749
REMARK  Name = 75536690
REMARK  8 active torsions:
REMARK  status: ('A' for Active; 'I' for Inactive)
REMARK    1  A    between atoms: S_1  and  N_7
REMARK    2  A    between atoms: S_1  and  C_17
REMARK    3  A    between atoms: O_3  and  C_11
REMARK    4  A    between atoms: N_6  and  C_10
REMARK    5  A    between atoms: N_6  and  C_15
REMARK    6  A    between atoms: N_7  and  C_14
REMARK    7  A    between atoms: C_12  and  C_14
REMARK    8  A    between atoms: C_15  and  C_16
REMARK                            x       y       z     vdW  Elec       q    Type
REMARK                         _______ _______ _______ _____ _____    ______ ____
ROOT
ATOM      2  O   UNL     1     -16.211   1.982  24.745  0.00  0.00    -0.371 OA
ATOM     10  C   UNL     1     -17.178   2.615  26.820  0.00  0.00    +0.111 C 
ATOM     11  C   UNL     1     -16.319   3.756  26.305  0.00  0.00    +0.164 C 
ATOM     12  C   UNL     1     -16.239   3.417  24.823  0.00  0.00    +0.164 C 
ATOM     13  C   UNL     1     -16.643   1.446  26.008  0.00  0.00    +0.181 C 
ENDROOT
BRANCH  11   3
ATOM      3  O   UNL     1     -16.906   5.023  26.525  0.00  0.00    -0.388 OA
ATOM     27  H   UNL     1     -17.864   4.947  26.373  0.00  0.00    +0.210 HD
ENDBRANCH  11   3
BRANCH  10   6
ATOM      6  N   UNL     1     -17.069   2.404  28.254  0.00  0.00    -0.304 NA
ATOM     25  H   UNL     1     -17.455   1.487  28.484  0.00  0.00    +0.123 HD
BRANCH   6  15
ATOM     15  C   UNL     1     -15.679   2.455  28.689  0.00  0.00    +0.136 C 
BRANCH  15  16
ATOM      8  N   UNL     1     -15.444   0.120  29.610  0.00  0.00    -0.347 N 
ATOM      9  N   UNL     1     -14.909   0.425  31.744  0.00  0.00    -0.244 NA
ATOM     16  C   UNL     1     -15.400   1.473  29.795  0.00  0.00    +0.049 A 
ATOM     18  C   UNL     1     -15.068   1.636  31.120  0.00  0.00    +0.134 A 
ATOM     21  C   UNL     1     -15.142  -0.468  30.808  0.00  0.00    +0.196 A 
ATOM     28  H   UNL     1     -15.659  -0.363  28.748  0.00  0.00    +0.167 HD
ENDBRANCH  15  16
ENDBRANCH   6  15
ENDBRANCH  10   6
BRANCH  12  14
ATOM     14  C   UNL     1     -15.010   3.992  24.141  0.00  0.00    +0.140 C 
BRANCH  14   7
ATOM      7  N   UNL     1     -15.200   5.438  23.915  0.00  0.00    -0.187 NA
ATOM     26  H   UNL     1     -15.457   5.989  24.743  0.00  0.00    +0.148 HD
BRANCH   7   1
ATOM      1  S   UNL     1     -15.677   6.006  22.384  0.00  0.00    +0.058 S 
ATOM      4  O   UNL     1     -16.664   7.057  22.547  0.00  0.00    -0.153 OA
ATOM      5  O   UNL     1     -15.956   4.872  21.525  0.00  0.00    -0.153 OA
BRANCH   1  17
ATOM     17  C   UNL     1     -14.185   6.747  21.792  0.00  0.00    +0.105 A 
ATOM     19  C   UNL     1     -14.102   8.133  21.656  0.00  0.00    +0.028 A 
ATOM     20  C   UNL     1     -13.094   5.947  21.455  0.00  0.00    +0.028 A 
ATOM     22  C   UNL     1     -12.926   8.717  21.185  0.00  0.00    +0.002 A 
ATOM     23  C   UNL     1     -11.919   6.530  20.984  0.00  0.00    +0.002 A 
ATOM     24  C   UNL     1     -11.835   7.917  20.849  0.00  0.00    +0.000 A 
ENDBRANCH   1  17
ENDBRANCH   7   1
ENDBRANCH  14   7
ENDBRANCH  12  14
TORSDOF 8
ENDMDL
MODEL 7
REMARK VINA RESULT:      -6.1      3.409      9.709
REMARK  Name = 75536690
REMARK  8 active torsions:
REMARK  status: ('A' for Active; 'I' for Inactive)
REMARK    1  A    between atoms: S_1  and  N_7
REMARK    2  A    between atoms: S_1  and  C_17
REMARK    3  A    between atoms: O_3  and  C_11
REMARK    4  A    between atoms: N_6  and  C_10
REMARK    5  A    between atoms: N_6  and  C_15
REMARK    6  A    between atoms: N_7  and  C_14
REMARK    7  A    between atoms: C_12  and  C_14
REMARK    8  A    between atoms: C_15  and  C_16
REMARK                            x       y       z     vdW  Elec       q    Type
REMARK                         _______ _______ _______ _____ _____    ______ ____
ROOT
ATOM      2  O   UNL     1      18.486   7.505  21.627  0.00  0.00    -0.371 OA
ATOM     10  C   UNL     1      16.958   6.394  20.188  0.00  0.00    +0.111 C 
ATOM     11  C   UNL     1      18.374   6.123  19.711  0.00  0.00    +0.164 C 
ATOM     12  C   UNL     1      19.171   6.423  20.974  0.00  0.00    +0.164 C 
ATOM     13  C   UNL     1      17.165   7.616  21.067  0.00  0.00    +0.181 C 
ENDROOT
BRANCH  11   3
ATOM      3  O   UNL     1      18.557   4.790  19.277  0.00  0.00    -0.388 OA
ATOM     27  H   UNL     1      18.969   4.809  18.396  0.00  0.00    +0.210 HD
ENDBRANCH  11   3
BRANCH  10   6
ATOM      6  N   UNL     1      16.014   6.627  19.108  0.00  0.00    -0.304 NA
ATOM     25  H   UNL     1      15.967   5.793  18.522  0.00  0.00    +0.123 HD
BRANCH   6  15
ATOM     15  C   UNL     1      14.683   6.917  19.627  0.00  0.00    +0.136 C 
BRANCH  15  16
ATOM      8  N   UNL     1      13.706   7.659  17.425  0.00  0.00    -0.347 N 
ATOM      9  N   UNL     1      12.785   9.630  17.872  0.00  0.00    -0.244 NA
ATOM     16  C   UNL     1      13.938   7.889  18.751  0.00  0.00    +0.049 A 
ATOM     18  C   UNL     1      13.360   9.111  19.003  0.00  0.00    +0.134 A 
ATOM     21  C   UNL     1      13.010   8.732  16.939  0.00  0.00    +0.196 A 
ATOM     28  H   UNL     1      13.993   6.847  16.895  0.00  0.00    +0.167 HD
ENDBRANCH  15  16
ENDBRANCH   6  15
ENDBRANCH  10   6
BRANCH  12  14
ATOM     14  C   UNL     1      20.609   6.820  20.696  0.00  0.00    +0.140 C 
BRANCH  14   7
ATOM      7  N   UNL     1      21.363   5.646  20.214  0.00  0.00    -0.187 NA
ATOM     26  H   UNL     1      21.366   5.505  19.197  0.00  0.00    +0.148 HD
BRANCH   7   1
ATOM      1  S   UNL     1      21.561   4.289  21.220  0.00  0.00    +0.058 S 
ATOM      4  O   UNL     1      20.664   3.234  20.788  0.00  0.00    -0.153 OA
ATOM      5  O   UNL     1      21.563   4.722  22.604  0.00  0.00    -0.153 OA
BRANCH   1  17
ATOM     17  C   UNL     1      23.213   3.790  20.835  0.00  0.00    +0.105 A 
ATOM     19  C   UNL     1      24.113   4.712  20.301  0.00  0.00    +0.028 A 
ATOM     20  C   UNL     1      23.614   2.473  21.059  0.00  0.00    +0.028 A 
ATOM     22  C   UNL     1      25.415   4.317  19.994  0.00  0.00    +0.002 A 
ATOM     23  C   UNL     1      24.915   2.078  20.751  0.00  0.00    +0.002 A 
ATOM     24  C   UNL     1      25.816   3.001  20.218  0.00  0.00    +0.000 A 
ENDBRANCH   1  17
ENDBRANCH   7   1
ENDBRANCH  14   7
ENDBRANCH  12  14
TORSDOF 8
ENDMDL
MODEL 8
REMARK VINA RESULT:      -6.1     17.018     19.313
REMARK  Name = 75536690
REMARK  8 active torsions:
REMARK  status: ('A' for Active; 'I' for Inactive)
REMARK    1  A    between atoms: S_1  and  N_7
REMARK    2  A    between atoms: S_1  and  C_17
REMARK    3  A    between atoms: O_3  and  C_11
REMARK    4  A    between atoms: N_6  and  C_10
REMARK    5  A    between atoms: N_6  and  C_15
REMARK    6  A    between atoms: N_7  and  C_14
REMARK    7  A    between atoms: C_12  and  C_14
REMARK    8  A    between atoms: C_15  and  C_16
REMARK                            x       y       z     vdW  Elec       q    Type
REMARK                         _______ _______ _______ _____ _____    ______ ____
ROOT
ATOM      2  O   UNL     1      10.335   7.254   2.529  0.00  0.00    -0.371 OA
ATOM     10  C   UNL     1      11.014   7.488   4.793  0.00  0.00    +0.111 C 
ATOM     11  C   UNL     1      11.942   6.510   4.096  0.00  0.00    +0.164 C 
ATOM     12  C   UNL     1      11.720   6.883   2.636  0.00  0.00    +0.164 C 
ATOM     13  C   UNL     1       9.820   7.493   3.851  0.00  0.00    +0.181 C 
ENDROOT
BRANCH  11   3
ATOM      3  O   UNL     1      13.293   6.671   4.482  0.00  0.00    -0.388 OA
ATOM     27  H   UNL     1      13.447   7.613   4.669  0.00  0.00    +0.210 HD
ENDBRANCH  11   3
BRANCH  10   6
ATOM      6  N   UNL     1      10.662   7.095   6.148  0.00  0.00    -0.304 NA
ATOM     25  H   UNL     1       9.895   7.683   6.475  0.00  0.00    +0.123 HD
BRANCH   6  15
ATOM     15  C   UNL     1      10.244   5.699   6.199  0.00  0.00    +0.136 C 
BRANCH  15  16
ATOM      8  N   UNL     1      10.155   4.063   8.115  0.00  0.00    -0.347 N 
ATOM      9  N   UNL     1       9.023   5.135   9.696  0.00  0.00    -0.244 NA
ATOM     16  C   UNL     1       9.842   5.284   7.589  0.00  0.00    +0.049 A 
ATOM     18  C   UNL     1       9.143   5.928   8.583  0.00  0.00    +0.134 A 
ATOM     21  C   UNL     1       9.643   4.020   9.382  0.00  0.00    +0.196 A 
ATOM     28  H   UNL     1      10.670   3.324   7.656  0.00  0.00    +0.167 HD
ENDBRANCH  15  16
ENDBRANCH   6  15
ENDBRANCH  10   6
BRANCH  12  14
ATOM     14  C   UNL     1      12.023   5.749   1.674  0.00  0.00    +0.140 C 
BRANCH  14   7
ATOM      7  N   UNL     1      13.309   5.121   2.038  0.00  0.00    -0.187 NA
ATOM     26  H   UNL     1      14.090   5.767   2.201  0.00  0.00    +0.148 HD
BRANCH   7   1
ATOM      1  S   UNL     1      13.660   3.539   1.521  0.00  0.00    +0.058 S 
ATOM      4  O   UNL     1      12.543   2.670   1.840  0.00  0.00    -0.153 OA
ATOM      5  O   UNL     1      15.001   3.190   1.948  0.00  0.00    -0.153 OA
BRANCH   1  17
ATOM     17  C   UNL     1      13.714   3.735  -0.235  0.00  0.00    +0.105 A 
ATOM     19  C   UNL     1      12.689   3.215  -1.026  0.00  0.00    +0.028 A 
ATOM     20  C   UNL     1      14.782   4.406  -0.830  0.00  0.00    +0.028 A 
ATOM     22  C   UNL     1      12.733   3.366  -2.411  0.00  0.00    +0.002 A 
ATOM     23  C   UNL     1      14.826   4.557  -2.216  0.00  0.00    +0.002 A 
ATOM     24  C   UNL     1      13.801   4.037  -3.007  0.00  0.00    +0.000 A 
ENDBRANCH   1  17
ENDBRANCH   7   1
ENDBRANCH  14   7
ENDBRANCH  12  14
TORSDOF 8
ENDMDL
MODEL 9
REMARK VINA RESULT:      -6.1     17.181     18.432
REMARK  Name = 75536690
REMARK  8 active torsions:
REMARK  status: ('A' for Active; 'I' for Inactive)
REMARK    1  A    between atoms: S_1  and  N_7
REMARK    2  A    between atoms: S_1  and  C_17
REMARK    3  A    between atoms: O_3  and  C_11
REMARK    4  A    between atoms: N_6  and  C_10
REMARK    5  A    between atoms: N_6  and  C_15
REMARK    6  A    between atoms: N_7  and  C_14
REMARK    7  A    between atoms: C_12  and  C_14
REMARK    8  A    between atoms: C_15  and  C_16
REMARK                            x       y       z     vdW  Elec       q    Type
REMARK                         _______ _______ _______ _____ _____    ______ ____
ROOT
ATOM      2  O   UNL     1      13.258   4.259  -0.338  0.00  0.00    -0.371 OA
ATOM     10  C   UNL     1      15.472   4.736   0.378  0.00  0.00    +0.111 C 
ATOM     11  C   UNL     1      14.703   4.112   1.528  0.00  0.00    +0.164 C 
ATOM     12  C   UNL     1      13.573   3.415   0.782  0.00  0.00    +0.164 C 
ATOM     13  C   UNL     1      14.340   5.188  -0.531  0.00  0.00    +0.181 C 
ENDROOT
BRANCH  11   3
ATOM      3  O   UNL     1      15.483   3.199   2.274  0.00  0.00    -0.388 OA
ATOM     27  H   UNL     1      15.369   3.400   3.219  0.00  0.00    +0.210 HD
ENDBRANCH  11   3
BRANCH  10   6
ATOM      6  N   UNL     1      16.343   5.828   0.782  0.00  0.00    -0.304 NA
ATOM     25  H   UNL     1      16.959   6.065   0.004  0.00  0.00    +0.123 HD
BRANCH   6  15
ATOM     15  C   UNL     1      15.570   7.007   1.150  0.00  0.00    +0.136 C 
BRANCH  15  16
ATOM      8  N   UNL     1      14.904   6.836   3.576  0.00  0.00    -0.347 N 
ATOM      9  N   UNL     1      16.353   8.145   4.634  0.00  0.00    -0.244 NA
ATOM     16  C   UNL     1      15.724   7.346   2.609  0.00  0.00    +0.049 A 
ATOM     18  C   UNL     1      16.609   8.150   3.287  0.00  0.00    +0.134 A 
ATOM     21  C   UNL     1      15.320   7.344   4.776  0.00  0.00    +0.196 A 
ATOM     28  H   UNL     1      14.130   6.200   3.436  0.00  0.00    +0.167 HD
ENDBRANCH  15  16
ENDBRANCH   6  15
ENDBRANCH  10   6
BRANCH  12  14
ATOM     14  C   UNL     1      12.332   3.206   1.631  0.00  0.00    +0.140 C 
BRANCH  14   7
ATOM      7  N   UNL     1      12.188   4.326   2.582  0.00  0.00    -0.187 NA
ATOM     26  H   UNL     1      12.248   4.076   3.577  0.00  0.00    +0.148 HD
BRANCH   7   1
ATOM      1  S   UNL     1      11.293   5.705   2.146  0.00  0.00    +0.058 S 
ATOM      4  O   UNL     1      10.487   5.405   0.978  0.00  0.00    -0.153 OA
ATOM      5  O   UNL     1      12.170   6.859   2.149  0.00  0.00    -0.153 OA
BRANCH   1  17
ATOM     17  C   UNL     1      10.203   5.881   3.527  0.00  0.00    +0.105 A 
ATOM     19  C   UNL     1       9.308   6.949   3.577  0.00  0.00    +0.028 A 
ATOM     20  C   UNL     1      10.243   4.956   4.570  0.00  0.00    +0.028 A 
ATOM     22  C   UNL     1       8.451   7.091   4.668  0.00  0.00    +0.002 A 
ATOM     23  C   UNL     1       9.387   5.097   5.661  0.00  0.00    +0.002 A 
ATOM     24  C   UNL     1       8.490   6.165   5.710  0.00  0.00    +0.000 A 
ENDBRANCH   1  17
ENDBRANCH   7   1
ENDBRANCH  14   7
ENDBRANCH  12  14
TORSDOF 8
ENDMDL
MODEL 10
REMARK VINA RESULT:      -6.1     27.280     29.755
REMARK  Name = 75536690
REMARK  8 active torsions:
REMARK  status: ('A' for Active; 'I' for Inactive)
REMARK    1  A    between atoms: S_1  and  N_7
REMARK    2  A    between atoms: S_1  and  C_17
REMARK    3  A    between atoms: O_3  and  C_11
REMARK    4  A    between atoms: N_6  and  C_10
REMARK    5  A    between atoms: N_6  and  C_15
REMARK    6  A    between atoms: N_7  and  C_14
REMARK    7  A    between atoms: C_12  and  C_14
REMARK    8  A    between atoms: C_15  and  C_16
REMARK                            x       y       z     vdW  Elec       q    Type
REMARK                         _______ _______ _______ _____ _____    ______ ____
ROOT
ATOM      2  O   UNL     1      -4.900 -11.833  18.821  0.00  0.00    -0.371 OA
ATOM     10  C   UNL     1      -7.180 -11.170  18.861  0.00  0.00    +0.111 C 
ATOM     11  C   UNL     1      -6.459 -10.399  17.770  0.00  0.00    +0.164 C 
ATOM     12  C   UNL     1      -5.244 -11.288  17.536  0.00  0.00    +0.164 C 
ATOM     13  C   UNL     1      -6.014 -11.649  19.711  0.00  0.00    +0.181 C 
ENDROOT
BRANCH  11   3
ATOM      3  O   UNL     1      -7.238 -10.253  16.599  0.00  0.00    -0.388 OA
ATOM     27  H   UNL     1      -7.945 -10.921  16.616  0.00  0.00    +0.210 HD
ENDBRANCH  11   3
BRANCH  10   6
ATOM      6  N   UNL     1      -8.134 -10.368  19.609  0.00  0.00    -0.304 NA
ATOM     25  H   UNL     1      -7.980  -9.382  19.393  0.00  0.00    +0.123 HD
BRANCH   6  15
ATOM     15  C   UNL     1      -9.504 -10.721  19.262  0.00  0.00    +0.136 C 
BRANCH  15  16
ATOM      8  N   UNL     1      -9.504  -8.554  17.973  0.00  0.00    -0.347 N 
ATOM      9  N   UNL     1     -11.420  -8.586  16.850  0.00  0.00    -0.244 NA
ATOM     16  C   UNL     1     -10.115  -9.729  18.308  0.00  0.00    +0.049 A 
ATOM     18  C   UNL     1     -11.296  -9.726  17.603  0.00  0.00    +0.134 A 
ATOM     21  C   UNL     1     -10.325  -7.901  17.095  0.00  0.00    +0.196 A 
ATOM     28  H   UNL     1      -8.610  -8.223  18.309  0.00  0.00    +0.167 HD
ENDBRANCH  15  16
ENDBRANCH   6  15
ENDBRANCH  10   6
BRANCH  12  14
ATOM     14  C   UNL     1      -4.055 -10.540  16.960  0.00  0.00    +0.140 C 
BRANCH  14   7
ATOM      7  N   UNL     1      -4.331 -10.176  15.557  0.00  0.00    -0.187 NA
ATOM     26  H   UNL     1      -4.793  -9.270  15.414  0.00  0.00    +0.148 HD
BRANCH   7   1
ATOM      1  S   UNL     1      -4.556 -11.392  14.389  0.00  0.00    +0.058 S 
ATOM      4  O   UNL     1      -5.972 -11.536  14.111  0.00  0.00    -0.153 OA
ATOM      5  O   UNL     1      -3.763 -12.550  14.754  0.00  0.00    -0.153 OA
BRANCH   1  17
ATOM     17  C   UNL     1      -3.792 -10.672  12.966  0.00  0.00    +0.105 A 
ATOM     19  C   UNL     1      -4.577 -10.074  11.981  0.00  0.00    +0.028 A 
ATOM     20  C   UNL     1      -2.405 -10.707  12.825  0.00  0.00    +0.028 A 
ATOM     22  C   UNL     1      -3.976  -9.510  10.857  0.00  0.00    +0.002 A 
ATOM     23  C   UNL     1      -1.803 -10.144  11.701  0.00  0.00    +0.002 A 
ATOM     24  C   UNL     1      -2.588  -9.545  10.716  0.00  0.00    +0.000 A 
ENDBRANCH   1  17
ENDBRANCH   7   1
ENDBRANCH  14   7
ENDBRANCH  12  14
TORSDOF 8
ENDMDL
