MODEL 1
REMARK VINA RESULT:      -6.4      0.000      0.000
REMARK  Name = 7050310
REMARK  7 active torsions:
REMARK  status: ('A' for Active; 'I' for Inactive)
REMARK    1  A    between atoms: N_6  and  C_17
REMARK    2  A    between atoms: N_7  and  C_12
REMARK    3  A    between atoms: C_18  and  C_24
REMARK    4  A    between atoms: C_21  and  C_25
REMARK    5  A    between atoms: C_25  and  C_27
REMARK    6  A    between atoms: C_25  and  C_28
REMARK    7  A    between atoms: C_26  and  C_29
REMARK                            x       y       z     vdW  Elec       q    Type
REMARK                         _______ _______ _______ _____ _____    ______ ____
ROOT
ATOM      2  O   UNL     1     -10.570  10.483  19.568  0.00  0.00    -0.273 OA
ATOM      3  O   UNL     1     -12.799   8.099  16.265  0.00  0.00    -0.252 OA
ATOM      5  N   UNL     1     -11.314   9.882  16.251  0.00  0.00    -0.273 N 
ATOM      6  N   UNL     1     -11.839   8.991  18.238  0.00  0.00    -0.193 N 
ATOM     10  C   UNL     1     -10.585  10.701  17.180  0.00  0.00    +0.166 C 
ATOM     11  C   UNL     1     -11.002  12.163  17.061  0.00  0.00    +0.054 C 
ATOM     12  C   UNL     1     -10.974  12.647  15.600  0.00  0.00    +0.077 C 
ATOM     13  C   UNL     1     -11.753  11.694  14.677  0.00  0.00    +0.041 C 
ATOM     14  C   UNL     1     -11.319  10.236  14.843  0.00  0.00    +0.112 C 
ATOM     15  C   UNL     1     -10.996  10.068  18.497  0.00  0.00    +0.248 C 
ATOM     16  C   UNL     1     -12.062   8.873  16.863  0.00  0.00    +0.316 C 
ENDROOT
BRANCH   6  17
ATOM     17  C   UNL     1     -12.417   8.142  19.235  0.00  0.00    +0.045 A 
ATOM     19  C   UNL     1     -11.598   7.330  20.024  0.00  0.00    +0.024 A 
ATOM     20  C   UNL     1     -13.801   8.119  19.423  0.00  0.00    +0.024 A 
ATOM     21  C   UNL     1     -13.542   6.483  21.182  0.00  0.00    -0.045 A 
ATOM     22  C   UNL     1     -12.159   6.502  20.996  0.00  0.00    +0.006 A 
ATOM     23  C   UNL     1     -14.363   7.291  20.395  0.00  0.00    +0.006 A 
BRANCH  21  25
ATOM     25  C   UNL     1     -14.143   5.597  22.221  0.00  0.00    +0.013 C 
ATOM     27  C   UNL     1     -15.037   6.371  23.209  0.00  0.00    +0.012 C 
ATOM     28  C   UNL     1     -13.081   4.795  22.997  0.00  0.00    +0.012 C 
ENDBRANCH  21  25
ENDBRANCH   6  17
BRANCH  12   7
ATOM      4  O   UNL     1      -9.743  15.113  15.004  0.00  0.00    -0.270 OA
ATOM      7  N   UNL     1      -9.618  12.822  15.133  0.00  0.00    -0.308 N 
ATOM     18  C   UNL     1      -9.084  14.080  14.861  0.00  0.00    +0.254 C 
ATOM     30  H   UNL     1      -9.050  11.998  14.965  0.00  0.00    +0.149 HD
BRANCH  18  24
ATOM      1  S   UNL     1      -7.310  14.361  12.797  0.00  0.00    +0.041 S 
ATOM      8  N   UNL     1      -5.389  14.019  14.369  0.00  0.00    -0.146 NA
ATOM      9  N   UNL     1      -5.666  14.245  13.095  0.00  0.00    -0.110 NA
ATOM     24  C   UNL     1      -7.681  14.099  14.426  0.00  0.00    +0.117 A 
ATOM     26  C   UNL     1      -6.543  13.934  15.132  0.00  0.00    +0.081 A 
ATOM     29  C   UNL     1      -6.404  13.683  16.581  0.00  0.00    +0.069 C 
ENDBRANCH  18  24
ENDBRANCH  12   7
TORSDOF 4
ENDMDL
MODEL 2
REMARK VINA RESULT:      -6.2     20.865     22.341
REMARK  Name = 7050310
REMARK  7 active torsions:
REMARK  status: ('A' for Active; 'I' for Inactive)
REMARK    1  A    between atoms: N_6  and  C_17
REMARK    2  A    between atoms: N_7  and  C_12
REMARK    3  A    between atoms: C_18  and  C_24
REMARK    4  A    between atoms: C_21  and  C_25
REMARK    5  A    between atoms: C_25  and  C_27
REMARK    6  A    between atoms: C_25  and  C_28
REMARK    7  A    between atoms: C_26  and  C_29
REMARK                            x       y       z     vdW  Elec       q    Type
REMARK                         _______ _______ _______ _____ _____    ______ ____
ROOT
ATOM      2  O   UNL     1      -9.250 -11.573  15.968  0.00  0.00    -0.273 OA
ATOM      3  O   UNL     1      -7.315 -10.669  20.091  0.00  0.00    -0.252 OA
ATOM      5  N   UNL     1      -6.481 -11.033  17.956  0.00  0.00    -0.273 N 
ATOM      6  N   UNL     1      -8.706 -11.054  18.213  0.00  0.00    -0.193 N 
ATOM     10  C   UNL     1      -6.960 -11.332  16.635  0.00  0.00    +0.166 C 
ATOM     11  C   UNL     1      -6.411 -12.667  16.145  0.00  0.00    +0.054 C 
ATOM     12  C   UNL     1      -4.884 -12.756  16.323  0.00  0.00    +0.077 C 
ATOM     13  C   UNL     1      -4.463 -12.391  17.757  0.00  0.00    +0.041 C 
ATOM     14  C   UNL     1      -5.052 -11.055  18.216  0.00  0.00    +0.112 C 
ATOM     15  C   UNL     1      -8.459 -11.354  16.877  0.00  0.00    +0.248 C 
ATOM     16  C   UNL     1      -7.500 -10.872  18.897  0.00  0.00    +0.316 C 
ENDROOT
BRANCH   6  17
ATOM     17  C   UNL     1     -10.005 -10.968  18.809  0.00  0.00    +0.045 A 
ATOM     19  C   UNL     1     -10.773  -9.812  18.652  0.00  0.00    +0.024 A 
ATOM     20  C   UNL     1     -10.510 -12.039  19.551  0.00  0.00    +0.024 A 
ATOM     21  C   UNL     1     -12.540 -10.799  19.971  0.00  0.00    -0.045 A 
ATOM     22  C   UNL     1     -12.039  -9.728  19.231  0.00  0.00    +0.006 A 
ATOM     23  C   UNL     1     -11.775 -11.955  20.131  0.00  0.00    +0.006 A 
BRANCH  21  25
ATOM     25  C   UNL     1     -13.893 -10.709  20.592  0.00  0.00    +0.013 C 
ATOM     27  C   UNL     1     -14.332  -9.252  20.840  0.00  0.00    +0.012 C 
ATOM     28  C   UNL     1     -13.996 -11.514  21.901  0.00  0.00    +0.012 C 
ENDBRANCH  21  25
ENDBRANCH   6  17
BRANCH  12   7
ATOM      4  O   UNL     1      -2.907 -13.633  14.514  0.00  0.00    -0.270 OA
ATOM      7  N   UNL     1      -4.197 -11.928  15.358  0.00  0.00    -0.308 N 
ATOM     18  C   UNL     1      -3.229 -12.443  14.497  0.00  0.00    +0.254 C 
ATOM     30  H   UNL     1      -4.401 -10.934  15.334  0.00  0.00    +0.149 HD
BRANCH  18  24
ATOM      1  S   UNL     1      -2.973 -11.629  11.897  0.00  0.00    +0.041 S 
ATOM      8  N   UNL     1      -1.479  -9.748  12.607  0.00  0.00    -0.146 NA
ATOM      9  N   UNL     1      -2.029 -10.295  11.535  0.00  0.00    -0.110 NA
ATOM     24  C   UNL     1      -2.643 -11.485  13.550  0.00  0.00    +0.117 A 
ATOM     26  C   UNL     1      -1.830 -10.429  13.761  0.00  0.00    +0.081 A 
ATOM     29  C   UNL     1      -1.295  -9.942  15.049  0.00  0.00    +0.069 C 
ENDBRANCH  18  24
ENDBRANCH  12   7
TORSDOF 4
ENDMDL
MODEL 3
REMARK VINA RESULT:      -6.1     20.933     23.968
REMARK  Name = 7050310
REMARK  7 active torsions:
REMARK  status: ('A' for Active; 'I' for Inactive)
REMARK    1  A    between atoms: N_6  and  C_17
REMARK    2  A    between atoms: N_7  and  C_12
REMARK    3  A    between atoms: C_18  and  C_24
REMARK    4  A    between atoms: C_21  and  C_25
REMARK    5  A    between atoms: C_25  and  C_27
REMARK    6  A    between atoms: C_25  and  C_28
REMARK    7  A    between atoms: C_26  and  C_29
REMARK                            x       y       z     vdW  Elec       q    Type
REMARK                         _______ _______ _______ _____ _____    ______ ____
ROOT
ATOM      2  O   UNL     1      -7.245 -13.176  18.179  0.00  0.00    -0.273 OA
ATOM      3  O   UNL     1      -8.050  -8.744  17.053  0.00  0.00    -0.252 OA
ATOM      5  N   UNL     1      -9.211 -10.340  18.273  0.00  0.00    -0.273 N 
ATOM      6  N   UNL     1      -7.221 -10.929  17.431  0.00  0.00    -0.193 N 
ATOM     10  C   UNL     1      -9.081 -11.716  18.670  0.00  0.00    +0.166 C 
ATOM     11  C   UNL     1     -10.228 -12.553  18.114  0.00  0.00    +0.054 C 
ATOM     12  C   UNL     1     -11.597 -11.913  18.408  0.00  0.00    +0.077 C 
ATOM     13  C   UNL     1     -11.631 -10.436  17.978  0.00  0.00    +0.041 C 
ATOM     14  C   UNL     1     -10.453  -9.637  18.540  0.00  0.00    +0.112 C 
ATOM     15  C   UNL     1      -7.736 -12.061  18.056  0.00  0.00    +0.248 C 
ATOM     16  C   UNL     1      -8.122  -9.866  17.537  0.00  0.00    +0.316 C 
ENDROOT
BRANCH   6  17
ATOM     17  C   UNL     1      -5.961 -10.867  16.754  0.00  0.00    +0.045 A 
ATOM     19  C   UNL     1      -5.911 -10.934  15.359  0.00  0.00    +0.024 A 
ATOM     20  C   UNL     1      -4.776 -10.741  17.483  0.00  0.00    +0.024 A 
ATOM     21  C   UNL     1      -3.503 -10.747  15.429  0.00  0.00    -0.045 A 
ATOM     22  C   UNL     1      -4.684 -10.874  14.698  0.00  0.00    +0.006 A 
ATOM     23  C   UNL     1      -3.549 -10.681  16.822  0.00  0.00    +0.006 A 
BRANCH  21  25
ATOM     25  C   UNL     1      -2.191 -10.683  14.723  0.00  0.00    +0.013 C 
ATOM     27  C   UNL     1      -1.807 -12.025  14.072  0.00  0.00    +0.012 C 
ATOM     28  C   UNL     1      -1.051 -10.203  15.641  0.00  0.00    +0.012 C 
ENDBRANCH  21  25
ENDBRANCH   6  17
BRANCH  12   7
ATOM      4  O   UNL     1     -13.074 -14.037  19.529  0.00  0.00    -0.270 OA
ATOM      7  N   UNL     1     -11.950 -12.052  19.803  0.00  0.00    -0.308 N 
ATOM     18  C   UNL     1     -12.685 -13.137  20.276  0.00  0.00    +0.254 C 
ATOM     30  H   UNL     1     -11.683 -11.316  20.449  0.00  0.00    +0.149 HD
BRANCH  18  24
ATOM      1  S   UNL     1     -12.022 -14.169  22.723  0.00  0.00    +0.041 S 
ATOM      8  N   UNL     1     -13.768 -12.748  23.823  0.00  0.00    -0.146 NA
ATOM      9  N   UNL     1     -12.839 -13.652  24.090  0.00  0.00    -0.110 NA
ATOM     24  C   UNL     1     -12.936 -13.155  21.724  0.00  0.00    +0.117 A 
ATOM     26  C   UNL     1     -13.824 -12.463  22.468  0.00  0.00    +0.081 A 
ATOM     29  C   UNL     1     -14.814 -11.470  22.004  0.00  0.00    +0.069 C 
ENDBRANCH  18  24
ENDBRANCH  12   7
TORSDOF 4
ENDMDL
MODEL 4
REMARK VINA RESULT:      -6.1     21.977     23.586
REMARK  Name = 7050310
REMARK  7 active torsions:
REMARK  status: ('A' for Active; 'I' for Inactive)
REMARK    1  A    between atoms: N_6  and  C_17
REMARK    2  A    between atoms: N_7  and  C_12
REMARK    3  A    between atoms: C_18  and  C_24
REMARK    4  A    between atoms: C_21  and  C_25
REMARK    5  A    between atoms: C_25  and  C_27
REMARK    6  A    between atoms: C_25  and  C_28
REMARK    7  A    between atoms: C_26  and  C_29
REMARK                            x       y       z     vdW  Elec       q    Type
REMARK                         _______ _______ _______ _____ _____    ______ ____
ROOT
ATOM      2  O   UNL     1      -6.473  -7.377   8.996  0.00  0.00    -0.273 OA
ATOM      3  O   UNL     1      -6.827 -11.714   7.375  0.00  0.00    -0.252 OA
ATOM      5  N   UNL     1      -5.878 -10.766   9.270  0.00  0.00    -0.273 N 
ATOM      6  N   UNL     1      -6.926  -9.394   7.842  0.00  0.00    -0.193 N 
ATOM     10  C   UNL     1      -5.692  -9.471   9.863  0.00  0.00    +0.166 C 
ATOM     11  C   UNL     1      -4.208  -9.148  10.010  0.00  0.00    +0.054 C 
ATOM     12  C   UNL     1      -3.438 -10.296  10.688  0.00  0.00    +0.077 C 
ATOM     13  C   UNL     1      -3.723 -11.645  10.004  0.00  0.00    +0.041 C 
ATOM     14  C   UNL     1      -5.222 -11.920   9.859  0.00  0.00    +0.112 C 
ATOM     15  C   UNL     1      -6.398  -8.590   8.848  0.00  0.00    +0.248 C 
ATOM     16  C   UNL     1      -6.601 -10.734   8.075  0.00  0.00    +0.316 C 
ENDROOT
BRANCH   6  17
ATOM     17  C   UNL     1      -7.674  -8.918   6.718  0.00  0.00    +0.045 A 
ATOM     19  C   UNL     1      -7.055  -8.779   5.473  0.00  0.00    +0.024 A 
ATOM     20  C   UNL     1      -9.025  -8.590   6.860  0.00  0.00    +0.024 A 
ATOM     21  C   UNL     1      -9.131  -7.989   4.522  0.00  0.00    -0.045 A 
ATOM     22  C   UNL     1      -7.783  -8.315   4.377  0.00  0.00    +0.006 A 
ATOM     23  C   UNL     1      -9.752  -8.126   5.764  0.00  0.00    +0.006 A 
BRANCH  21  25
ATOM     25  C   UNL     1      -9.909  -7.493   3.350  0.00  0.00    +0.013 C 
ATOM     27  C   UNL     1      -9.147  -6.420   2.549  0.00  0.00    +0.012 C 
ATOM     28  C   UNL     1     -11.297  -6.958   3.749  0.00  0.00    +0.012 C 
ENDBRANCH  21  25
ENDBRANCH   6  17
BRANCH  12   7
ATOM      4  O   UNL     1      -1.771 -11.408  12.671  0.00  0.00    -0.270 OA
ATOM      7  N   UNL     1      -3.736 -10.361  12.100  0.00  0.00    -0.308 N 
ATOM     18  C   UNL     1      -2.854 -10.930  13.017  0.00  0.00    +0.254 C 
ATOM     30  H   UNL     1      -4.632 -10.014  12.427  0.00  0.00    +0.149 HD
BRANCH  18  24
ATOM      1  S   UNL     1      -4.904 -11.165  14.814  0.00  0.00    +0.041 S 
ATOM      8  N   UNL     1      -3.329 -10.711  16.709  0.00  0.00    -0.146 NA
ATOM      9  N   UNL     1      -4.600 -10.970  16.449  0.00  0.00    -0.110 NA
ATOM     24  C   UNL     1      -3.281 -10.893  14.422  0.00  0.00    +0.117 A 
ATOM     26  C   UNL     1      -2.573 -10.666  15.548  0.00  0.00    +0.081 A 
ATOM     29  C   UNL     1      -1.128 -10.386  15.667  0.00  0.00    +0.069 C 
ENDBRANCH  18  24
ENDBRANCH  12   7
TORSDOF 4
ENDMDL
MODEL 5
REMARK VINA RESULT:      -6.1     13.596     15.042
REMARK  Name = 7050310
REMARK  7 active torsions:
REMARK  status: ('A' for Active; 'I' for Inactive)
REMARK    1  A    between atoms: N_6  and  C_17
REMARK    2  A    between atoms: N_7  and  C_12
REMARK    3  A    between atoms: C_18  and  C_24
REMARK    4  A    between atoms: C_21  and  C_25
REMARK    5  A    between atoms: C_25  and  C_27
REMARK    6  A    between atoms: C_25  and  C_28
REMARK    7  A    between atoms: C_26  and  C_29
REMARK                            x       y       z     vdW  Elec       q    Type
REMARK                         _______ _______ _______ _____ _____    ______ ____
ROOT
ATOM      2  O   UNL     1      -3.275  10.088   7.894  0.00  0.00    -0.273 OA
ATOM      3  O   UNL     1      -1.764   9.838   3.511  0.00  0.00    -0.252 OA
ATOM      5  N   UNL     1      -0.988  10.880   5.433  0.00  0.00    -0.273 N 
ATOM      6  N   UNL     1      -2.853   9.652   5.605  0.00  0.00    -0.193 N 
ATOM     10  C   UNL     1      -1.362  11.044   6.811  0.00  0.00    +0.166 C 
ATOM     11  C   UNL     1      -1.592  12.515   7.141  0.00  0.00    +0.054 C 
ATOM     12  C   UNL     1      -0.419  13.396   6.672  0.00  0.00    +0.077 C 
ATOM     13  C   UNL     1      -0.071  13.129   5.197  0.00  0.00    +0.041 C 
ATOM     14  C   UNL     1       0.131  11.641   4.905  0.00  0.00    +0.112 C 
ATOM     15  C   UNL     1      -2.633  10.215   6.859  0.00  0.00    +0.248 C 
ATOM     16  C   UNL     1      -1.862  10.066   4.710  0.00  0.00    +0.316 C 
ENDROOT
BRANCH   6  17
ATOM     17  C   UNL     1      -3.950   8.795   5.272  0.00  0.00    +0.045 A 
ATOM     19  C   UNL     1      -5.194   9.342   4.946  0.00  0.00    +0.024 A 
ATOM     20  C   UNL     1      -3.783   7.408   5.270  0.00  0.00    +0.024 A 
ATOM     21  C   UNL     1      -6.092   7.123   4.619  0.00  0.00    -0.045 A 
ATOM     22  C   UNL     1      -6.263   8.508   4.621  0.00  0.00    +0.006 A 
ATOM     23  C   UNL     1      -4.852   6.573   4.944  0.00  0.00    +0.006 A 
BRANCH  21  25
ATOM     25  C   UNL     1      -7.235   6.231   4.272  0.00  0.00    +0.013 C 
ATOM     27  C   UNL     1      -8.362   6.978   3.533  0.00  0.00    +0.012 C 
ATOM     28  C   UNL     1      -7.811   5.505   5.502  0.00  0.00    +0.012 C 
ENDBRANCH  21  25
ENDBRANCH   6  17
BRANCH  12   7
ATOM      4  O   UNL     1       0.996  15.448   7.990  0.00  0.00    -0.270 OA
ATOM      7  N   UNL     1       0.740  13.214   7.516  0.00  0.00    -0.308 N 
ATOM     18  C   UNL     1       1.383  14.286   8.132  0.00  0.00    +0.254 C 
ATOM     30  H   UNL     1       1.118  12.279   7.632  0.00  0.00    +0.149 HD
BRANCH  18  24
ATOM      1  S   UNL     1       4.072  13.807   8.308  0.00  0.00    +0.041 S 
ATOM      8  N   UNL     1       3.862  13.392  10.770  0.00  0.00    -0.146 NA
ATOM      9  N   UNL     1       4.750  13.422   9.789  0.00  0.00    -0.110 NA
ATOM     24  C   UNL     1       2.528  13.939   8.986  0.00  0.00    +0.117 A 
ATOM     26  C   UNL     1       2.589  13.687  10.310  0.00  0.00    +0.081 A 
ATOM     29  C   UNL     1       1.479  13.694  11.284  0.00  0.00    +0.069 C 
ENDBRANCH  18  24
ENDBRANCH  12   7
TORSDOF 4
ENDMDL
MODEL 6
REMARK VINA RESULT:      -6.0     22.830     26.829
REMARK  Name = 7050310
REMARK  7 active torsions:
REMARK  status: ('A' for Active; 'I' for Inactive)
REMARK    1  A    between atoms: N_6  and  C_17
REMARK    2  A    between atoms: N_7  and  C_12
REMARK    3  A    between atoms: C_18  and  C_24
REMARK    4  A    between atoms: C_21  and  C_25
REMARK    5  A    between atoms: C_25  and  C_27
REMARK    6  A    between atoms: C_25  and  C_28
REMARK    7  A    between atoms: C_26  and  C_29
REMARK                            x       y       z     vdW  Elec       q    Type
REMARK                         _______ _______ _______ _____ _____    ______ ____
ROOT
ATOM      2  O   UNL     1      12.081   7.836   2.447  0.00  0.00    -0.273 OA
ATOM      3  O   UNL     1      10.385   3.954   4.349  0.00  0.00    -0.252 OA
ATOM      5  N   UNL     1      10.583   6.154   5.062  0.00  0.00    -0.273 N 
ATOM      6  N   UNL     1      11.293   5.671   2.994  0.00  0.00    -0.193 N 
ATOM     10  C   UNL     1      11.091   7.412   4.588  0.00  0.00    +0.166 C 
ATOM     11  C   UNL     1      12.209   7.923   5.491  0.00  0.00    +0.054 C 
ATOM     12  C   UNL     1      11.800   7.899   6.975  0.00  0.00    +0.077 C 
ATOM     13  C   UNL     1      11.242   6.525   7.383  0.00  0.00    +0.041 C 
ATOM     14  C   UNL     1      10.138   6.040   6.440  0.00  0.00    +0.112 C 
ATOM     15  C   UNL     1      11.573   7.018   3.204  0.00  0.00    +0.248 C 
ATOM     16  C   UNL     1      10.702   5.118   4.133  0.00  0.00    +0.316 C 
ENDROOT
BRANCH   6  17
ATOM     17  C   UNL     1      11.591   4.947   1.794  0.00  0.00    +0.045 A 
ATOM     19  C   UNL     1      12.794   4.246   1.679  0.00  0.00    +0.024 A 
ATOM     20  C   UNL     1      10.681   4.940   0.734  0.00  0.00    +0.024 A 
ATOM     21  C   UNL     1      12.173   3.535  -0.546  0.00  0.00    -0.045 A 
ATOM     22  C   UNL     1      13.084   3.541   0.511  0.00  0.00    +0.006 A 
ATOM     23  C   UNL     1      10.972   4.235  -0.434  0.00  0.00    +0.006 A 
BRANCH  21  25
ATOM     25  C   UNL     1      12.484   2.782  -1.794  0.00  0.00    +0.013 C 
ATOM     27  C   UNL     1      13.190   3.655  -2.849  0.00  0.00    +0.012 C 
ATOM     28  C   UNL     1      11.235   2.125  -2.412  0.00  0.00    +0.012 C 
ENDBRANCH  21  25
ENDBRANCH   6  17
BRANCH  12   7
ATOM      4  O   UNL     1      12.446  10.508   7.829  0.00  0.00    -0.270 OA
ATOM      7  N   UNL     1      10.852   8.949   7.272  0.00  0.00    -0.308 N 
ATOM     18  C   UNL     1      11.256  10.215   7.690  0.00  0.00    +0.254 C 
ATOM     30  H   UNL     1       9.860   8.743   7.209  0.00  0.00    +0.149 HD
BRANCH  18  24
ATOM      1  S   UNL     1       9.310  11.807   6.609  0.00  0.00    +0.041 S 
ATOM      8  N   UNL     1       8.665  12.612   8.892  0.00  0.00    -0.146 NA
ATOM      9  N   UNL     1       8.357  12.749   7.613  0.00  0.00    -0.110 NA
ATOM     24  C   UNL     1      10.177  11.186   7.922  0.00  0.00    +0.117 A 
ATOM     26  C   UNL     1       9.708  11.717   9.070  0.00  0.00    +0.081 A 
ATOM     29  C   UNL     1      10.174  11.453  10.446  0.00  0.00    +0.069 C 
ENDBRANCH  18  24
ENDBRANCH  12   7
TORSDOF 4
ENDMDL
MODEL 7
REMARK VINA RESULT:      -6.0     21.535     22.655
REMARK  Name = 7050310
REMARK  7 active torsions:
REMARK  status: ('A' for Active; 'I' for Inactive)
REMARK    1  A    between atoms: N_6  and  C_17
REMARK    2  A    between atoms: N_7  and  C_12
REMARK    3  A    between atoms: C_18  and  C_24
REMARK    4  A    between atoms: C_21  and  C_25
REMARK    5  A    between atoms: C_25  and  C_27
REMARK    6  A    between atoms: C_25  and  C_28
REMARK    7  A    between atoms: C_26  and  C_29
REMARK                            x       y       z     vdW  Elec       q    Type
REMARK                         _______ _______ _______ _____ _____    ______ ____
ROOT
ATOM      2  O   UNL     1      -7.463 -11.090  13.171  0.00  0.00    -0.273 OA
ATOM      3  O   UNL     1      -2.889 -10.296  13.102  0.00  0.00    -0.252 OA
ATOM      5  N   UNL     1      -4.584 -10.130  11.526  0.00  0.00    -0.273 N 
ATOM      6  N   UNL     1      -5.156 -10.765  13.597  0.00  0.00    -0.193 N 
ATOM     10  C   UNL     1      -6.000 -10.356  11.420  0.00  0.00    +0.166 C 
ATOM     11  C   UNL     1      -6.303 -11.421  10.372  0.00  0.00    +0.054 C 
ATOM     12  C   UNL     1      -5.585 -11.133   9.041  0.00  0.00    +0.077 C 
ATOM     13  C   UNL     1      -4.084 -10.874   9.257  0.00  0.00    +0.041 C 
ATOM     14  C   UNL     1      -3.823  -9.815  10.331  0.00  0.00    +0.112 C 
ATOM     15  C   UNL     1      -6.321 -10.802  12.835  0.00  0.00    +0.248 C 
ATOM     16  C   UNL     1      -4.074 -10.372  12.804  0.00  0.00    +0.316 C 
ENDROOT
BRANCH   6  17
ATOM     17  C   UNL     1      -5.072 -11.104  14.985  0.00  0.00    +0.045 A 
ATOM     19  C   UNL     1      -4.895 -12.435  15.372  0.00  0.00    +0.024 A 
ATOM     20  C   UNL     1      -5.166 -10.107  15.960  0.00  0.00    +0.024 A 
ATOM     21  C   UNL     1      -4.906 -11.769  17.694  0.00  0.00    -0.045 A 
ATOM     22  C   UNL     1      -4.812 -12.767  16.724  0.00  0.00    +0.006 A 
ATOM     23  C   UNL     1      -5.083 -10.439  17.312  0.00  0.00    +0.006 A 
BRANCH  21  25
ATOM     25  C   UNL     1      -4.818 -12.124  19.140  0.00  0.00    +0.013 C 
ATOM     27  C   UNL     1      -5.650 -11.181  20.030  0.00  0.00    +0.012 C 
ATOM     28  C   UNL     1      -3.364 -12.172  19.647  0.00  0.00    +0.012 C 
ENDBRANCH  21  25
ENDBRANCH   6  17
BRANCH  12   7
ATOM      4  O   UNL     1      -7.800 -11.316   7.306  0.00  0.00    -0.270 OA
ATOM      7  N   UNL     1      -6.203 -10.029   8.342  0.00  0.00    -0.308 N 
ATOM     18  C   UNL     1      -7.299 -10.206   7.500  0.00  0.00    +0.254 C 
ATOM     30  H   UNL     1      -5.800  -9.103   8.441  0.00  0.00    +0.149 HD
BRANCH  18  24
ATOM      1  S   UNL     1      -8.494  -7.772   7.866  0.00  0.00    +0.041 S 
ATOM      8  N   UNL     1      -8.492  -7.371   5.393  0.00  0.00    -0.146 NA
ATOM      9  N   UNL     1      -8.849  -6.815   6.539  0.00  0.00    -0.110 NA
ATOM     24  C   UNL     1      -7.837  -8.984   6.886  0.00  0.00    +0.117 A 
ATOM     26  C   UNL     1      -7.912  -8.614   5.591  0.00  0.00    +0.081 A 
ATOM     29  C   UNL     1      -7.457  -9.369   4.406  0.00  0.00    +0.069 C 
ENDBRANCH  18  24
ENDBRANCH  12   7
TORSDOF 4
ENDMDL
MODEL 8
REMARK VINA RESULT:      -5.9     20.594     21.854
REMARK  Name = 7050310
REMARK  7 active torsions:
REMARK  status: ('A' for Active; 'I' for Inactive)
REMARK    1  A    between atoms: N_6  and  C_17
REMARK    2  A    between atoms: N_7  and  C_12
REMARK    3  A    between atoms: C_18  and  C_24
REMARK    4  A    between atoms: C_21  and  C_25
REMARK    5  A    between atoms: C_25  and  C_27
REMARK    6  A    between atoms: C_25  and  C_28
REMARK    7  A    between atoms: C_26  and  C_29
REMARK                            x       y       z     vdW  Elec       q    Type
REMARK                         _______ _______ _______ _____ _____    ______ ____
ROOT
ATOM      2  O   UNL     1      -9.342 -11.200  15.398  0.00  0.00    -0.273 OA
ATOM      3  O   UNL     1      -6.633 -10.093  19.003  0.00  0.00    -0.252 OA
ATOM      5  N   UNL     1      -6.255 -10.434  16.739  0.00  0.00    -0.273 N 
ATOM      6  N   UNL     1      -8.365 -10.606  17.471  0.00  0.00    -0.193 N 
ATOM     10  C   UNL     1      -6.985 -10.788  15.553  0.00  0.00    +0.166 C 
ATOM     11  C   UNL     1      -6.460 -12.090  14.958  0.00  0.00    +0.054 C 
ATOM     12  C   UNL     1      -4.928 -12.069  14.802  0.00  0.00    +0.077 C 
ATOM     13  C   UNL     1      -4.235 -11.651  16.110  0.00  0.00    +0.041 C 
ATOM     14  C   UNL     1      -4.806 -10.352  16.684  0.00  0.00    +0.112 C 
ATOM     15  C   UNL     1      -8.391 -10.911  16.114  0.00  0.00    +0.248 C 
ATOM     16  C   UNL     1      -7.056 -10.328  17.878  0.00  0.00    +0.316 C 
ENDROOT
BRANCH   6  17
ATOM     17  C   UNL     1      -9.507 -10.601  18.334  0.00  0.00    +0.045 A 
ATOM     19  C   UNL     1      -9.663 -11.603  19.296  0.00  0.00    +0.024 A 
ATOM     20  C   UNL     1     -10.472  -9.597  18.218  0.00  0.00    +0.024 A 
ATOM     21  C   UNL     1     -11.736 -10.595  20.019  0.00  0.00    -0.045 A 
ATOM     22  C   UNL     1     -10.775 -11.599  20.138  0.00  0.00    +0.006 A 
ATOM     23  C   UNL     1     -11.584  -9.594  19.059  0.00  0.00    +0.006 A 
BRANCH  21  25
ATOM     25  C   UNL     1     -12.926 -10.591  20.919  0.00  0.00    +0.013 C 
ATOM     27  C   UNL     1     -13.578 -11.981  21.038  0.00  0.00    +0.012 C 
ATOM     28  C   UNL     1     -13.982  -9.553  20.493  0.00  0.00    +0.012 C 
ENDBRANCH  21  25
ENDBRANCH   6  17
BRANCH  12   7
ATOM      4  O   UNL     1      -4.759 -12.827  12.091  0.00  0.00    -0.270 OA
ATOM      7  N   UNL     1      -4.526 -11.212  13.710  0.00  0.00    -0.308 N 
ATOM     18  C   UNL     1      -4.469 -11.668  12.394  0.00  0.00    +0.254 C 
ATOM     30  H   UNL     1      -4.242 -10.260  13.916  0.00  0.00    +0.149 HD
BRANCH  18  24
ATOM      1  S   UNL     1      -5.201 -10.143  10.242  0.00  0.00    +0.041 S 
ATOM      8  N   UNL     1      -2.903  -9.153  10.130  0.00  0.00    -0.146 NA
ATOM      9  N   UNL     1      -4.084  -9.115   9.536  0.00  0.00    -0.110 NA
ATOM     24  C   UNL     1      -4.075 -10.670  11.389  0.00  0.00    +0.117 A 
ATOM     26  C   UNL     1      -2.897 -10.044  11.192  0.00  0.00    +0.081 A 
ATOM     29  C   UNL     1      -1.647 -10.203  11.962  0.00  0.00    +0.069 C 
ENDBRANCH  18  24
ENDBRANCH  12   7
TORSDOF 4
ENDMDL
MODEL 9
REMARK VINA RESULT:      -5.9      5.743     11.261
REMARK  Name = 7050310
REMARK  7 active torsions:
REMARK  status: ('A' for Active; 'I' for Inactive)
REMARK    1  A    between atoms: N_6  and  C_17
REMARK    2  A    between atoms: N_7  and  C_12
REMARK    3  A    between atoms: C_18  and  C_24
REMARK    4  A    between atoms: C_21  and  C_25
REMARK    5  A    between atoms: C_25  and  C_27
REMARK    6  A    between atoms: C_25  and  C_28
REMARK    7  A    between atoms: C_26  and  C_29
REMARK                            x       y       z     vdW  Elec       q    Type
REMARK                         _______ _______ _______ _____ _____    ______ ____
ROOT
ATOM      2  O   UNL     1     -15.096   8.476  19.158  0.00  0.00    -0.273 OA
ATOM      3  O   UNL     1     -11.259   6.882  21.231  0.00  0.00    -0.252 OA
ATOM      5  N   UNL     1     -13.474   6.193  21.177  0.00  0.00    -0.273 N 
ATOM      6  N   UNL     1     -12.922   7.994  19.965  0.00  0.00    -0.193 N 
ATOM     10  C   UNL     1     -14.728   6.598  20.603  0.00  0.00    +0.166 C 
ATOM     11  C   UNL     1     -15.750   6.911  21.691  0.00  0.00    +0.054 C 
ATOM     12  C   UNL     1     -15.841   5.779  22.730  0.00  0.00    +0.077 C 
ATOM     13  C   UNL     1     -14.451   5.393  23.266  0.00  0.00    +0.041 C 
ATOM     14  C   UNL     1     -13.452   5.108  22.142  0.00  0.00    +0.112 C 
ATOM     15  C   UNL     1     -14.296   7.824  19.818  0.00  0.00    +0.248 C 
ATOM     16  C   UNL     1     -12.403   7.011  20.813  0.00  0.00    +0.316 C 
ENDROOT
BRANCH   6  17
ATOM     17  C   UNL     1     -12.154   9.038  19.357  0.00  0.00    +0.045 A 
ATOM     19  C   UNL     1     -12.222  10.341  19.858  0.00  0.00    +0.024 A 
ATOM     20  C   UNL     1     -11.335   8.761  18.260  0.00  0.00    +0.024 A 
ATOM     21  C   UNL     1     -10.657  11.078  18.172  0.00  0.00    -0.045 A 
ATOM     22  C   UNL     1     -11.474  11.359  19.267  0.00  0.00    +0.006 A 
ATOM     23  C   UNL     1     -10.587   9.779  17.668  0.00  0.00    +0.006 A 
BRANCH  21  25
ATOM     25  C   UNL     1      -9.857  12.166  17.539  0.00  0.00    +0.013 C 
ATOM     27  C   UNL     1     -10.358  13.570  17.932  0.00  0.00    +0.012 C 
ATOM     28  C   UNL     1      -9.805  12.043  16.004  0.00  0.00    +0.012 C 
ENDBRANCH  21  25
ENDBRANCH   6  17
BRANCH  12   7
ATOM      4  O   UNL     1     -18.517   5.053  23.246  0.00  0.00    -0.270 OA
ATOM      7  N   UNL     1     -16.523   4.626  22.188  0.00  0.00    -0.308 N 
ATOM     18  C   UNL     1     -17.851   4.338  22.495  0.00  0.00    +0.254 C 
ATOM     30  H   UNL     1     -16.003   3.987  21.594  0.00  0.00    +0.149 HD
BRANCH  18  24
ATOM      1  S   UNL     1     -18.647   1.731  22.730  0.00  0.00    +0.041 S 
ATOM      8  N   UNL     1     -19.301   1.686  20.312  0.00  0.00    -0.146 NA
ATOM      9  N   UNL     1     -19.263   0.928  21.396  0.00  0.00    -0.110 NA
ATOM     24  C   UNL     1     -18.415   3.150  21.840  0.00  0.00    +0.117 A 
ATOM     26  C   UNL     1     -18.815   2.958  20.566  0.00  0.00    +0.081 A 
ATOM     29  C   UNL     1     -18.790   3.929  19.453  0.00  0.00    +0.069 C 
ENDBRANCH  18  24
ENDBRANCH  12   7
TORSDOF 4
ENDMDL
MODEL 10
REMARK VINA RESULT:      -5.9     20.546     22.391
REMARK  Name = 7050310
REMARK  7 active torsions:
REMARK  status: ('A' for Active; 'I' for Inactive)
REMARK    1  A    between atoms: N_6  and  C_17
REMARK    2  A    between atoms: N_7  and  C_12
REMARK    3  A    between atoms: C_18  and  C_24
REMARK    4  A    between atoms: C_21  and  C_25
REMARK    5  A    between atoms: C_25  and  C_27
REMARK    6  A    between atoms: C_25  and  C_28
REMARK    7  A    between atoms: C_26  and  C_29
REMARK                            x       y       z     vdW  Elec       q    Type
REMARK                         _______ _______ _______ _____ _____    ______ ____
ROOT
ATOM      2  O   UNL     1      -8.938 -12.940  18.002  0.00  0.00    -0.273 OA
ATOM      3  O   UNL     1      -8.532  -8.383  17.206  0.00  0.00    -0.252 OA
ATOM      5  N   UNL     1      -7.263 -10.244  16.645  0.00  0.00    -0.273 N 
ATOM      6  N   UNL     1      -9.156 -10.591  17.791  0.00  0.00    -0.193 N 
ATOM     10  C   UNL     1      -7.271 -11.668  16.839  0.00  0.00    +0.166 C 
ATOM     11  C   UNL     1      -6.030 -12.120  17.601  0.00  0.00    +0.054 C 
ATOM     12  C   UNL     1      -4.741 -11.551  16.979  0.00  0.00    +0.077 C 
ATOM     13  C   UNL     1      -4.836 -10.029  16.781  0.00  0.00    +0.041 C 
ATOM     14  C   UNL     1      -6.106  -9.616  16.032  0.00  0.00    +0.112 C 
ATOM     15  C   UNL     1      -8.554 -11.836  17.634  0.00  0.00    +0.248 C 
ATOM     16  C   UNL     1      -8.367  -9.597  17.205  0.00  0.00    +0.316 C 
ENDROOT
BRANCH   6  17
ATOM     17  C   UNL     1     -10.392 -10.357  18.475  0.00  0.00    +0.045 A 
ATOM     19  C   UNL     1     -11.559 -10.109  17.747  0.00  0.00    +0.024 A 
ATOM     20  C   UNL     1     -10.437 -10.374  19.871  0.00  0.00    +0.024 A 
ATOM     21  C   UNL     1     -12.805  -9.899  19.807  0.00  0.00    -0.045 A 
ATOM     22  C   UNL     1     -12.764  -9.881  18.412  0.00  0.00    +0.006 A 
ATOM     23  C   UNL     1     -11.642 -10.146  20.536  0.00  0.00    +0.006 A 
BRANCH  21  25
ATOM     25  C   UNL     1     -14.093  -9.655  20.518  0.00  0.00    +0.013 C 
ATOM     27  C   UNL     1     -14.578 -10.891  21.300  0.00  0.00    +0.012 C 
ATOM     28  C   UNL     1     -15.206  -9.168  19.570  0.00  0.00    +0.012 C 
ENDBRANCH  21  25
ENDBRANCH   6  17
BRANCH  12   7
ATOM      4  O   UNL     1      -2.256 -11.458  15.649  0.00  0.00    -0.270 OA
ATOM      7  N   UNL     1      -4.424 -12.214  15.735  0.00  0.00    -0.308 N 
ATOM     18  C   UNL     1      -3.167 -12.116  15.142  0.00  0.00    +0.254 C 
ATOM     30  H   UNL     1      -5.155 -12.737  15.261  0.00  0.00    +0.149 HD
BRANCH  18  24
ATOM      1  S   UNL     1      -2.278 -14.408  13.939  0.00  0.00    +0.041 S 
ATOM      8  N   UNL     1      -2.983 -13.535  11.699  0.00  0.00    -0.146 NA
ATOM      9  N   UNL     1      -2.422 -14.583  12.280  0.00  0.00    -0.110 NA
ATOM     24  C   UNL     1      -2.988 -12.873  13.895  0.00  0.00    +0.117 A 
ATOM     26  C   UNL     1      -3.307 -12.555  12.623  0.00  0.00    +0.081 A 
ATOM     29  C   UNL     1      -3.943 -11.316  12.133  0.00  0.00    +0.069 C 
ENDBRANCH  18  24
ENDBRANCH  12   7
TORSDOF 4
ENDMDL
