MODEL 1
REMARK VINA RESULT:      -6.5      0.000      0.000
REMARK  Name = 71693198
REMARK  13 active torsions:
REMARK  status: ('A' for Active; 'I' for Inactive)
REMARK    1  A    between atoms: O_2  and  C_27
REMARK    2  A    between atoms: O_2  and  C_31
REMARK    3  A    between atoms: O_3  and  C_30
REMARK    4  A    between atoms: N_5  and  C_15
REMARK    5  A    between atoms: C_8  and  C_12
REMARK    6  A    between atoms: C_9  and  C_15
REMARK    7  A    between atoms: C_11  and  C_16
REMARK    8  A    between atoms: C_12  and  C_17
REMARK    9  A    between atoms: C_12  and  C_18
REMARK   10  A    between atoms: C_13  and  C_19
REMARK   11  A    between atoms: C_16  and  C_20
REMARK   12  A    between atoms: C_22  and  C_26
REMARK   13  A    between atoms: C_29  and  C_30
REMARK                            x       y       z     vdW  Elec       q    Type
REMARK                         _______ _______ _______ _____ _____    ______ ____
ROOT
ATOM      8  C   UNL     1      -6.540  -9.472   9.673  0.00  0.00    +0.000 C 
ATOM      9  C   UNL     1      -5.532  -9.071   8.566  0.00  0.00    +0.032 C 
ATOM     10  C   UNL     1      -6.128  -8.859  11.020  0.00  0.00    +0.012 C 
ATOM     11  C   UNL     1      -4.721  -9.306  11.457  0.00  0.00    +0.022 C 
ATOM     13  C   UNL     1      -3.717  -9.193  10.328  0.00  0.00    -0.073 C 
ATOM     14  C   UNL     1      -4.098  -9.075   9.043  0.00  0.00    -0.022 C 
ATOM     19  C   UNL     1      -2.264  -9.172  10.713  0.00  0.00    +0.039 C 
ENDROOT
BRANCH   8  12
ATOM     12  C   UNL     1      -7.968  -9.043   9.322  0.00  0.00    -0.013 C 
ATOM     17  C   UNL     1      -8.888  -9.224  10.525  0.00  0.00    +0.007 C 
ATOM     18  C   UNL     1      -7.986  -7.595   8.841  0.00  0.00    +0.007 C 
ENDBRANCH   8  12
BRANCH   9  15
ATOM     15  C   UNL     1      -5.664  -9.984   7.342  0.00  0.00    +0.112 C 
BRANCH  15   5
ATOM      1  O   UNL     1      -8.241 -10.006   6.024  0.00  0.00    -0.271 OA
ATOM      5  N   UNL     1      -6.053  -9.234   6.189  0.00  0.00    -0.311 N 
ATOM     22  C   UNL     1      -7.321  -9.306   5.616  0.00  0.00    +0.237 C 
ATOM     32  H   UNL     1      -5.375  -8.584   5.800  0.00  0.00    +0.149 HD
BRANCH  22  26
ATOM     26  C   UNL     1      -7.456  -8.423   4.424  0.00  0.00    +0.074 C 
ATOM     29  C   UNL     1      -7.816  -8.947   3.246  0.00  0.00    +0.096 C 
BRANCH  29  30
ATOM      4  O   UNL     1      -8.080  -8.413   0.913  0.00  0.00    -0.246 OA
ATOM     30  C   UNL     1      -7.945  -8.062   2.072  0.00  0.00    +0.330 C 
BRANCH  30   3
ATOM      3  O   UNL     1      -7.889  -6.776   2.489  0.00  0.00    -0.478 OA
ATOM     34  H   UNL     1      -6.972  -6.427   2.481  0.00  0.00    +0.295 HD
ENDBRANCH  30   3
ENDBRANCH  29  30
ENDBRANCH  22  26
ENDBRANCH  15   5
ENDBRANCH   9  15
BRANCH  11  16
ATOM     16  C   UNL     1      -4.745 -10.729  12.028  0.00  0.00    +0.082 C 
BRANCH  16  20
ATOM      6  N   UNL     1      -6.103 -10.720  14.129  0.00  0.00    -0.342 N 
ATOM      7  N   UNL     1      -3.897 -10.699  14.400  0.00  0.00    -0.232 NA
ATOM     20  C   UNL     1      -4.877 -10.717  13.525  0.00  0.00    +0.109 A 
ATOM     21  C   UNL     1      -5.901 -10.705  15.486  0.00  0.00    +0.070 A 
ATOM     23  C   UNL     1      -4.516 -10.692  15.629  0.00  0.00    +0.089 A 
ATOM     24  C   UNL     1      -6.783 -10.701  16.567  0.00  0.00    +0.073 A 
ATOM     25  C   UNL     1      -3.961 -10.673  16.919  0.00  0.00    +0.033 A 
ATOM     27  C   UNL     1      -6.213 -10.684  17.844  0.00  0.00    +0.122 A 
ATOM     28  C   UNL     1      -4.827 -10.669  18.019  0.00  0.00    +0.048 A 
ATOM     33  H   UNL     1      -7.000 -10.734  13.663  0.00  0.00    +0.167 HD
BRANCH  27   2
ATOM      2  O   UNL     1      -7.027 -10.680  18.938  0.00  0.00    -0.495 OA
ATOM     31  C   UNL     1      -7.226 -11.927  19.600  0.00  0.00    +0.277 C 
ENDBRANCH  27   2
ENDBRANCH  16  20
ENDBRANCH  11  16
TORSDOF 9
ENDMDL
MODEL 2
REMARK VINA RESULT:      -6.4     28.352     31.402
REMARK  Name = 71693198
REMARK  13 active torsions:
REMARK  status: ('A' for Active; 'I' for Inactive)
REMARK    1  A    between atoms: O_2  and  C_27
REMARK    2  A    between atoms: O_2  and  C_31
REMARK    3  A    between atoms: O_3  and  C_30
REMARK    4  A    between atoms: N_5  and  C_15
REMARK    5  A    between atoms: C_8  and  C_12
REMARK    6  A    between atoms: C_9  and  C_15
REMARK    7  A    between atoms: C_11  and  C_16
REMARK    8  A    between atoms: C_12  and  C_17
REMARK    9  A    between atoms: C_12  and  C_18
REMARK   10  A    between atoms: C_13  and  C_19
REMARK   11  A    between atoms: C_16  and  C_20
REMARK   12  A    between atoms: C_22  and  C_26
REMARK   13  A    between atoms: C_29  and  C_30
REMARK                            x       y       z     vdW  Elec       q    Type
REMARK                         _______ _______ _______ _____ _____    ______ ____
ROOT
ATOM      8  C   UNL     1      15.544  11.398  22.092  0.00  0.00    +0.000 C 
ATOM      9  C   UNL     1      14.393  11.807  21.139  0.00  0.00    +0.032 C 
ATOM     10  C   UNL     1      16.719  10.812  21.294  0.00  0.00    +0.012 C 
ATOM     11  C   UNL     1      16.305   9.578  20.470  0.00  0.00    +0.022 C 
ATOM     13  C   UNL     1      15.019   9.817  19.705  0.00  0.00    -0.073 C 
ATOM     14  C   UNL     1      14.184  10.826  20.010  0.00  0.00    -0.022 C 
ATOM     19  C   UNL     1      14.737   8.895  18.551  0.00  0.00    +0.039 C 
ENDROOT
BRANCH   8  12
ATOM     12  C   UNL     1      16.030  12.580  22.938  0.00  0.00    -0.013 C 
ATOM     17  C   UNL     1      15.846  12.282  24.423  0.00  0.00    +0.007 C 
ATOM     18  C   UNL     1      17.489  12.894  22.625  0.00  0.00    +0.007 C 
ENDBRANCH   8  12
BRANCH   9  15
ATOM     15  C   UNL     1      13.079  11.991  21.907  0.00  0.00    +0.112 C 
BRANCH  15   5
ATOM      1  O   UNL     1      10.716  11.399  23.468  0.00  0.00    -0.271 OA
ATOM      5  N   UNL     1      12.304  10.790  21.882  0.00  0.00    -0.311 N 
ATOM     22  C   UNL     1      11.175  10.588  22.672  0.00  0.00    +0.237 C 
ATOM     32  H   UNL     1      12.574  10.070  21.218  0.00  0.00    +0.149 HD
BRANCH  22  26
ATOM     26  C   UNL     1      10.560   9.249  22.450  0.00  0.00    +0.074 C 
ATOM     29  C   UNL     1      11.273   8.278  21.867  0.00  0.00    +0.096 C 
BRANCH  29  30
ATOM      4  O   UNL     1      11.164   5.999  21.097  0.00  0.00    -0.246 OA
ATOM     30  C   UNL     1      10.653   6.957  21.651  0.00  0.00    +0.330 C 
BRANCH  30   3
ATOM      3  O   UNL     1       9.404   6.973  22.172  0.00  0.00    -0.478 OA
ATOM     34  H   UNL     1       8.815   6.323  21.734  0.00  0.00    +0.295 HD
ENDBRANCH  30   3
ENDBRANCH  29  30
ENDBRANCH  22  26
ENDBRANCH  15   5
ENDBRANCH   9  15
BRANCH  11  16
ATOM     16  C   UNL     1      16.192   8.333  21.358  0.00  0.00    +0.082 C 
BRANCH  16  20
ATOM      6  N   UNL     1      18.424   7.545  22.166  0.00  0.00    -0.342 N 
ATOM      7  N   UNL     1      17.669   6.581  20.312  0.00  0.00    -0.232 NA
ATOM     20  C   UNL     1      17.416   7.469  21.247  0.00  0.00    +0.109 A 
ATOM     21  C   UNL     1      19.393   6.645  21.800  0.00  0.00    +0.070 A 
ATOM     23  C   UNL     1      18.898   6.057  20.640  0.00  0.00    +0.089 A 
ATOM     24  C   UNL     1      20.622   6.307  22.367  0.00  0.00    +0.073 A 
ATOM     25  C   UNL     1      19.661   5.071  19.993  0.00  0.00    +0.033 A 
ATOM     27  C   UNL     1      21.368   5.323  21.710  0.00  0.00    +0.122 A 
ATOM     28  C   UNL     1      20.898   4.714  20.544  0.00  0.00    +0.048 A 
ATOM     33  H   UNL     1      18.454   8.153  22.973  0.00  0.00    +0.167 HD
BRANCH  27   2
ATOM      2  O   UNL     1      22.577   4.951  22.219  0.00  0.00    -0.495 OA
ATOM     31  C   UNL     1      23.326   3.994  21.474  0.00  0.00    +0.277 C 
ENDBRANCH  27   2
ENDBRANCH  16  20
ENDBRANCH  11  16
TORSDOF 9
ENDMDL
MODEL 3
REMARK VINA RESULT:      -6.4      6.757     11.389
REMARK  Name = 71693198
REMARK  13 active torsions:
REMARK  status: ('A' for Active; 'I' for Inactive)
REMARK    1  A    between atoms: O_2  and  C_27
REMARK    2  A    between atoms: O_2  and  C_31
REMARK    3  A    between atoms: O_3  and  C_30
REMARK    4  A    between atoms: N_5  and  C_15
REMARK    5  A    between atoms: C_8  and  C_12
REMARK    6  A    between atoms: C_9  and  C_15
REMARK    7  A    between atoms: C_11  and  C_16
REMARK    8  A    between atoms: C_12  and  C_17
REMARK    9  A    between atoms: C_12  and  C_18
REMARK   10  A    between atoms: C_13  and  C_19
REMARK   11  A    between atoms: C_16  and  C_20
REMARK   12  A    between atoms: C_22  and  C_26
REMARK   13  A    between atoms: C_29  and  C_30
REMARK                            x       y       z     vdW  Elec       q    Type
REMARK                         _______ _______ _______ _____ _____    ______ ____
ROOT
ATOM      8  C   UNL     1     -10.446  -9.834  18.669  0.00  0.00    +0.000 C 
ATOM      9  C   UNL     1      -9.264 -10.650  18.086  0.00  0.00    +0.032 C 
ATOM     10  C   UNL     1     -11.559  -9.681  17.621  0.00  0.00    +0.012 C 
ATOM     11  C   UNL     1     -11.063  -8.977  16.344  0.00  0.00    +0.022 C 
ATOM     13  C   UNL     1      -9.750  -9.554  15.856  0.00  0.00    -0.073 C 
ATOM     14  C   UNL     1      -8.966 -10.311  16.645  0.00  0.00    -0.022 C 
ATOM     19  C   UNL     1      -9.380  -9.281  14.424  0.00  0.00    +0.039 C 
ENDROOT
BRANCH   8  12
ATOM     12  C   UNL     1     -11.012 -10.481  19.937  0.00  0.00    -0.013 C 
ATOM     17  C   UNL     1     -12.399  -9.925  20.244  0.00  0.00    +0.007 C 
ATOM     18  C   UNL     1     -11.060 -11.998  19.784  0.00  0.00    +0.007 C 
ENDBRANCH   8  12
BRANCH   9  15
ATOM     15  C   UNL     1      -7.996 -10.463  18.928  0.00  0.00    +0.112 C 
BRANCH  15   5
ATOM      1  O   UNL     1      -5.316 -11.476  19.331  0.00  0.00    -0.271 OA
ATOM      5  N   UNL     1      -6.857 -10.252  18.091  0.00  0.00    -0.311 N 
ATOM     22  C   UNL     1      -5.597 -10.780  18.361  0.00  0.00    +0.237 C 
ATOM     32  H   UNL     1      -6.995  -9.726  17.232  0.00  0.00    +0.149 HD
BRANCH  22  26
ATOM     26  C   UNL     1      -4.591 -10.404  17.328  0.00  0.00    +0.074 C 
ATOM     29  C   UNL     1      -3.725 -11.321  16.879  0.00  0.00    +0.096 C 
BRANCH  29  30
ATOM      4  O   UNL     1      -2.971 -10.578  14.716  0.00  0.00    -0.246 OA
ATOM     30  C   UNL     1      -2.733 -10.936  15.857  0.00  0.00    +0.330 C 
BRANCH  30   3
ATOM      3  O   UNL     1      -1.495 -11.046  16.391  0.00  0.00    -0.478 OA
ATOM     34  H   UNL     1      -1.330 -10.366  17.078  0.00  0.00    +0.295 HD
ENDBRANCH  30   3
ENDBRANCH  29  30
ENDBRANCH  22  26
ENDBRANCH  15   5
ENDBRANCH   9  15
BRANCH  11  16
ATOM     16  C   UNL     1     -10.952  -7.463  16.555  0.00  0.00    +0.082 C 
BRANCH  16  20
ATOM      6  N   UNL     1     -11.370  -5.742  14.787  0.00  0.00    -0.342 N 
ATOM      7  N   UNL     1     -13.154  -6.870  15.486  0.00  0.00    -0.232 NA
ATOM     20  C   UNL     1     -11.857  -6.711  15.620  0.00  0.00    +0.109 A 
ATOM     21  C   UNL     1     -12.425  -5.243  14.066  0.00  0.00    +0.070 A 
ATOM     23  C   UNL     1     -13.527  -5.962  14.521  0.00  0.00    +0.089 A 
ATOM     24  C   UNL     1     -12.508  -4.253  13.086  0.00  0.00    +0.073 A 
ATOM     25  C   UNL     1     -14.793  -5.692  13.977  0.00  0.00    +0.033 A 
ATOM     27  C   UNL     1     -13.776  -3.998  12.555  0.00  0.00    +0.122 A 
ATOM     28  C   UNL     1     -14.900  -4.703  12.991  0.00  0.00    +0.048 A 
ATOM     33  H   UNL     1     -10.407  -5.446  14.712  0.00  0.00    +0.167 HD
BRANCH  27   2
ATOM      2  O   UNL     1     -13.916  -3.042  11.593  0.00  0.00    -0.495 OA
ATOM     31  C   UNL     1     -13.459  -3.370  10.283  0.00  0.00    +0.277 C 
ENDBRANCH  27   2
ENDBRANCH  16  20
ENDBRANCH  11  16
TORSDOF 9
ENDMDL
MODEL 4
REMARK VINA RESULT:      -6.4      2.388      9.708
REMARK  Name = 71693198
REMARK  13 active torsions:
REMARK  status: ('A' for Active; 'I' for Inactive)
REMARK    1  A    between atoms: O_2  and  C_27
REMARK    2  A    between atoms: O_2  and  C_31
REMARK    3  A    between atoms: O_3  and  C_30
REMARK    4  A    between atoms: N_5  and  C_15
REMARK    5  A    between atoms: C_8  and  C_12
REMARK    6  A    between atoms: C_9  and  C_15
REMARK    7  A    between atoms: C_11  and  C_16
REMARK    8  A    between atoms: C_12  and  C_17
REMARK    9  A    between atoms: C_12  and  C_18
REMARK   10  A    between atoms: C_13  and  C_19
REMARK   11  A    between atoms: C_16  and  C_20
REMARK   12  A    between atoms: C_22  and  C_26
REMARK   13  A    between atoms: C_29  and  C_30
REMARK                            x       y       z     vdW  Elec       q    Type
REMARK                         _______ _______ _______ _____ _____    ______ ____
ROOT
ATOM      8  C   UNL     1      -2.943 -12.468  13.253  0.00  0.00    +0.000 C 
ATOM      9  C   UNL     1      -1.848 -11.399  13.494  0.00  0.00    +0.032 C 
ATOM     10  C   UNL     1      -3.101 -12.743  11.750  0.00  0.00    +0.012 C 
ATOM     11  C   UNL     1      -3.477 -11.473  10.963  0.00  0.00    +0.022 C 
ATOM     13  C   UNL     1      -2.608 -10.293  11.347  0.00  0.00    -0.073 C 
ATOM     14  C   UNL     1      -1.876 -10.284  12.476  0.00  0.00    -0.022 C 
ATOM     19  C   UNL     1      -2.563  -9.143  10.380  0.00  0.00    +0.039 C 
ENDROOT
BRANCH   8  12
ATOM     12  C   UNL     1      -2.632 -13.775  13.989  0.00  0.00    -0.013 C 
ATOM     17  C   UNL     1      -3.886 -14.314  14.669  0.00  0.00    +0.007 C 
ATOM     18  C   UNL     1      -2.055 -14.806  13.023  0.00  0.00    +0.007 C 
ENDBRANCH   8  12
BRANCH   9  15
ATOM     15  C   UNL     1      -1.957 -10.805  14.904  0.00  0.00    +0.112 C 
BRANCH  15   5
ATOM      1  O   UNL     1      -3.651 -11.346  17.187  0.00  0.00    -0.271 OA
ATOM      5  N   UNL     1      -3.273 -10.301  15.143  0.00  0.00    -0.311 N 
ATOM     22  C   UNL     1      -4.022 -10.615  16.275  0.00  0.00    +0.237 C 
ATOM     32  H   UNL     1      -3.656  -9.646  14.467  0.00  0.00    +0.149 HD
BRANCH  22  26
ATOM     26  C   UNL     1      -5.359  -9.957  16.270  0.00  0.00    +0.074 C 
ATOM     29  C   UNL     1      -6.231 -10.217  17.252  0.00  0.00    +0.096 C 
BRANCH  29  30
ATOM      4  O   UNL     1      -8.136  -9.132  16.255  0.00  0.00    -0.246 OA
ATOM     30  C   UNL     1      -7.552  -9.561  17.235  0.00  0.00    +0.330 C 
BRANCH  30   3
ATOM      3  O   UNL     1      -8.025  -9.506  18.502  0.00  0.00    -0.478 OA
ATOM     34  H   UNL     1      -8.382 -10.371  18.799  0.00  0.00    +0.295 HD
ENDBRANCH  30   3
ENDBRANCH  29  30
ENDBRANCH  22  26
ENDBRANCH  15   5
ENDBRANCH   9  15
BRANCH  11  16
ATOM     16  C   UNL     1      -4.964 -11.137  11.133  0.00  0.00    +0.082 C 
BRANCH  16  20
ATOM      6  N   UNL     1      -6.416  -9.486   9.940  0.00  0.00    -0.342 N 
ATOM      7  N   UNL     1      -5.286 -10.897   8.647  0.00  0.00    -0.232 NA
ATOM     20  C   UNL     1      -5.535 -10.530   9.883  0.00  0.00    +0.109 A 
ATOM     21  C   UNL     1      -6.756  -9.156   8.653  0.00  0.00    +0.070 A 
ATOM     23  C   UNL     1      -6.039 -10.051   7.865  0.00  0.00    +0.089 A 
ATOM     24  C   UNL     1      -7.605  -8.182   8.127  0.00  0.00    +0.073 A 
ATOM     25  C   UNL     1      -6.163  -9.985   6.467  0.00  0.00    +0.033 A 
ATOM     27  C   UNL     1      -7.717  -8.129   6.734  0.00  0.00    +0.122 A 
ATOM     28  C   UNL     1      -7.009  -9.015   5.916  0.00  0.00    +0.048 A 
ATOM     33  H   UNL     1      -6.755  -9.034  10.778  0.00  0.00    +0.167 HD
BRANCH  27   2
ATOM      2  O   UNL     1      -8.531  -7.197   6.164  0.00  0.00    -0.495 OA
ATOM     31  C   UNL     1      -9.593  -6.688   6.968  0.00  0.00    +0.277 C 
ENDBRANCH  27   2
ENDBRANCH  16  20
ENDBRANCH  11  16
TORSDOF 9
ENDMDL
MODEL 5
REMARK VINA RESULT:      -6.4     20.292     21.806
REMARK  Name = 71693198
REMARK  13 active torsions:
REMARK  status: ('A' for Active; 'I' for Inactive)
REMARK    1  A    between atoms: O_2  and  C_27
REMARK    2  A    between atoms: O_2  and  C_31
REMARK    3  A    between atoms: O_3  and  C_30
REMARK    4  A    between atoms: N_5  and  C_15
REMARK    5  A    between atoms: C_8  and  C_12
REMARK    6  A    between atoms: C_9  and  C_15
REMARK    7  A    between atoms: C_11  and  C_16
REMARK    8  A    between atoms: C_12  and  C_17
REMARK    9  A    between atoms: C_12  and  C_18
REMARK   10  A    between atoms: C_13  and  C_19
REMARK   11  A    between atoms: C_16  and  C_20
REMARK   12  A    between atoms: C_22  and  C_26
REMARK   13  A    between atoms: C_29  and  C_30
REMARK                            x       y       z     vdW  Elec       q    Type
REMARK                         _______ _______ _______ _____ _____    ______ ____
ROOT
ATOM      8  C   UNL     1     -12.850  10.539  21.250  0.00  0.00    +0.000 C 
ATOM      9  C   UNL     1     -11.595  10.551  20.342  0.00  0.00    +0.032 C 
ATOM     10  C   UNL     1     -12.870   9.274  22.121  0.00  0.00    +0.012 C 
ATOM     11  C   UNL     1     -12.867   7.986  21.276  0.00  0.00    +0.022 C 
ATOM     13  C   UNL     1     -11.826   8.035  20.177  0.00  0.00    -0.073 C 
ATOM     14  C   UNL     1     -11.258   9.189  19.782  0.00  0.00    -0.022 C 
ATOM     19  C   UNL     1     -11.416   6.720  19.573  0.00  0.00    +0.039 C 
ENDROOT
BRANCH   8  12
ATOM     12  C   UNL     1     -12.917  11.784  22.142  0.00  0.00    -0.013 C 
ATOM     17  C   UNL     1     -14.368  12.136  22.455  0.00  0.00    +0.007 C 
ATOM     18  C   UNL     1     -12.125  11.561  23.427  0.00  0.00    +0.007 C 
ENDBRANCH   8  12
BRANCH   9  15
ATOM     15  C   UNL     1     -11.756  11.550  19.190  0.00  0.00    +0.112 C 
BRANCH  15   5
ATOM      1  O   UNL     1      -9.520  11.950  17.397  0.00  0.00    -0.271 OA
ATOM      5  N   UNL     1     -11.534  10.914  17.930  0.00  0.00    -0.311 N 
ATOM     22  C   UNL     1     -10.425  11.167  17.126  0.00  0.00    +0.237 C 
ATOM     32  H   UNL     1     -12.203  10.209  17.634  0.00  0.00    +0.149 HD
BRANCH  22  26
ATOM     26  C   UNL     1     -10.443  10.371  15.867  0.00  0.00    +0.074 C 
ATOM     29  C   UNL     1     -10.607   9.044  15.922  0.00  0.00    +0.096 C 
BRANCH  29  30
ATOM      4  O   UNL     1     -10.990   8.661  13.576  0.00  0.00    -0.246 OA
ATOM     30  C   UNL     1     -10.623   8.266  14.669  0.00  0.00    +0.330 C 
BRANCH  30   3
ATOM      3  O   UNL     1     -10.158   7.021  14.924  0.00  0.00    -0.478 OA
ATOM     34  H   UNL     1     -10.114   6.471  14.113  0.00  0.00    +0.295 HD
ENDBRANCH  30   3
ENDBRANCH  29  30
ENDBRANCH  22  26
ENDBRANCH  15   5
ENDBRANCH   9  15
BRANCH  11  16
ATOM     16  C   UNL     1     -14.259   7.700  20.700  0.00  0.00    +0.082 C 
BRANCH  16  20
ATOM      6  N   UNL     1     -14.354   5.988  22.521  0.00  0.00    -0.342 N 
ATOM      7  N   UNL     1     -16.106   6.048  21.154  0.00  0.00    -0.232 NA
ATOM     20  C   UNL     1     -14.937   6.580  21.436  0.00  0.00    +0.109 A 
ATOM     21  C   UNL     1     -15.203   5.009  22.970  0.00  0.00    +0.070 A 
ATOM     23  C   UNL     1     -16.289   5.067  22.101  0.00  0.00    +0.089 A 
ATOM     24  C   UNL     1     -15.118   4.105  24.030  0.00  0.00    +0.073 A 
ATOM     25  C   UNL     1     -17.361   4.178  22.284  0.00  0.00    +0.033 A 
ATOM     27  C   UNL     1     -16.194   3.229  24.198  0.00  0.00    +0.122 A 
ATOM     28  C   UNL     1     -17.297   3.263  23.342  0.00  0.00    +0.048 A 
ATOM     33  H   UNL     1     -13.458   6.227  22.923  0.00  0.00    +0.167 HD
BRANCH  27   2
ATOM      2  O   UNL     1     -16.165   2.324  25.218  0.00  0.00    -0.495 OA
ATOM     31  C   UNL     1     -16.422   2.821  26.530  0.00  0.00    +0.277 C 
ENDBRANCH  27   2
ENDBRANCH  16  20
ENDBRANCH  11  16
TORSDOF 9
ENDMDL
MODEL 6
REMARK VINA RESULT:      -6.3     24.562     27.432
REMARK  Name = 71693198
REMARK  13 active torsions:
REMARK  status: ('A' for Active; 'I' for Inactive)
REMARK    1  A    between atoms: O_2  and  C_27
REMARK    2  A    between atoms: O_2  and  C_31
REMARK    3  A    between atoms: O_3  and  C_30
REMARK    4  A    between atoms: N_5  and  C_15
REMARK    5  A    between atoms: C_8  and  C_12
REMARK    6  A    between atoms: C_9  and  C_15
REMARK    7  A    between atoms: C_11  and  C_16
REMARK    8  A    between atoms: C_12  and  C_17
REMARK    9  A    between atoms: C_12  and  C_18
REMARK   10  A    between atoms: C_13  and  C_19
REMARK   11  A    between atoms: C_16  and  C_20
REMARK   12  A    between atoms: C_22  and  C_26
REMARK   13  A    between atoms: C_29  and  C_30
REMARK                            x       y       z     vdW  Elec       q    Type
REMARK                         _______ _______ _______ _____ _____    ______ ____
ROOT
ATOM      8  C   UNL     1      10.576   6.324   6.173  0.00  0.00    +0.000 C 
ATOM      9  C   UNL     1      10.166   6.183   4.685  0.00  0.00    +0.032 C 
ATOM     10  C   UNL     1      11.112   7.737   6.449  0.00  0.00    +0.012 C 
ATOM     11  C   UNL     1      12.332   8.077   5.572  0.00  0.00    +0.022 C 
ATOM     13  C   UNL     1      12.102   7.713   4.120  0.00  0.00    -0.073 C 
ATOM     14  C   UNL     1      11.121   6.875   3.741  0.00  0.00    -0.022 C 
ATOM     19  C   UNL     1      12.998   8.371   3.107  0.00  0.00    +0.039 C 
ENDROOT
BRANCH   8  12
ATOM     12  C   UNL     1       9.406   6.020   7.115  0.00  0.00    -0.013 C 
ATOM     17  C   UNL     1       9.780   4.902   8.083  0.00  0.00    +0.007 C 
ATOM     18  C   UNL     1       8.994   7.277   7.875  0.00  0.00    +0.007 C 
ENDBRANCH   8  12
BRANCH   9  15
ATOM     15  C   UNL     1      10.034   4.708   4.287  0.00  0.00    +0.112 C 
BRANCH  15   5
ATOM      1  O   UNL     1      10.220   3.892   1.517  0.00  0.00    -0.271 OA
ATOM      5  N   UNL     1      11.201   4.262   3.593  0.00  0.00    -0.311 N 
ATOM     22  C   UNL     1      11.201   3.886   2.252  0.00  0.00    +0.237 C 
ATOM     32  H   UNL     1      12.081   4.266   4.102  0.00  0.00    +0.149 HD
BRANCH  22  26
ATOM     26  C   UNL     1      12.550   3.462   1.782  0.00  0.00    +0.074 C 
ATOM     29  C   UNL     1      13.569   4.329   1.815  0.00  0.00    +0.096 C 
BRANCH  29  30
ATOM      4  O   UNL     1      15.387   4.117   0.251  0.00  0.00    -0.246 OA
ATOM     30  C   UNL     1      14.899   3.898   1.346  0.00  0.00    +0.330 C 
BRANCH  30   3
ATOM      3  O   UNL     1      15.506   3.205   2.338  0.00  0.00    -0.478 OA
ATOM     34  H   UNL     1      15.253   2.257   2.332  0.00  0.00    +0.295 HD
ENDBRANCH  30   3
ENDBRANCH  29  30
ENDBRANCH  22  26
ENDBRANCH  15   5
ENDBRANCH   9  15
BRANCH  11  16
ATOM     16  C   UNL     1      13.603   7.410   6.111  0.00  0.00    +0.082 C 
BRANCH  16  20
ATOM      6  N   UNL     1      15.999   7.991   5.690  0.00  0.00    -0.342 N 
ATOM      7  N   UNL     1      14.742   9.615   6.540  0.00  0.00    -0.232 NA
ATOM     20  C   UNL     1      14.761   8.368   6.127  0.00  0.00    +0.109 A 
ATOM     21  C   UNL     1      16.837   9.069   5.828  0.00  0.00    +0.070 A 
ATOM     23  C   UNL     1      16.029  10.069   6.360  0.00  0.00    +0.089 A 
ATOM     24  C   UNL     1      18.191   9.249   5.542  0.00  0.00    +0.073 A 
ATOM     25  C   UNL     1      16.587  11.330   6.630  0.00  0.00    +0.033 A 
ATOM     27  C   UNL     1      18.730  10.510   5.816  0.00  0.00    +0.122 A 
ATOM     28  C   UNL     1      17.944  11.533   6.351  0.00  0.00    +0.048 A 
ATOM     33  H   UNL     1      16.256   7.083   5.327  0.00  0.00    +0.167 HD
BRANCH  27   2
ATOM      2  O   UNL     1      20.048  10.743   5.556  0.00  0.00    -0.495 OA
ATOM     31  C   UNL     1      20.990  10.271   6.517  0.00  0.00    +0.277 C 
ENDBRANCH  27   2
ENDBRANCH  16  20
ENDBRANCH  11  16
TORSDOF 9
ENDMDL
MODEL 7
REMARK VINA RESULT:      -6.3      4.061      9.539
REMARK  Name = 71693198
REMARK  13 active torsions:
REMARK  status: ('A' for Active; 'I' for Inactive)
REMARK    1  A    between atoms: O_2  and  C_27
REMARK    2  A    between atoms: O_2  and  C_31
REMARK    3  A    between atoms: O_3  and  C_30
REMARK    4  A    between atoms: N_5  and  C_15
REMARK    5  A    between atoms: C_8  and  C_12
REMARK    6  A    between atoms: C_9  and  C_15
REMARK    7  A    between atoms: C_11  and  C_16
REMARK    8  A    between atoms: C_12  and  C_17
REMARK    9  A    between atoms: C_12  and  C_18
REMARK   10  A    between atoms: C_13  and  C_19
REMARK   11  A    between atoms: C_16  and  C_20
REMARK   12  A    between atoms: C_22  and  C_26
REMARK   13  A    between atoms: C_29  and  C_30
REMARK                            x       y       z     vdW  Elec       q    Type
REMARK                         _______ _______ _______ _____ _____    ______ ____
ROOT
ATOM      8  C   UNL     1      -7.727 -11.847  17.145  0.00  0.00    +0.000 C 
ATOM      9  C   UNL     1      -7.793 -12.214  18.649  0.00  0.00    +0.032 C 
ATOM     10  C   UNL     1      -6.466 -12.445  16.503  0.00  0.00    +0.012 C 
ATOM     11  C   UNL     1      -5.176 -11.950  17.183  0.00  0.00    +0.022 C 
ATOM     13  C   UNL     1      -5.268 -12.029  18.693  0.00  0.00    -0.073 C 
ATOM     14  C   UNL     1      -6.446 -12.161  19.331  0.00  0.00    -0.022 C 
ATOM     19  C   UNL     1      -3.971 -12.001  19.454  0.00  0.00    +0.039 C 
ENDROOT
BRANCH   8  12
ATOM     12  C   UNL     1      -8.971 -12.325  16.389  0.00  0.00    -0.013 C 
ATOM     17  C   UNL     1      -9.277 -11.389  15.224  0.00  0.00    +0.007 C 
ATOM     18  C   UNL     1      -8.777 -13.756  15.897  0.00  0.00    +0.007 C 
ENDBRANCH   8  12
BRANCH   9  15
ATOM     15  C   UNL     1      -8.778 -11.306  19.396  0.00  0.00    +0.112 C 
BRANCH  15   5
ATOM      1  O   UNL     1     -11.343 -10.099  18.816  0.00  0.00    -0.271 OA
ATOM      5  N   UNL     1      -9.022 -10.106  18.659  0.00  0.00    -0.311 N 
ATOM     22  C   UNL     1     -10.296  -9.594  18.426  0.00  0.00    +0.237 C 
ATOM     32  H   UNL     1      -8.215  -9.583  18.332  0.00  0.00    +0.149 HD
BRANCH  22  26
ATOM     26  C   UNL     1     -10.264  -8.334  17.630  0.00  0.00    +0.074 C 
ATOM     29  C   UNL     1     -11.247  -8.071  16.762  0.00  0.00    +0.096 C 
BRANCH  29  30
ATOM      4  O   UNL     1     -11.332  -6.718  14.771  0.00  0.00    -0.246 OA
ATOM     30  C   UNL     1     -11.203  -6.821  15.979  0.00  0.00    +0.330 C 
BRANCH  30   3
ATOM      3  O   UNL     1     -10.993  -5.786  16.825  0.00  0.00    -0.478 OA
ATOM     34  H   UNL     1     -10.920  -4.931  16.349  0.00  0.00    +0.295 HD
ENDBRANCH  30   3
ENDBRANCH  29  30
ENDBRANCH  22  26
ENDBRANCH  15   5
ENDBRANCH   9  15
BRANCH  11  16
ATOM     16  C   UNL     1      -4.822 -10.529  16.729  0.00  0.00    +0.082 C 
BRANCH  16  20
ATOM      6  N   UNL     1      -5.128 -10.247  14.263  0.00  0.00    -0.342 N 
ATOM      7  N   UNL     1      -3.070 -10.752  14.933  0.00  0.00    -0.232 NA
ATOM     20  C   UNL     1      -4.304 -10.517  15.319  0.00  0.00    +0.109 A 
ATOM     21  C   UNL     1      -4.374 -10.310  13.118  0.00  0.00    +0.070 A 
ATOM     23  C   UNL     1      -3.094 -10.627  13.563  0.00  0.00    +0.089 A 
ATOM     24  C   UNL     1      -4.694 -10.124  11.772  0.00  0.00    +0.073 A 
ATOM     25  C   UNL     1      -2.059 -10.771  12.625  0.00  0.00    +0.033 A 
ATOM     27  C   UNL     1      -3.651 -10.270  10.852  0.00  0.00    +0.122 A 
ATOM     28  C   UNL     1      -2.356 -10.589  11.269  0.00  0.00    +0.048 A 
ATOM     33  H   UNL     1      -6.115 -10.035  14.312  0.00  0.00    +0.167 HD
BRANCH  27   2
ATOM      2  O   UNL     1      -3.904 -10.099   9.524  0.00  0.00    -0.495 OA
ATOM     31  C   UNL     1      -4.933  -9.175   9.176  0.00  0.00    +0.277 C 
ENDBRANCH  27   2
ENDBRANCH  16  20
ENDBRANCH  11  16
TORSDOF 9
ENDMDL
MODEL 8
REMARK VINA RESULT:      -6.2     22.672     26.126
REMARK  Name = 71693198
REMARK  13 active torsions:
REMARK  status: ('A' for Active; 'I' for Inactive)
REMARK    1  A    between atoms: O_2  and  C_27
REMARK    2  A    between atoms: O_2  and  C_31
REMARK    3  A    between atoms: O_3  and  C_30
REMARK    4  A    between atoms: N_5  and  C_15
REMARK    5  A    between atoms: C_8  and  C_12
REMARK    6  A    between atoms: C_9  and  C_15
REMARK    7  A    between atoms: C_11  and  C_16
REMARK    8  A    between atoms: C_12  and  C_17
REMARK    9  A    between atoms: C_12  and  C_18
REMARK   10  A    between atoms: C_13  and  C_19
REMARK   11  A    between atoms: C_16  and  C_20
REMARK   12  A    between atoms: C_22  and  C_26
REMARK   13  A    between atoms: C_29  and  C_30
REMARK                            x       y       z     vdW  Elec       q    Type
REMARK                         _______ _______ _______ _____ _____    ______ ____
ROOT
ATOM      8  C   UNL     1       9.058   8.173   5.945  0.00  0.00    +0.000 C 
ATOM      9  C   UNL     1       8.795   8.224   7.471  0.00  0.00    +0.032 C 
ATOM     10  C   UNL     1       8.647   6.806   5.376  0.00  0.00    +0.012 C 
ATOM     11  C   UNL     1       9.409   5.646   6.042  0.00  0.00    +0.022 C 
ATOM     13  C   UNL     1       9.425   5.773   7.552  0.00  0.00    -0.073 C 
ATOM     14  C   UNL     1       9.134   6.931   8.173  0.00  0.00    -0.022 C 
ATOM     19  C   UNL     1       9.736   4.528   8.334  0.00  0.00    +0.039 C 
ENDROOT
BRANCH   8  12
ATOM     12  C   UNL     1       8.314   9.288   5.202  0.00  0.00    -0.013 C 
ATOM     17  C   UNL     1       9.303  10.311   4.651  0.00  0.00    +0.007 C 
ATOM     18  C   UNL     1       7.459   8.704   4.082  0.00  0.00    +0.007 C 
ENDBRANCH   8  12
BRANCH   9  15
ATOM     15  C   UNL     1       9.565   9.377   8.125  0.00  0.00    +0.112 C 
BRANCH  15   5
ATOM      1  O   UNL     1      11.248  11.611   7.383  0.00  0.00    -0.271 OA
ATOM      5  N   UNL     1      10.947   9.336   7.762  0.00  0.00    -0.311 N 
ATOM     22  C   UNL     1      11.685  10.466   7.417  0.00  0.00    +0.237 C 
ATOM     32  H   UNL     1      11.418   8.436   7.805  0.00  0.00    +0.149 HD
BRANCH  22  26
ATOM     26  C   UNL     1      13.099  10.138   7.081  0.00  0.00    +0.074 C 
ATOM     29  C   UNL     1      13.419   8.900   6.685  0.00  0.00    +0.096 C 
BRANCH  29  30
ATOM      4  O   UNL     1      15.759   9.368   6.364  0.00  0.00    -0.246 OA
ATOM     30  C   UNL     1      14.823   8.588   6.356  0.00  0.00    +0.330 C 
BRANCH  30   3
ATOM      3  O   UNL     1      14.913   7.276   6.038  0.00  0.00    -0.478 OA
ATOM     34  H   UNL     1      14.920   7.133   5.067  0.00  0.00    +0.295 HD
ENDBRANCH  30   3
ENDBRANCH  29  30
ENDBRANCH  22  26
ENDBRANCH  15   5
ENDBRANCH   9  15
BRANCH  11  16
ATOM     16  C   UNL     1      10.834   5.530   5.487  0.00  0.00    +0.082 C 
BRANCH  16  20
ATOM      6  N   UNL     1      10.390   4.561   3.224  0.00  0.00    -0.342 N 
ATOM      7  N   UNL     1      11.269   6.602   3.250  0.00  0.00    -0.232 NA
ATOM     20  C   UNL     1      10.845   5.600   3.987  0.00  0.00    +0.109 A 
ATOM     21  C   UNL     1      10.527   4.918   1.907  0.00  0.00    +0.070 A 
ATOM     23  C   UNL     1      11.079   6.195   1.949  0.00  0.00    +0.089 A 
ATOM     24  C   UNL     1      10.227   4.252   0.718  0.00  0.00    +0.073 A 
ATOM     25  C   UNL     1      11.354   6.863   0.745  0.00  0.00    +0.033 A 
ATOM     27  C   UNL     1      10.506   4.932  -0.472  0.00  0.00    +0.122 A 
ATOM     28  C   UNL     1      11.060   6.214  -0.461  0.00  0.00    +0.048 A 
ATOM     33  H   UNL     1      10.015   3.687   3.567  0.00  0.00    +0.167 HD
BRANCH  27   2
ATOM      2  O   UNL     1      10.232   4.330  -1.664  0.00  0.00    -0.495 OA
ATOM     31  C   UNL     1      10.679   4.997  -2.843  0.00  0.00    +0.277 C 
ENDBRANCH  27   2
ENDBRANCH  16  20
ENDBRANCH  11  16
TORSDOF 9
ENDMDL
MODEL 9
REMARK VINA RESULT:      -6.1     22.504     26.203
REMARK  Name = 71693198
REMARK  13 active torsions:
REMARK  status: ('A' for Active; 'I' for Inactive)
REMARK    1  A    between atoms: O_2  and  C_27
REMARK    2  A    between atoms: O_2  and  C_31
REMARK    3  A    between atoms: O_3  and  C_30
REMARK    4  A    between atoms: N_5  and  C_15
REMARK    5  A    between atoms: C_8  and  C_12
REMARK    6  A    between atoms: C_9  and  C_15
REMARK    7  A    between atoms: C_11  and  C_16
REMARK    8  A    between atoms: C_12  and  C_17
REMARK    9  A    between atoms: C_12  and  C_18
REMARK   10  A    between atoms: C_13  and  C_19
REMARK   11  A    between atoms: C_16  and  C_20
REMARK   12  A    between atoms: C_22  and  C_26
REMARK   13  A    between atoms: C_29  and  C_30
REMARK                            x       y       z     vdW  Elec       q    Type
REMARK                         _______ _______ _______ _____ _____    ______ ____
ROOT
ATOM      8  C   UNL     1      11.723   8.905   5.182  0.00  0.00    +0.000 C 
ATOM      9  C   UNL     1      10.497   9.820   5.424  0.00  0.00    +0.032 C 
ATOM     10  C   UNL     1      11.931   8.675   3.677  0.00  0.00    +0.012 C 
ATOM     11  C   UNL     1      10.702   8.029   3.012  0.00  0.00    +0.022 C 
ATOM     13  C   UNL     1       9.414   8.716   3.419  0.00  0.00    -0.073 C 
ATOM     14  C   UNL     1       9.345   9.524   4.492  0.00  0.00    -0.022 C 
ATOM     19  C   UNL     1       8.218   8.489   2.537  0.00  0.00    +0.039 C 
ENDROOT
BRANCH   8  12
ATOM     12  C   UNL     1      12.998   9.489   5.799  0.00  0.00    -0.013 C 
ATOM     17  C   UNL     1      13.688   8.451   6.678  0.00  0.00    +0.007 C 
ATOM     18  C   UNL     1      13.940   9.983   4.705  0.00  0.00    +0.007 C 
ENDBRANCH   8  12
BRANCH   9  15
ATOM     15  C   UNL     1      10.016   9.727   6.876  0.00  0.00    +0.112 C 
BRANCH  15   5
ATOM      1  O   UNL     1       7.896   7.774   7.136  0.00  0.00    -0.271 OA
ATOM      5  N   UNL     1      10.128   8.388   7.364  0.00  0.00    -0.311 N 
ATOM     22  C   UNL     1       9.050   7.511   7.456  0.00  0.00    +0.237 C 
ATOM     32  H   UNL     1      11.055   8.054   7.611  0.00  0.00    +0.149 HD
BRANCH  22  26
ATOM     26  C   UNL     1       9.446   6.181   7.999  0.00  0.00    +0.074 C 
ATOM     29  C   UNL     1       9.045   5.816   9.222  0.00  0.00    +0.096 C 
BRANCH  29  30
ATOM      4  O   UNL     1       9.315   3.423   9.187  0.00  0.00    -0.246 OA
ATOM     30  C   UNL     1       9.445   4.497   9.749  0.00  0.00    +0.330 C 
BRANCH  30   3
ATOM      3  O   UNL     1       9.988   4.666  10.977  0.00  0.00    -0.478 OA
ATOM     34  H   UNL     1       9.353   4.448  11.693  0.00  0.00    +0.295 HD
ENDBRANCH  30   3
ENDBRANCH  29  30
ENDBRANCH  22  26
ENDBRANCH  15   5
ENDBRANCH   9  15
BRANCH  11  16
ATOM     16  C   UNL     1      10.639   6.526   3.308  0.00  0.00    +0.082 C 
BRANCH  16  20
ATOM      6  N   UNL     1      10.409   5.773   0.934  0.00  0.00    -0.342 N 
ATOM      7  N   UNL     1      12.102   4.891   2.072  0.00  0.00    -0.232 NA
ATOM     20  C   UNL     1      11.080   5.714   2.123  0.00  0.00    +0.109 A 
ATOM     21  C   UNL     1      11.042   4.930   0.055  0.00  0.00    +0.070 A 
ATOM     23  C   UNL     1      12.095   4.392   0.789  0.00  0.00    +0.089 A 
ATOM     24  C   UNL     1      10.791   4.603  -1.278  0.00  0.00    +0.073 A 
ATOM     25  C   UNL     1      12.958   3.470   0.174  0.00  0.00    +0.033 A 
ATOM     27  C   UNL     1      11.661   3.685  -1.875  0.00  0.00    +0.122 A 
ATOM     28  C   UNL     1      12.726   3.127  -1.164  0.00  0.00    +0.048 A 
ATOM     33  H   UNL     1       9.594   6.336   0.733  0.00  0.00    +0.167 HD
BRANCH  27   2
ATOM      2  O   UNL     1      11.464   3.328  -3.176  0.00  0.00    -0.495 OA
ATOM     31  C   UNL     1      12.515   2.606  -3.815  0.00  0.00    +0.277 C 
ENDBRANCH  27   2
ENDBRANCH  16  20
ENDBRANCH  11  16
TORSDOF 9
ENDMDL
MODEL 10
REMARK VINA RESULT:      -6.0     24.436     30.226
REMARK  Name = 71693198
REMARK  13 active torsions:
REMARK  status: ('A' for Active; 'I' for Inactive)
REMARK    1  A    between atoms: O_2  and  C_27
REMARK    2  A    between atoms: O_2  and  C_31
REMARK    3  A    between atoms: O_3  and  C_30
REMARK    4  A    between atoms: N_5  and  C_15
REMARK    5  A    between atoms: C_8  and  C_12
REMARK    6  A    between atoms: C_9  and  C_15
REMARK    7  A    between atoms: C_11  and  C_16
REMARK    8  A    between atoms: C_12  and  C_17
REMARK    9  A    between atoms: C_12  and  C_18
REMARK   10  A    between atoms: C_13  and  C_19
REMARK   11  A    between atoms: C_16  and  C_20
REMARK   12  A    between atoms: C_22  and  C_26
REMARK   13  A    between atoms: C_29  and  C_30
REMARK                            x       y       z     vdW  Elec       q    Type
REMARK                         _______ _______ _______ _____ _____    ______ ____
ROOT
ATOM      8  C   UNL     1     -13.131   8.024  32.799  0.00  0.00    +0.000 C 
ATOM      9  C   UNL     1     -13.128   8.318  34.320  0.00  0.00    +0.032 C 
ATOM     10  C   UNL     1     -14.305   7.104  32.433  0.00  0.00    +0.012 C 
ATOM     11  C   UNL     1     -14.251   5.763  33.189  0.00  0.00    +0.022 C 
ATOM     13  C   UNL     1     -13.981   5.959  34.666  0.00  0.00    -0.073 C 
ATOM     14  C   UNL     1     -13.491   7.113  35.155  0.00  0.00    -0.022 C 
ATOM     19  C   UNL     1     -14.329   4.814  35.576  0.00  0.00    +0.039 C 
ENDROOT
BRANCH   8  12
ATOM     12  C   UNL     1     -13.204   9.312  31.971  0.00  0.00    -0.013 C 
ATOM     17  C   UNL     1     -11.988   9.426  31.057  0.00  0.00    +0.007 C 
ATOM     18  C   UNL     1     -14.496   9.352  31.162  0.00  0.00    +0.007 C 
ENDBRANCH   8  12
BRANCH   9  15
ATOM     15  C   UNL     1     -11.769   8.863  34.774  0.00  0.00    +0.112 C 
BRANCH  15   5
ATOM      1  O   UNL     1     -10.021   8.003  36.914  0.00  0.00    -0.271 OA
ATOM      5  N   UNL     1     -11.816   9.267  36.145  0.00  0.00    -0.311 N 
ATOM     22  C   UNL     1     -10.931   8.800  37.114  0.00  0.00    +0.237 C 
ATOM     32  H   UNL     1     -12.507   9.965  36.406  0.00  0.00    +0.149 HD
BRANCH  22  26
ATOM     26  C   UNL     1     -11.205   9.380  38.458  0.00  0.00    +0.074 C 
ATOM     29  C   UNL     1     -12.445   9.773  38.773  0.00  0.00    +0.096 C 
BRANCH  29  30
ATOM      4  O   UNL     1     -12.214  11.365  40.565  0.00  0.00    -0.246 OA
ATOM     30  C   UNL     1     -12.704  10.347  40.107  0.00  0.00    +0.330 C 
BRANCH  30   3
ATOM      3  O   UNL     1     -13.586   9.553  40.758  0.00  0.00    -0.478 OA
ATOM     34  H   UNL     1     -14.405  10.035  41.000  0.00  0.00    +0.295 HD
ENDBRANCH  30   3
ENDBRANCH  29  30
ENDBRANCH  22  26
ENDBRANCH  15   5
ENDBRANCH   9  15
BRANCH  11  16
ATOM     16  C   UNL     1     -13.219   4.817  32.563  0.00  0.00    +0.082 C 
BRANCH  16  20
ATOM      6  N   UNL     1     -14.522   3.866  30.651  0.00  0.00    -0.342 N 
ATOM      7  N   UNL     1     -13.945   2.426  32.242  0.00  0.00    -0.232 NA
ATOM     20  C   UNL     1     -13.885   3.677  31.845  0.00  0.00    +0.109 A 
ATOM     21  C   UNL     1     -15.025   2.655  30.249  0.00  0.00    +0.070 A 
ATOM     23  C   UNL     1     -14.652   1.773  31.259  0.00  0.00    +0.089 A 
ATOM     24  C   UNL     1     -15.754   2.267  29.124  0.00  0.00    +0.073 A 
ATOM     25  C   UNL     1     -15.018   0.421  31.158  0.00  0.00    +0.033 A 
ATOM     27  C   UNL     1     -16.109   0.917  29.039  0.00  0.00    +0.122 A 
ATOM     28  C   UNL     1     -15.749   0.008  30.037  0.00  0.00    +0.048 A 
ATOM     33  H   UNL     1     -14.607   4.740  30.149  0.00  0.00    +0.167 HD
BRANCH  27   2
ATOM      2  O   UNL     1     -16.821   0.481  27.961  0.00  0.00    -0.495 OA
ATOM     31  C   UNL     1     -18.202   0.830  27.914  0.00  0.00    +0.277 C 
ENDBRANCH  27   2
ENDBRANCH  16  20
ENDBRANCH  11  16
TORSDOF 9
ENDMDL
