MODEL 1
REMARK VINA RESULT:      -5.9      0.000      0.000
REMARK  Name = 26742624
REMARK  13 active torsions:
REMARK  status: ('A' for Active; 'I' for Inactive)
REMARK    1  A    between atoms: O_2  and  C_18
REMARK    2  A    between atoms: O_3  and  C_25
REMARK    3  A    between atoms: O_3  and  C_27
REMARK    4  A    between atoms: N_4  and  C_14
REMARK    5  A    between atoms: N_5  and  C_20
REMARK    6  A    between atoms: N_5  and  C_21
REMARK    7  A    between atoms: C_7  and  C_12
REMARK    8  A    between atoms: C_8  and  C_13
REMARK    9  A    between atoms: C_12  and  C_15
REMARK   10  A    between atoms: C_13  and  C_16
REMARK   11  A    between atoms: C_14  and  C_17
REMARK   12  A    between atoms: C_20  and  C_24
REMARK   13  A    between atoms: C_24  and  C_26
REMARK                            x       y       z     vdW  Elec       q    Type
REMARK                         _______ _______ _______ _____ _____    ______ ____
ROOT
ATOM      4  N   UNL     1      11.921   4.474   2.028  0.00  0.00    -0.298 NA
ATOM      7  C   UNL     1      11.776   6.896   2.565  0.00  0.00    +0.006 C 
ATOM      8  C   UNL     1      10.719   6.622   3.660  0.00  0.00    +0.003 C 
ATOM      9  C   UNL     1       9.997   5.305   3.340  0.00  0.00    +0.019 C 
ATOM     10  C   UNL     1      12.697   5.681   2.344  0.00  0.00    +0.088 C 
ATOM     11  C   UNL     1      10.969   4.148   3.097  0.00  0.00    +0.085 C 
ENDROOT
BRANCH   7  12
ATOM     12  C   UNL     1      12.602   8.155   2.833  0.00  0.00    +0.002 C 
ATOM     15  C   UNL     1      13.543   8.451   1.682  0.00  0.00    +0.004 C 
ENDBRANCH   7  12
BRANCH   8  13
ATOM     13  C   UNL     1      11.287   6.604   5.084  0.00  0.00    +0.100 C 
BRANCH  13  16
ATOM      1  O   UNL     1      10.935   8.854   5.834  0.00  0.00    -0.276 OA
ATOM      5  N   UNL     1       9.745   7.187   6.924  0.00  0.00    -0.304 N 
ATOM     16  C   UNL     1      10.652   7.660   5.969  0.00  0.00    +0.216 C 
ATOM     21  C   UNL     1       9.051   8.074   7.849  0.00  0.00    +0.132 C 
BRANCH   5  20
ATOM     20  C   UNL     1       9.425   5.768   7.066  0.00  0.00    +0.122 C 
BRANCH  20  24
ATOM     24  C   UNL     1      10.221   5.101   8.180  0.00  0.00    +0.137 C 
BRANCH  24  26
ATOM      6  N   UNL     1       8.721   4.581  10.278  0.00  0.00    -0.197 NA
ATOM     26  C   UNL     1       9.383   4.809   9.353  0.00  0.00    +0.064 C 
ENDBRANCH  24  26
ENDBRANCH  20  24
ENDBRANCH   5  20
ENDBRANCH  13  16
ENDBRANCH   8  13
BRANCH   4  14
ATOM     14  C   UNL     1      12.814   3.343   1.773  0.00  0.00    +0.123 C 
BRANCH  14  17
ATOM     17  C   UNL     1      13.833   3.659   0.718  0.00  0.00    +0.008 A 
ATOM     18  C   UNL     1      15.197   3.600   1.002  0.00  0.00    +0.125 A 
ATOM     19  C   UNL     1      13.402   4.015  -0.561  0.00  0.00    +0.012 A 
ATOM     22  C   UNL     1      16.131   3.897   0.010  0.00  0.00    +0.091 A 
ATOM     23  C   UNL     1      14.337   4.312  -1.553  0.00  0.00    +0.046 A 
ATOM     25  C   UNL     1      15.701   4.253  -1.268  0.00  0.00    +0.124 A 
BRANCH  18   2
ATOM      2  O   UNL     1      15.635   3.254   2.246  0.00  0.00    -0.506 OA
ATOM     28  H   UNL     1      16.522   3.627   2.386  0.00  0.00    +0.292 HD
ENDBRANCH  18   2
BRANCH  25   3
ATOM      3  O   UNL     1      16.612   4.543  -2.237  0.00  0.00    -0.495 OA
ATOM     27  C   UNL     1      17.989   4.506  -1.864  0.00  0.00    +0.277 C 
ENDBRANCH  25   3
ENDBRANCH  14  17
ENDBRANCH   4  14
TORSDOF 10
ENDMDL
MODEL 2
REMARK VINA RESULT:      -5.6     23.985     27.998
REMARK  Name = 26742624
REMARK  13 active torsions:
REMARK  status: ('A' for Active; 'I' for Inactive)
REMARK    1  A    between atoms: O_2  and  C_18
REMARK    2  A    between atoms: O_3  and  C_25
REMARK    3  A    between atoms: O_3  and  C_27
REMARK    4  A    between atoms: N_4  and  C_14
REMARK    5  A    between atoms: N_5  and  C_20
REMARK    6  A    between atoms: N_5  and  C_21
REMARK    7  A    between atoms: C_7  and  C_12
REMARK    8  A    between atoms: C_8  and  C_13
REMARK    9  A    between atoms: C_12  and  C_15
REMARK   10  A    between atoms: C_13  and  C_16
REMARK   11  A    between atoms: C_14  and  C_17
REMARK   12  A    between atoms: C_20  and  C_24
REMARK   13  A    between atoms: C_24  and  C_26
REMARK                            x       y       z     vdW  Elec       q    Type
REMARK                         _______ _______ _______ _____ _____    ______ ____
ROOT
ATOM      4  N   UNL     1      -5.111 -10.729  15.587  0.00  0.00    -0.298 NA
ATOM      7  C   UNL     1      -3.061 -11.876  14.774  0.00  0.00    +0.006 C 
ATOM      8  C   UNL     1      -3.686 -12.069  13.373  0.00  0.00    +0.003 C 
ATOM      9  C   UNL     1      -5.216 -12.055  13.502  0.00  0.00    +0.019 C 
ATOM     10  C   UNL     1      -3.646 -10.648  15.496  0.00  0.00    +0.088 C 
ATOM     11  C   UNL     1      -5.729 -10.828  14.259  0.00  0.00    +0.085 C 
ENDROOT
BRANCH   7  12
ATOM     12  C   UNL     1      -1.534 -11.804  14.743  0.00  0.00    +0.002 C 
ATOM     15  C   UNL     1      -1.019 -10.664  15.599  0.00  0.00    +0.004 C 
ENDBRANCH   7  12
BRANCH   8  13
ATOM     13  C   UNL     1      -3.214 -11.046  12.334  0.00  0.00    +0.100 C 
BRANCH  13  16
ATOM      1  O   UNL     1      -3.447 -12.633  10.551  0.00  0.00    -0.276 OA
ATOM      5  N   UNL     1      -4.033 -10.438  10.084  0.00  0.00    -0.304 N 
ATOM     16  C   UNL     1      -3.569 -11.461  10.918  0.00  0.00    +0.216 C 
ATOM     21  C   UNL     1      -4.416 -10.674   8.697  0.00  0.00    +0.132 C 
BRANCH   5  20
ATOM     20  C   UNL     1      -4.170  -9.056  10.539  0.00  0.00    +0.122 C 
BRANCH  20  24
ATOM     24  C   UNL     1      -5.501  -8.437  10.127  0.00  0.00    +0.137 C 
BRANCH  24  26
ATOM      6  N   UNL     1      -7.502  -9.379  11.552  0.00  0.00    -0.197 NA
ATOM     26  C   UNL     1      -6.619  -8.965  10.923  0.00  0.00    +0.064 C 
ENDBRANCH  24  26
ENDBRANCH  20  24
ENDBRANCH   5  20
ENDBRANCH  13  16
ENDBRANCH   8  13
BRANCH   4  14
ATOM     14  C   UNL     1      -5.644  -9.579  16.318  0.00  0.00    +0.123 C 
BRANCH  14  17
ATOM     17  C   UNL     1      -6.690  -9.984  17.316  0.00  0.00    +0.008 A 
ATOM     18  C   UNL     1      -8.010  -9.558  17.178  0.00  0.00    +0.125 A 
ATOM     19  C   UNL     1      -6.327 -10.797  18.391  0.00  0.00    +0.012 A 
ATOM     22  C   UNL     1      -8.969  -9.943  18.115  0.00  0.00    +0.091 A 
ATOM     23  C   UNL     1      -7.286 -11.182  19.327  0.00  0.00    +0.046 A 
ATOM     25  C   UNL     1      -8.607 -10.755  19.189  0.00  0.00    +0.124 A 
BRANCH  18   2
ATOM      2  O   UNL     1      -8.380  -8.763  16.135  0.00  0.00    -0.506 OA
ATOM     28  H   UNL     1      -8.262  -7.831  16.388  0.00  0.00    +0.292 HD
ENDBRANCH  18   2
BRANCH  25   3
ATOM      3  O   UNL     1      -9.543 -11.132  20.104  0.00  0.00    -0.495 OA
ATOM     27  C   UNL     1     -10.737 -10.352  20.168  0.00  0.00    +0.277 C 
ENDBRANCH  25   3
ENDBRANCH  14  17
ENDBRANCH   4  14
TORSDOF 10
ENDMDL
MODEL 3
REMARK VINA RESULT:      -5.5      2.842      8.832
REMARK  Name = 26742624
REMARK  13 active torsions:
REMARK  status: ('A' for Active; 'I' for Inactive)
REMARK    1  A    between atoms: O_2  and  C_18
REMARK    2  A    between atoms: O_3  and  C_25
REMARK    3  A    between atoms: O_3  and  C_27
REMARK    4  A    between atoms: N_4  and  C_14
REMARK    5  A    between atoms: N_5  and  C_20
REMARK    6  A    between atoms: N_5  and  C_21
REMARK    7  A    between atoms: C_7  and  C_12
REMARK    8  A    between atoms: C_8  and  C_13
REMARK    9  A    between atoms: C_12  and  C_15
REMARK   10  A    between atoms: C_13  and  C_16
REMARK   11  A    between atoms: C_14  and  C_17
REMARK   12  A    between atoms: C_20  and  C_24
REMARK   13  A    between atoms: C_24  and  C_26
REMARK                            x       y       z     vdW  Elec       q    Type
REMARK                         _______ _______ _______ _____ _____    ______ ____
ROOT
ATOM      4  N   UNL     1      11.263   5.742   3.251  0.00  0.00    -0.298 NA
ATOM      7  C   UNL     1      12.997   4.604   1.883  0.00  0.00    +0.006 C 
ATOM      8  C   UNL     1      11.925   4.089   0.894  0.00  0.00    +0.003 C 
ATOM      9  C   UNL     1      10.571   4.020   1.617  0.00  0.00    +0.019 C 
ATOM     10  C   UNL     1      12.557   5.907   2.575  0.00  0.00    +0.088 C 
ATOM     11  C   UNL     1      10.210   5.334   2.313  0.00  0.00    +0.085 C 
ENDROOT
BRANCH   7  12
ATOM     12  C   UNL     1      14.372   4.777   1.236  0.00  0.00    +0.002 C 
ATOM     15  C   UNL     1      15.229   3.541   1.424  0.00  0.00    +0.004 C 
ENDBRANCH   7  12
BRANCH   8  13
ATOM     13  C   UNL     1      11.816   4.913  -0.394  0.00  0.00    +0.100 C 
BRANCH  13  16
ATOM      1  O   UNL     1      10.244   3.797  -1.819  0.00  0.00    -0.276 OA
ATOM      5  N   UNL     1      12.486   3.614  -2.385  0.00  0.00    -0.304 N 
ATOM     16  C   UNL     1      11.427   4.062  -1.588  0.00  0.00    +0.216 C 
ATOM     21  C   UNL     1      12.279   2.787  -3.568  0.00  0.00    +0.132 C 
BRANCH   5  20
ATOM     20  C   UNL     1      13.880   3.941  -2.093  0.00  0.00    +0.122 C 
BRANCH  20  24
ATOM     24  C   UNL     1      14.468   4.929  -3.093  0.00  0.00    +0.137 C 
BRANCH  24  26
ATOM      6  N   UNL     1      14.374   7.400  -2.195  0.00  0.00    -0.197 NA
ATOM     26  C   UNL     1      14.415   6.310  -2.592  0.00  0.00    +0.064 C 
ENDBRANCH  24  26
ENDBRANCH  20  24
ENDBRANCH   5  20
ENDBRANCH  13  16
ENDBRANCH   8  13
BRANCH   4  14
ATOM     14  C   UNL     1      10.885   6.974   3.944  0.00  0.00    +0.123 C 
BRANCH  14  17
ATOM     17  C   UNL     1      10.364   6.705   5.326  0.00  0.00    +0.008 A 
ATOM     18  C   UNL     1      11.231   6.349   6.358  0.00  0.00    +0.125 A 
ATOM     19  C   UNL     1       8.994   6.815   5.571  0.00  0.00    +0.012 A 
ATOM     22  C   UNL     1      10.730   6.101   7.636  0.00  0.00    +0.091 A 
ATOM     23  C   UNL     1       8.494   6.568   6.849  0.00  0.00    +0.046 A 
ATOM     25  C   UNL     1       9.361   6.212   7.882  0.00  0.00    +0.124 A 
BRANCH  18   2
ATOM      2  O   UNL     1      12.571   6.236   6.135  0.00  0.00    -0.506 OA
ATOM     28  H   UNL     1      12.867   6.990   5.597  0.00  0.00    +0.292 HD
ENDBRANCH  18   2
BRANCH  25   3
ATOM      3  O   UNL     1       8.872   5.971   9.129  0.00  0.00    -0.495 OA
ATOM     27  C   UNL     1       9.322   4.786   9.785  0.00  0.00    +0.277 C 
ENDBRANCH  25   3
ENDBRANCH  14  17
ENDBRANCH   4  14
TORSDOF 10
ENDMDL
MODEL 4
REMARK VINA RESULT:      -5.5     22.887     27.643
REMARK  Name = 26742624
REMARK  13 active torsions:
REMARK  status: ('A' for Active; 'I' for Inactive)
REMARK    1  A    between atoms: O_2  and  C_18
REMARK    2  A    between atoms: O_3  and  C_25
REMARK    3  A    between atoms: O_3  and  C_27
REMARK    4  A    between atoms: N_4  and  C_14
REMARK    5  A    between atoms: N_5  and  C_20
REMARK    6  A    between atoms: N_5  and  C_21
REMARK    7  A    between atoms: C_7  and  C_12
REMARK    8  A    between atoms: C_8  and  C_13
REMARK    9  A    between atoms: C_12  and  C_15
REMARK   10  A    between atoms: C_13  and  C_16
REMARK   11  A    between atoms: C_14  and  C_17
REMARK   12  A    between atoms: C_20  and  C_24
REMARK   13  A    between atoms: C_24  and  C_26
REMARK                            x       y       z     vdW  Elec       q    Type
REMARK                         _______ _______ _______ _____ _____    ______ ____
ROOT
ATOM      4  N   UNL     1      -3.862 -11.874  15.258  0.00  0.00    -0.298 NA
ATOM      7  C   UNL     1      -2.443 -13.485  14.006  0.00  0.00    +0.006 C 
ATOM      8  C   UNL     1      -3.398 -13.431  12.791  0.00  0.00    +0.003 C 
ATOM      9  C   UNL     1      -4.796 -13.014  13.272  0.00  0.00    +0.019 C 
ATOM     10  C   UNL     1      -2.491 -12.184  14.829  0.00  0.00    +0.088 C 
ATOM     11  C   UNL     1      -4.769 -11.735  14.112  0.00  0.00    +0.085 C 
ENDROOT
BRANCH   7  12
ATOM     12  C   UNL     1      -1.002 -13.823  13.620  0.00  0.00    +0.002 C 
ATOM     15  C   UNL     1      -0.838 -15.305  13.348  0.00  0.00    +0.004 C 
ENDBRANCH   7  12
BRANCH   8  13
ATOM     13  C   UNL     1      -2.914 -12.520  11.657  0.00  0.00    +0.100 C 
BRANCH  13  16
ATOM      1  O   UNL     1      -4.010 -13.638   9.842  0.00  0.00    -0.276 OA
ATOM      5  N   UNL     1      -4.424 -11.368  10.078  0.00  0.00    -0.304 N 
ATOM     16  C   UNL     1      -3.826 -12.578  10.446  0.00  0.00    +0.216 C 
ATOM     21  C   UNL     1      -5.326 -11.257   8.937  0.00  0.00    +0.132 C 
BRANCH   5  20
ATOM     20  C   UNL     1      -4.191 -10.124  10.808  0.00  0.00    +0.122 C 
BRANCH  20  24
ATOM     24  C   UNL     1      -3.235  -9.190  10.076  0.00  0.00    +0.137 C 
BRANCH  24  26
ATOM      6  N   UNL     1      -0.879  -9.092  11.242  0.00  0.00    -0.197 NA
ATOM     26  C   UNL     1      -1.918  -9.135  10.727  0.00  0.00    +0.064 C 
ENDBRANCH  24  26
ENDBRANCH  20  24
ENDBRANCH   5  20
ENDBRANCH  13  16
ENDBRANCH   8  13
BRANCH   4  14
ATOM     14  C   UNL     1      -3.882 -10.662  16.078  0.00  0.00    +0.123 C 
BRANCH  14  17
ATOM     17  C   UNL     1      -4.944 -10.718  17.137  0.00  0.00    +0.008 A 
ATOM     18  C   UNL     1      -4.767 -11.487  18.286  0.00  0.00    +0.125 A 
ATOM     19  C   UNL     1      -6.120  -9.987  16.960  0.00  0.00    +0.012 A 
ATOM     22  C   UNL     1      -5.765 -11.528  19.260  0.00  0.00    +0.091 A 
ATOM     23  C   UNL     1      -7.118 -10.028  17.934  0.00  0.00    +0.046 A 
ATOM     25  C   UNL     1      -6.940 -10.798  19.084  0.00  0.00    +0.124 A 
BRANCH  18   2
ATOM      2  O   UNL     1      -3.625 -12.207  18.473  0.00  0.00    -0.506 OA
ATOM     28  H   UNL     1      -2.881 -11.735  18.061  0.00  0.00    +0.292 HD
ENDBRANCH  18   2
BRANCH  25   3
ATOM      3  O   UNL     1      -7.915 -10.837  20.034  0.00  0.00    -0.495 OA
ATOM     27  C   UNL     1      -9.237 -11.143  19.595  0.00  0.00    +0.277 C 
ENDBRANCH  25   3
ENDBRANCH  14  17
ENDBRANCH   4  14
TORSDOF 10
ENDMDL
MODEL 5
REMARK VINA RESULT:      -5.5     23.565     26.163
REMARK  Name = 26742624
REMARK  13 active torsions:
REMARK  status: ('A' for Active; 'I' for Inactive)
REMARK    1  A    between atoms: O_2  and  C_18
REMARK    2  A    between atoms: O_3  and  C_25
REMARK    3  A    between atoms: O_3  and  C_27
REMARK    4  A    between atoms: N_4  and  C_14
REMARK    5  A    between atoms: N_5  and  C_20
REMARK    6  A    between atoms: N_5  and  C_21
REMARK    7  A    between atoms: C_7  and  C_12
REMARK    8  A    between atoms: C_8  and  C_13
REMARK    9  A    between atoms: C_12  and  C_15
REMARK   10  A    between atoms: C_13  and  C_16
REMARK   11  A    between atoms: C_14  and  C_17
REMARK   12  A    between atoms: C_20  and  C_24
REMARK   13  A    between atoms: C_24  and  C_26
REMARK                            x       y       z     vdW  Elec       q    Type
REMARK                         _______ _______ _______ _____ _____    ______ ____
ROOT
ATOM      4  N   UNL     1      -3.197 -11.212  12.788  0.00  0.00    -0.298 NA
ATOM      7  C   UNL     1      -5.269 -11.694  14.072  0.00  0.00    +0.006 C 
ATOM      8  C   UNL     1      -4.464 -11.817  15.387  0.00  0.00    +0.003 C 
ATOM      9  C   UNL     1      -3.013 -12.191  15.051  0.00  0.00    +0.019 C 
ATOM     10  C   UNL     1      -4.571 -10.767  13.059  0.00  0.00    +0.088 C 
ATOM     11  C   UNL     1      -2.391 -11.254  14.014  0.00  0.00    +0.085 C 
ENDROOT
BRANCH   7  12
ATOM     12  C   UNL     1      -6.716 -11.252  14.296  0.00  0.00    +0.002 C 
ATOM     15  C   UNL     1      -7.020  -9.965  13.555  0.00  0.00    +0.004 C 
ENDBRANCH   7  12
BRANCH   8  13
ATOM     13  C   UNL     1      -4.517 -10.564  16.269  0.00  0.00    +0.100 C 
BRANCH  13  16
ATOM      1  O   UNL     1      -4.120 -11.591  18.400  0.00  0.00    -0.276 OA
ATOM      5  N   UNL     1      -6.069 -10.352  18.179  0.00  0.00    -0.304 N 
ATOM     16  C   UNL     1      -4.866 -10.891  17.709  0.00  0.00    +0.216 C 
ATOM     21  C   UNL     1      -6.546 -10.574  19.539  0.00  0.00    +0.132 C 
BRANCH   5  20
ATOM     20  C   UNL     1      -6.938  -9.526  17.343  0.00  0.00    +0.122 C 
BRANCH  20  24
ATOM     24  C   UNL     1      -8.416  -9.800  17.591  0.00  0.00    +0.137 C 
BRANCH  24  26
ATOM      6  N   UNL     1      -9.904  -7.698  17.057  0.00  0.00    -0.197 NA
ATOM     26  C   UNL     1      -9.248  -8.625  17.293  0.00  0.00    +0.064 C 
ENDBRANCH  24  26
ENDBRANCH  20  24
ENDBRANCH   5  20
ENDBRANCH  13  16
ENDBRANCH   8  13
BRANCH   4  14
ATOM     14  C   UNL     1      -2.567 -10.349  11.788  0.00  0.00    +0.123 C 
BRANCH  14  17
ATOM     17  C   UNL     1      -3.363 -10.288  10.517  0.00  0.00    +0.008 A 
ATOM     18  C   UNL     1      -3.717 -11.455   9.841  0.00  0.00    +0.125 A 
ATOM     19  C   UNL     1      -3.747  -9.045  10.013  0.00  0.00    +0.012 A 
ATOM     22  C   UNL     1      -4.457 -11.381   8.660  0.00  0.00    +0.091 A 
ATOM     23  C   UNL     1      -4.487  -8.971   8.832  0.00  0.00    +0.046 A 
ATOM     25  C   UNL     1      -4.842 -10.139   8.156  0.00  0.00    +0.124 A 
BRANCH  18   2
ATOM      2  O   UNL     1      -3.349 -12.677  10.320  0.00  0.00    -0.506 OA
ATOM     28  H   UNL     1      -3.872 -13.364   9.873  0.00  0.00    +0.292 HD
ENDBRANCH  18   2
BRANCH  25   3
ATOM      3  O   UNL     1      -5.564 -10.066   7.004  0.00  0.00    -0.495 OA
ATOM     27  C   UNL     1      -6.786  -9.331   7.051  0.00  0.00    +0.277 C 
ENDBRANCH  25   3
ENDBRANCH  14  17
ENDBRANCH   4  14
TORSDOF 10
ENDMDL
MODEL 6
REMARK VINA RESULT:      -5.4      2.546      8.655
REMARK  Name = 26742624
REMARK  13 active torsions:
REMARK  status: ('A' for Active; 'I' for Inactive)
REMARK    1  A    between atoms: O_2  and  C_18
REMARK    2  A    between atoms: O_3  and  C_25
REMARK    3  A    between atoms: O_3  and  C_27
REMARK    4  A    between atoms: N_4  and  C_14
REMARK    5  A    between atoms: N_5  and  C_20
REMARK    6  A    between atoms: N_5  and  C_21
REMARK    7  A    between atoms: C_7  and  C_12
REMARK    8  A    between atoms: C_8  and  C_13
REMARK    9  A    between atoms: C_12  and  C_15
REMARK   10  A    between atoms: C_13  and  C_16
REMARK   11  A    between atoms: C_14  and  C_17
REMARK   12  A    between atoms: C_20  and  C_24
REMARK   13  A    between atoms: C_24  and  C_26
REMARK                            x       y       z     vdW  Elec       q    Type
REMARK                         _______ _______ _______ _____ _____    ______ ____
ROOT
ATOM      4  N   UNL     1      11.447   5.467   3.473  0.00  0.00    -0.298 NA
ATOM      7  C   UNL     1      13.544   6.064   2.280  0.00  0.00    +0.006 C 
ATOM      8  C   UNL     1      13.262   5.006   1.188  0.00  0.00    +0.003 C 
ATOM      9  C   UNL     1      12.351   3.916   1.772  0.00  0.00    +0.019 C 
ATOM     10  C   UNL     1      12.244   6.575   2.929  0.00  0.00    +0.088 C 
ATOM     11  C   UNL     1      11.096   4.492   2.433  0.00  0.00    +0.085 C 
ENDROOT
BRANCH   7  12
ATOM     12  C   UNL     1      14.388   7.235   1.774  0.00  0.00    +0.002 C 
ATOM     15  C   UNL     1      15.354   7.717   2.838  0.00  0.00    +0.004 C 
ENDBRANCH   7  12
BRANCH   8  13
ATOM     13  C   UNL     1      12.667   5.583  -0.101  0.00  0.00    +0.100 C 
BRANCH  13  16
ATOM      1  O   UNL     1      14.652   5.795  -1.430  0.00  0.00    -0.276 OA
ATOM      5  N   UNL     1      12.974   4.426  -2.262  0.00  0.00    -0.304 N 
ATOM     16  C   UNL     1      13.532   5.290  -1.313  0.00  0.00    +0.216 C 
ATOM     21  C   UNL     1      13.678   4.046  -3.481  0.00  0.00    +0.132 C 
BRANCH   5  20
ATOM     20  C   UNL     1      11.645   3.840  -2.103  0.00  0.00    +0.122 C 
BRANCH  20  24
ATOM     24  C   UNL     1      11.622   2.353  -2.437  0.00  0.00    +0.137 C 
BRANCH  24  26
ATOM      6  N   UNL     1       9.278   1.594  -3.359  0.00  0.00    -0.197 NA
ATOM     26  C   UNL     1      10.312   1.928  -2.952  0.00  0.00    +0.064 C 
ENDBRANCH  24  26
ENDBRANCH  20  24
ENDBRANCH   5  20
ENDBRANCH  13  16
ENDBRANCH   8  13
BRANCH   4  14
ATOM     14  C   UNL     1      10.242   5.975   4.129  0.00  0.00    +0.123 C 
BRANCH  14  17
ATOM     17  C   UNL     1      10.243   5.694   5.603  0.00  0.00    +0.008 A 
ATOM     18  C   UNL     1      10.727   6.637   6.509  0.00  0.00    +0.125 A 
ATOM     19  C   UNL     1       9.752   4.472   6.064  0.00  0.00    +0.012 A 
ATOM     22  C   UNL     1      10.722   6.360   7.876  0.00  0.00    +0.091 A 
ATOM     23  C   UNL     1       9.747   4.194   7.431  0.00  0.00    +0.046 A 
ATOM     25  C   UNL     1      10.231   5.138   8.337  0.00  0.00    +0.124 A 
BRANCH  18   2
ATOM      2  O   UNL     1      11.211   7.836   6.075  0.00  0.00    -0.506 OA
ATOM     28  H   UNL     1      10.626   8.546   6.389  0.00  0.00    +0.292 HD
ENDBRANCH  18   2
BRANCH  25   3
ATOM      3  O   UNL     1      10.225   4.867   9.671  0.00  0.00    -0.495 OA
ATOM     27  C   UNL     1       8.955   4.644  10.282  0.00  0.00    +0.277 C 
ENDBRANCH  25   3
ENDBRANCH  14  17
ENDBRANCH   4  14
TORSDOF 10
ENDMDL
MODEL 7
REMARK VINA RESULT:      -5.4     17.779     21.780
REMARK  Name = 26742624
REMARK  13 active torsions:
REMARK  status: ('A' for Active; 'I' for Inactive)
REMARK    1  A    between atoms: O_2  and  C_18
REMARK    2  A    between atoms: O_3  and  C_25
REMARK    3  A    between atoms: O_3  and  C_27
REMARK    4  A    between atoms: N_4  and  C_14
REMARK    5  A    between atoms: N_5  and  C_20
REMARK    6  A    between atoms: N_5  and  C_21
REMARK    7  A    between atoms: C_7  and  C_12
REMARK    8  A    between atoms: C_8  and  C_13
REMARK    9  A    between atoms: C_12  and  C_15
REMARK   10  A    between atoms: C_13  and  C_16
REMARK   11  A    between atoms: C_14  and  C_17
REMARK   12  A    between atoms: C_20  and  C_24
REMARK   13  A    between atoms: C_24  and  C_26
REMARK                            x       y       z     vdW  Elec       q    Type
REMARK                         _______ _______ _______ _____ _____    ______ ____
ROOT
ATOM      4  N   UNL     1      20.500   5.816  21.431  0.00  0.00    -0.298 NA
ATOM      7  C   UNL     1      21.887   5.416  23.454  0.00  0.00    +0.006 C 
ATOM      8  C   UNL     1      22.615   4.241  22.760  0.00  0.00    +0.003 C 
ATOM      9  C   UNL     1      21.709   3.672  21.658  0.00  0.00    +0.019 C 
ATOM     10  C   UNL     1      21.369   6.447  22.434  0.00  0.00    +0.088 C 
ATOM     11  C   UNL     1      21.200   4.752  20.702  0.00  0.00    +0.085 C 
ENDROOT
BRANCH   7  12
ATOM     12  C   UNL     1      22.740   6.099  24.524  0.00  0.00    +0.002 C 
ATOM     15  C   UNL     1      22.900   5.217  25.746  0.00  0.00    +0.004 C 
ENDBRANCH   7  12
BRANCH   8  13
ATOM     13  C   UNL     1      23.995   4.605  22.201  0.00  0.00    +0.100 C 
BRANCH  13  16
ATOM      1  O   UNL     1      25.463   3.574  23.792  0.00  0.00    -0.276 OA
ATOM      5  N   UNL     1      25.552   2.778  21.615  0.00  0.00    -0.304 N 
ATOM     16  C   UNL     1      25.065   3.616  22.625  0.00  0.00    +0.216 C 
ATOM     21  C   UNL     1      26.581   1.775  21.861  0.00  0.00    +0.132 C 
BRANCH   5  20
ATOM     20  C   UNL     1      25.066   2.845  20.239  0.00  0.00    +0.122 C 
BRANCH  20  24
ATOM     24  C   UNL     1      26.116   3.386  19.276  0.00  0.00    +0.137 C 
BRANCH  24  26
ATOM      6  N   UNL     1      26.118   6.016  19.206  0.00  0.00    -0.197 NA
ATOM     26  C   UNL     1      26.118   4.856  19.238  0.00  0.00    +0.064 C 
ENDBRANCH  24  26
ENDBRANCH  20  24
ENDBRANCH   5  20
ENDBRANCH  13  16
ENDBRANCH   8  13
BRANCH   4  14
ATOM     14  C   UNL     1      19.978   6.819  20.502  0.00  0.00    +0.123 C 
BRANCH  14  17
ATOM     17  C   UNL     1      18.480   6.774  20.410  0.00  0.00    +0.008 A 
ATOM     18  C   UNL     1      17.688   7.453  21.335  0.00  0.00    +0.125 A 
ATOM     19  C   UNL     1      17.883   6.041  19.383  0.00  0.00    +0.012 A 
ATOM     22  C   UNL     1      16.297   7.400  21.235  0.00  0.00    +0.091 A 
ATOM     23  C   UNL     1      16.492   5.989  19.283  0.00  0.00    +0.046 A 
ATOM     25  C   UNL     1      15.700   6.668  20.209  0.00  0.00    +0.124 A 
BRANCH  18   2
ATOM      2  O   UNL     1      18.256   8.172  22.343  0.00  0.00    -0.506 OA
ATOM     28  H   UNL     1      18.437   9.074  22.027  0.00  0.00    +0.292 HD
ENDBRANCH  18   2
BRANCH  25   3
ATOM      3  O   UNL     1      14.343   6.617  20.111  0.00  0.00    -0.495 OA
ATOM     27  C   UNL     1      13.593   7.218  21.165  0.00  0.00    +0.277 C 
ENDBRANCH  25   3
ENDBRANCH  14  17
ENDBRANCH   4  14
TORSDOF 10
ENDMDL
MODEL 8
REMARK VINA RESULT:      -5.3     27.643     32.678
REMARK  Name = 26742624
REMARK  13 active torsions:
REMARK  status: ('A' for Active; 'I' for Inactive)
REMARK    1  A    between atoms: O_2  and  C_18
REMARK    2  A    between atoms: O_3  and  C_25
REMARK    3  A    between atoms: O_3  and  C_27
REMARK    4  A    between atoms: N_4  and  C_14
REMARK    5  A    between atoms: N_5  and  C_20
REMARK    6  A    between atoms: N_5  and  C_21
REMARK    7  A    between atoms: C_7  and  C_12
REMARK    8  A    between atoms: C_8  and  C_13
REMARK    9  A    between atoms: C_12  and  C_15
REMARK   10  A    between atoms: C_13  and  C_16
REMARK   11  A    between atoms: C_14  and  C_17
REMARK   12  A    between atoms: C_20  and  C_24
REMARK   13  A    between atoms: C_24  and  C_26
REMARK                            x       y       z     vdW  Elec       q    Type
REMARK                         _______ _______ _______ _____ _____    ______ ____
ROOT
ATOM      4  N   UNL     1     -13.933   7.297  21.335  0.00  0.00    -0.298 NA
ATOM      7  C   UNL     1     -12.853   9.437  21.992  0.00  0.00    +0.006 C 
ATOM      8  C   UNL     1     -11.918   9.379  20.761  0.00  0.00    +0.003 C 
ATOM      9  C   UNL     1     -11.767   7.917  20.316  0.00  0.00    +0.019 C 
ATOM     10  C   UNL     1     -14.175   8.689  21.739  0.00  0.00    +0.088 C 
ATOM     11  C   UNL     1     -13.116   7.222  20.117  0.00  0.00    +0.085 C 
ENDROOT
BRANCH   7  12
ATOM     12  C   UNL     1     -13.125  10.864  22.469  0.00  0.00    +0.002 C 
ATOM     15  C   UNL     1     -12.126  11.290  23.526  0.00  0.00    +0.004 C 
ENDBRANCH   7  12
BRANCH   8  13
ATOM     13  C   UNL     1     -12.369  10.263  19.593  0.00  0.00    +0.100 C 
BRANCH  13  16
ATOM      1  O   UNL     1     -10.152  10.615  18.751  0.00  0.00    -0.276 OA
ATOM      5  N   UNL     1     -11.788  10.073  17.199  0.00  0.00    -0.304 N 
ATOM     16  C   UNL     1     -11.326  10.337  18.493  0.00  0.00    +0.216 C 
ATOM     21  C   UNL     1     -10.912  10.104  16.035  0.00  0.00    +0.132 C 
BRANCH   5  20
ATOM     20  C   UNL     1     -13.185   9.746  16.917  0.00  0.00    +0.122 C 
BRANCH  20  24
ATOM     24  C   UNL     1     -13.387   8.263  16.631  0.00  0.00    +0.137 C 
BRANCH  24  26
ATOM      6  N   UNL     1     -14.465   7.860  14.265  0.00  0.00    -0.197 NA
ATOM     26  C   UNL     1     -13.990   8.038  15.309  0.00  0.00    +0.064 C 
ENDBRANCH  24  26
ENDBRANCH  20  24
ENDBRANCH   5  20
ENDBRANCH  13  16
ENDBRANCH   8  13
BRANCH   4  14
ATOM     14  C   UNL     1     -15.200   6.590  21.148  0.00  0.00    +0.123 C 
BRANCH  14  17
ATOM     17  C   UNL     1     -15.619   5.851  22.385  0.00  0.00    +0.008 A 
ATOM     18  C   UNL     1     -14.952   4.693  22.785  0.00  0.00    +0.125 A 
ATOM     19  C   UNL     1     -16.690   6.335  23.138  0.00  0.00    +0.012 A 
ATOM     22  C   UNL     1     -15.355   4.018  23.938  0.00  0.00    +0.091 A 
ATOM     23  C   UNL     1     -17.093   5.660  24.290  0.00  0.00    +0.046 A 
ATOM     25  C   UNL     1     -16.425   4.502  24.690  0.00  0.00    +0.124 A 
BRANCH  18   2
ATOM      2  O   UNL     1     -13.905   4.207  22.061  0.00  0.00    -0.506 OA
ATOM     28  H   UNL     1     -14.243   3.815  21.238  0.00  0.00    +0.292 HD
ENDBRANCH  18   2
BRANCH  25   3
ATOM      3  O   UNL     1     -16.818   3.844  25.816  0.00  0.00    -0.495 OA
ATOM     27  C   UNL     1     -16.807   4.583  27.036  0.00  0.00    +0.277 C 
ENDBRANCH  25   3
ENDBRANCH  14  17
ENDBRANCH   4  14
TORSDOF 10
ENDMDL
MODEL 9
REMARK VINA RESULT:      -5.3     25.299     29.703
REMARK  Name = 26742624
REMARK  13 active torsions:
REMARK  status: ('A' for Active; 'I' for Inactive)
REMARK    1  A    between atoms: O_2  and  C_18
REMARK    2  A    between atoms: O_3  and  C_25
REMARK    3  A    between atoms: O_3  and  C_27
REMARK    4  A    between atoms: N_4  and  C_14
REMARK    5  A    between atoms: N_5  and  C_20
REMARK    6  A    between atoms: N_5  and  C_21
REMARK    7  A    between atoms: C_7  and  C_12
REMARK    8  A    between atoms: C_8  and  C_13
REMARK    9  A    between atoms: C_12  and  C_15
REMARK   10  A    between atoms: C_13  and  C_16
REMARK   11  A    between atoms: C_14  and  C_17
REMARK   12  A    between atoms: C_20  and  C_24
REMARK   13  A    between atoms: C_24  and  C_26
REMARK                            x       y       z     vdW  Elec       q    Type
REMARK                         _______ _______ _______ _____ _____    ______ ____
ROOT
ATOM      4  N   UNL     1     -12.271   9.366  19.140  0.00  0.00    -0.298 NA
ATOM      7  C   UNL     1     -11.538   9.144  16.776  0.00  0.00    +0.006 C 
ATOM      8  C   UNL     1     -11.676  10.668  16.556  0.00  0.00    +0.003 C 
ATOM      9  C   UNL     1     -12.686  11.229  17.568  0.00  0.00    +0.019 C 
ATOM     10  C   UNL     1     -11.246   8.804  18.250  0.00  0.00    +0.088 C 
ATOM     11  C   UNL     1     -12.360  10.826  19.008  0.00  0.00    +0.085 C 
ENDROOT
BRANCH   7  12
ATOM     12  C   UNL     1     -10.496   8.500  15.861  0.00  0.00    +0.002 C 
ATOM     15  C   UNL     1     -11.038   8.308  14.458  0.00  0.00    +0.004 C 
ENDBRANCH   7  12
BRANCH   8  13
ATOM     13  C   UNL     1     -10.349  11.432  16.627  0.00  0.00    +0.100 C 
BRANCH  13  16
ATOM      1  O   UNL     1     -10.959  12.364  14.503  0.00  0.00    -0.276 OA
ATOM      5  N   UNL     1      -9.026  13.181  15.490  0.00  0.00    -0.304 N 
ATOM     16  C   UNL     1     -10.156  12.358  15.440  0.00  0.00    +0.216 C 
ATOM     21  C   UNL     1      -8.700  14.126  14.429  0.00  0.00    +0.132 C 
BRANCH   5  20
ATOM     20  C   UNL     1      -8.087  13.157  16.610  0.00  0.00    +0.122 C 
BRANCH  20  24
ATOM     24  C   UNL     1      -6.691  13.616  16.208  0.00  0.00    +0.137 C 
BRANCH  24  26
ATOM      6  N   UNL     1      -5.553  15.056  18.093  0.00  0.00    -0.197 NA
ATOM     26  C   UNL     1      -6.055  14.420  17.262  0.00  0.00    +0.064 C 
ENDBRANCH  24  26
ENDBRANCH  20  24
ENDBRANCH   5  20
ENDBRANCH  13  16
ENDBRANCH   8  13
BRANCH   4  14
ATOM     14  C   UNL     1     -12.005   8.992  20.530  0.00  0.00    +0.123 C 
BRANCH  14  17
ATOM     17  C   UNL     1     -12.815   7.802  20.956  0.00  0.00    +0.008 A 
ATOM     18  C   UNL     1     -14.209   7.848  20.948  0.00  0.00    +0.125 A 
ATOM     19  C   UNL     1     -12.158   6.641  21.363  0.00  0.00    +0.012 A 
ATOM     22  C   UNL     1     -14.947   6.734  21.348  0.00  0.00    +0.091 A 
ATOM     23  C   UNL     1     -12.895   5.526  21.763  0.00  0.00    +0.046 A 
ATOM     25  C   UNL     1     -14.290   5.573  21.755  0.00  0.00    +0.124 A 
BRANCH  18   2
ATOM      2  O   UNL     1     -14.867   8.975  20.554  0.00  0.00    -0.506 OA
ATOM     28  H   UNL     1     -14.450   9.748  20.971  0.00  0.00    +0.292 HD
ENDBRANCH  18   2
BRANCH  25   3
ATOM      3  O   UNL     1     -15.009   4.485  22.144  0.00  0.00    -0.495 OA
ATOM     27  C   UNL     1     -15.229   4.320  23.544  0.00  0.00    +0.277 C 
ENDBRANCH  25   3
ENDBRANCH  14  17
ENDBRANCH   4  14
TORSDOF 10
ENDMDL
MODEL 10
REMARK VINA RESULT:      -5.2     23.759     26.309
REMARK  Name = 26742624
REMARK  13 active torsions:
REMARK  status: ('A' for Active; 'I' for Inactive)
REMARK    1  A    between atoms: O_2  and  C_18
REMARK    2  A    between atoms: O_3  and  C_25
REMARK    3  A    between atoms: O_3  and  C_27
REMARK    4  A    between atoms: N_4  and  C_14
REMARK    5  A    between atoms: N_5  and  C_20
REMARK    6  A    between atoms: N_5  and  C_21
REMARK    7  A    between atoms: C_7  and  C_12
REMARK    8  A    between atoms: C_8  and  C_13
REMARK    9  A    between atoms: C_12  and  C_15
REMARK   10  A    between atoms: C_13  and  C_16
REMARK   11  A    between atoms: C_14  and  C_17
REMARK   12  A    between atoms: C_20  and  C_24
REMARK   13  A    between atoms: C_24  and  C_26
REMARK                            x       y       z     vdW  Elec       q    Type
REMARK                         _______ _______ _______ _____ _____    ______ ____
ROOT
ATOM      4  N   UNL     1      -3.489 -10.789  12.618  0.00  0.00    -0.298 NA
ATOM      7  C   UNL     1      -3.296 -10.469  15.075  0.00  0.00    +0.006 C 
ATOM      8  C   UNL     1      -4.694 -11.090  15.299  0.00  0.00    +0.003 C 
ATOM      9  C   UNL     1      -5.524 -10.927  14.016  0.00  0.00    +0.019 C 
ATOM     10  C   UNL     1      -2.632 -11.003  13.793  0.00  0.00    +0.088 C 
ATOM     11  C   UNL     1      -4.793 -11.444  12.775  0.00  0.00    +0.085 C 
ENDROOT
BRANCH   7  12
ATOM     12  C   UNL     1      -2.365 -10.645  16.276  0.00  0.00    +0.002 C 
ATOM     15  C   UNL     1      -0.911 -10.509  15.870  0.00  0.00    +0.004 C 
ENDBRANCH   7  12
BRANCH   8  13
ATOM     13  C   UNL     1      -4.661 -12.556  15.746  0.00  0.00    +0.100 C 
BRANCH  13  16
ATOM      1  O   UNL     1      -6.547 -14.018  15.509  0.00  0.00    -0.276 OA
ATOM      5  N   UNL     1      -6.670 -12.411  17.177  0.00  0.00    -0.304 N 
ATOM     16  C   UNL     1      -6.039 -13.073  16.118  0.00  0.00    +0.216 C 
ATOM     21  C   UNL     1      -7.995 -12.787  17.655  0.00  0.00    +0.132 C 
BRANCH   5  20
ATOM     20  C   UNL     1      -6.049 -11.293  17.884  0.00  0.00    +0.122 C 
BRANCH  20  24
ATOM     24  C   UNL     1      -5.786 -11.608  19.352  0.00  0.00    +0.137 C 
BRANCH  24  26
ATOM      6  N   UNL     1      -3.266 -12.228  19.783  0.00  0.00    -0.197 NA
ATOM     26  C   UNL     1      -4.378 -11.955  19.593  0.00  0.00    +0.064 C 
ENDBRANCH  24  26
ENDBRANCH  20  24
ENDBRANCH   5  20
ENDBRANCH  13  16
ENDBRANCH   8  13
BRANCH   4  14
ATOM     14  C   UNL     1      -2.821 -11.258  11.404  0.00  0.00    +0.123 C 
BRANCH  14  17
ATOM     17  C   UNL     1      -3.587 -10.892  10.165  0.00  0.00    +0.008 A 
ATOM     18  C   UNL     1      -4.037 -11.878   9.288  0.00  0.00    +0.125 A 
ATOM     19  C   UNL     1      -3.846  -9.548   9.897  0.00  0.00    +0.012 A 
ATOM     22  C   UNL     1      -4.746 -11.521   8.141  0.00  0.00    +0.091 A 
ATOM     23  C   UNL     1      -4.556  -9.191   8.750  0.00  0.00    +0.046 A 
ATOM     25  C   UNL     1      -5.006 -10.177   7.873  0.00  0.00    +0.124 A 
BRANCH  18   2
ATOM      2  O   UNL     1      -3.791 -13.196   9.535  0.00  0.00    -0.506 OA
ATOM     28  H   UNL     1      -3.012 -13.271  10.111  0.00  0.00    +0.292 HD
ENDBRANCH  18   2
BRANCH  25   3
ATOM      3  O   UNL     1      -5.699  -9.828   6.754  0.00  0.00    -0.495 OA
ATOM     27  C   UNL     1      -7.011  -9.301   6.942  0.00  0.00    +0.277 C 
ENDBRANCH  25   3
ENDBRANCH  14  17
ENDBRANCH   4  14
TORSDOF 10
ENDMDL
