MODEL 1
REMARK VINA RESULT:      -6.1      0.000      0.000
REMARK  Name = 38028744
REMARK  12 active torsions:
REMARK  status: ('A' for Active; 'I' for Inactive)
REMARK    1  A    between atoms: S_1  and  N_7
REMARK    2  A    between atoms: S_1  and  C_25
REMARK    3  A    between atoms: O_5  and  C_30
REMARK    4  A    between atoms: O_5  and  C_31
REMARK    5  A    between atoms: N_7  and  C_16
REMARK    6  A    between atoms: C_8  and  C_12
REMARK    7  A    between atoms: C_9  and  C_16
REMARK    8  A    between atoms: C_11  and  C_15
REMARK    9  A    between atoms: C_12  and  C_17
REMARK   10  A    between atoms: C_12  and  C_18
REMARK   11  A    between atoms: C_13  and  C_19
REMARK   12  A    between atoms: C_15  and  C_20
REMARK                            x       y       z     vdW  Elec       q    Type
REMARK                         _______ _______ _______ _____ _____    ______ ____
ROOT
ATOM      8  C   UNL     1      16.945   7.485  20.617  0.00  0.00    +0.000 C 
ATOM      9  C   UNL     1      15.682   7.147  21.448  0.00  0.00    +0.030 C 
ATOM     10  C   UNL     1      17.777   8.567  21.324  0.00  0.00    +0.012 C 
ATOM     11  C   UNL     1      16.977   9.865  21.546  0.00  0.00    +0.023 C 
ATOM     13  C   UNL     1      15.601   9.588  22.117  0.00  0.00    -0.073 C 
ATOM     14  C   UNL     1      15.045   8.365  22.076  0.00  0.00    -0.023 C 
ATOM     19  C   UNL     1      14.899  10.741  22.779  0.00  0.00    +0.039 C 
ENDROOT
BRANCH   8  12
ATOM     12  C   UNL     1      17.811   6.246  20.369  0.00  0.00    -0.013 C 
ATOM     17  C   UNL     1      17.671   5.781  18.923  0.00  0.00    +0.007 C 
ATOM     18  C   UNL     1      19.270   6.539  20.704  0.00  0.00    +0.007 C 
ENDBRANCH   8  12
BRANCH  11  15
ATOM     15  C   UNL     1      16.879  10.681  20.252  0.00  0.00    +0.103 C 
BRANCH  15  20
ATOM      2  O   UNL     1      19.110  11.501  20.107  0.00  0.00    -0.276 OA
ATOM      6  N   UNL     1      17.434  13.056  20.437  0.00  0.00    -0.301 N 
ATOM     20  C   UNL     1      17.918  11.774  20.254  0.00  0.00    +0.216 C 
ATOM     21  C   UNL     1      18.309  14.219  20.472  0.00  0.00    +0.108 C 
ATOM     22  C   UNL     1      16.038  13.445  20.613  0.00  0.00    +0.108 C 
ATOM     23  C   UNL     1      17.367  15.407  20.360  0.00  0.00    +0.020 C 
ATOM     24  C   UNL     1      16.103  14.903  21.045  0.00  0.00    +0.020 C 
ENDBRANCH  15  20
ENDBRANCH  11  15
BRANCH   9  16
ATOM     16  C   UNL     1      14.642   6.409  20.597  0.00  0.00    +0.113 C 
BRANCH  16   7
ATOM      7  N   UNL     1      14.513   7.089  19.298  0.00  0.00    -0.189 NA
ATOM     32  H   UNL     1      15.312   7.657  18.990  0.00  0.00    +0.148 HD
BRANCH   7   1
ATOM      1  S   UNL     1      12.973   7.495  18.693  0.00  0.00    +0.058 S 
ATOM      3  O   UNL     1      11.992   6.569  19.225  0.00  0.00    -0.153 OA
ATOM      4  O   UNL     1      13.068   7.716  17.263  0.00  0.00    -0.153 OA
BRANCH   1  25
ATOM     25  C   UNL     1      12.697   9.072  19.441  0.00  0.00    +0.105 A 
ATOM     26  C   UNL     1      13.354  10.201  18.950  0.00  0.00    +0.032 A 
ATOM     27  C   UNL     1      11.825   9.189  20.523  0.00  0.00    +0.032 A 
ATOM     28  C   UNL     1      13.136  11.446  19.540  0.00  0.00    +0.047 A 
ATOM     29  C   UNL     1      11.609  10.433  21.114  0.00  0.00    +0.047 A 
ATOM     30  C   UNL     1      12.264  11.563  20.622  0.00  0.00    +0.120 A 
BRANCH  30   5
ATOM      5  O   UNL     1      12.052  12.777  21.198  0.00  0.00    -0.495 OA
ATOM     31  C   UNL     1      10.946  12.886  22.093  0.00  0.00    +0.277 C 
ENDBRANCH  30   5
ENDBRANCH   1  25
ENDBRANCH   7   1
ENDBRANCH  16   7
ENDBRANCH   9  16
TORSDOF 8
ENDMDL
MODEL 2
REMARK VINA RESULT:      -5.8     28.071     30.492
REMARK  Name = 38028744
REMARK  12 active torsions:
REMARK  status: ('A' for Active; 'I' for Inactive)
REMARK    1  A    between atoms: S_1  and  N_7
REMARK    2  A    between atoms: S_1  and  C_25
REMARK    3  A    between atoms: O_5  and  C_30
REMARK    4  A    between atoms: O_5  and  C_31
REMARK    5  A    between atoms: N_7  and  C_16
REMARK    6  A    between atoms: C_8  and  C_12
REMARK    7  A    between atoms: C_9  and  C_16
REMARK    8  A    between atoms: C_11  and  C_15
REMARK    9  A    between atoms: C_12  and  C_17
REMARK   10  A    between atoms: C_12  and  C_18
REMARK   11  A    between atoms: C_13  and  C_19
REMARK   12  A    between atoms: C_15  and  C_20
REMARK                            x       y       z     vdW  Elec       q    Type
REMARK                         _______ _______ _______ _____ _____    ______ ____
ROOT
ATOM      8  C   UNL     1      -5.622 -10.880  17.318  0.00  0.00    +0.000 C 
ATOM      9  C   UNL     1      -4.702 -11.936  16.654  0.00  0.00    +0.030 C 
ATOM     10  C   UNL     1      -7.097 -11.282  17.164  0.00  0.00    +0.012 C 
ATOM     11  C   UNL     1      -7.510 -11.429  15.688  0.00  0.00    +0.023 C 
ATOM     13  C   UNL     1      -6.501 -12.240  14.899  0.00  0.00    -0.073 C 
ATOM     14  C   UNL     1      -5.256 -12.467  15.353  0.00  0.00    -0.023 C 
ATOM     19  C   UNL     1      -6.973 -12.824  13.596  0.00  0.00    +0.039 C 
ENDROOT
BRANCH   8  12
ATOM     12  C   UNL     1      -5.289 -10.688  18.801  0.00  0.00    -0.013 C 
ATOM     17  C   UNL     1      -6.542 -10.308  19.583  0.00  0.00    +0.007 C 
ATOM     18  C   UNL     1      -4.657 -11.953  19.373  0.00  0.00    +0.007 C 
ENDBRANCH   8  12
BRANCH  11  15
ATOM     15  C   UNL     1      -7.739 -10.059  15.039  0.00  0.00    +0.103 C 
BRANCH  15  20
ATOM      2  O   UNL     1      -9.677 -10.459  13.713  0.00  0.00    -0.276 OA
ATOM      6  N   UNL     1      -9.919  -9.070  15.543  0.00  0.00    -0.301 N 
ATOM     20  C   UNL     1      -9.198  -9.891  14.696  0.00  0.00    +0.216 C 
ATOM     21  C   UNL     1     -11.335  -8.800  15.344  0.00  0.00    +0.108 C 
ATOM     22  C   UNL     1      -9.413  -8.374  16.722  0.00  0.00    +0.108 C 
ATOM     23  C   UNL     1     -11.784  -8.148  16.643  0.00  0.00    +0.020 C 
ATOM     24  C   UNL     1     -10.532  -7.414  17.104  0.00  0.00    +0.020 C 
ENDBRANCH  15  20
ENDBRANCH  11  15
BRANCH   9  16
ATOM     16  C   UNL     1      -3.296 -11.373  16.419  0.00  0.00    +0.113 C 
BRANCH  16   7
ATOM      7  N   UNL     1      -3.321 -10.494  15.239  0.00  0.00    -0.189 NA
ATOM     32  H   UNL     1      -4.235 -10.115  14.961  0.00  0.00    +0.148 HD
BRANCH   7   1
ATOM      1  S   UNL     1      -2.126 -10.643  14.033  0.00  0.00    +0.058 S 
ATOM      3  O   UNL     1      -1.717 -12.031  13.937  0.00  0.00    -0.153 OA
ATOM      4  O   UNL     1      -1.135  -9.600  14.214  0.00  0.00    -0.153 OA
BRANCH   1  25
ATOM     25  C   UNL     1      -3.038 -10.241  12.573  0.00  0.00    +0.105 A 
ATOM     26  C   UNL     1      -2.361  -9.891  11.404  0.00  0.00    +0.032 A 
ATOM     27  C   UNL     1      -4.432 -10.271  12.589  0.00  0.00    +0.032 A 
ATOM     28  C   UNL     1      -3.079  -9.573  10.251  0.00  0.00    +0.047 A 
ATOM     29  C   UNL     1      -5.150  -9.952  11.437  0.00  0.00    +0.047 A 
ATOM     30  C   UNL     1      -4.474  -9.603  10.267  0.00  0.00    +0.120 A 
BRANCH  30   5
ATOM      5  O   UNL     1      -5.174  -9.294   9.143  0.00  0.00    -0.495 OA
ATOM     31  C   UNL     1      -6.442  -8.663   9.322  0.00  0.00    +0.277 C 
ENDBRANCH  30   5
ENDBRANCH   1  25
ENDBRANCH   7   1
ENDBRANCH  16   7
ENDBRANCH   9  16
TORSDOF 8
ENDMDL
MODEL 3
REMARK VINA RESULT:      -5.7     28.530     30.927
REMARK  Name = 38028744
REMARK  12 active torsions:
REMARK  status: ('A' for Active; 'I' for Inactive)
REMARK    1  A    between atoms: S_1  and  N_7
REMARK    2  A    between atoms: S_1  and  C_25
REMARK    3  A    between atoms: O_5  and  C_30
REMARK    4  A    between atoms: O_5  and  C_31
REMARK    5  A    between atoms: N_7  and  C_16
REMARK    6  A    between atoms: C_8  and  C_12
REMARK    7  A    between atoms: C_9  and  C_16
REMARK    8  A    between atoms: C_11  and  C_15
REMARK    9  A    between atoms: C_12  and  C_17
REMARK   10  A    between atoms: C_12  and  C_18
REMARK   11  A    between atoms: C_13  and  C_19
REMARK   12  A    between atoms: C_15  and  C_20
REMARK                            x       y       z     vdW  Elec       q    Type
REMARK                         _______ _______ _______ _____ _____    ______ ____
ROOT
ATOM      8  C   UNL     1      -5.862 -11.671  15.116  0.00  0.00    +0.000 C 
ATOM      9  C   UNL     1      -4.483 -12.115  15.665  0.00  0.00    +0.030 C 
ATOM     10  C   UNL     1      -6.401 -10.480  15.924  0.00  0.00    +0.012 C 
ATOM     11  C   UNL     1      -6.556 -10.812  17.420  0.00  0.00    +0.023 C 
ATOM     13  C   UNL     1      -5.326 -11.504  17.973  0.00  0.00    -0.073 C 
ATOM     14  C   UNL     1      -4.404 -12.069  17.173  0.00  0.00    -0.023 C 
ATOM     19  C   UNL     1      -5.157 -11.492  19.467  0.00  0.00    +0.039 C 
ENDROOT
BRANCH   8  12
ATOM     12  C   UNL     1      -5.790 -11.300  13.632  0.00  0.00    -0.013 C 
ATOM     17  C   UNL     1      -6.755 -12.160  12.821  0.00  0.00    +0.007 C 
ATOM     18  C   UNL     1      -6.093  -9.817  13.438  0.00  0.00    +0.007 C 
ENDBRANCH   8  12
BRANCH  11  15
ATOM     15  C   UNL     1      -7.815 -11.649  17.673  0.00  0.00    +0.103 C 
BRANCH  15  20
ATOM      2  O   UNL     1      -8.569 -10.852  19.787  0.00  0.00    -0.276 OA
ATOM      6  N   UNL     1      -9.826 -10.281  17.935  0.00  0.00    -0.301 N 
ATOM     20  C   UNL     1      -8.762 -10.893  18.571  0.00  0.00    +0.216 C 
ATOM     21  C   UNL     1     -10.832  -9.521  18.662  0.00  0.00    +0.108 C 
ATOM     22  C   UNL     1     -10.109 -10.288  16.503  0.00  0.00    +0.108 C 
ATOM     23  C   UNL     1     -11.598  -8.772  17.582  0.00  0.00    +0.020 C 
ATOM     24  C   UNL     1     -11.517  -9.720  16.392  0.00  0.00    +0.020 C 
ENDBRANCH  15  20
ENDBRANCH  11  15
BRANCH   9  16
ATOM     16  C   UNL     1      -4.123 -13.523  15.178  0.00  0.00    +0.113 C 
BRANCH  16   7
ATOM      7  N   UNL     1      -2.682 -13.575  14.878  0.00  0.00    -0.189 NA
ATOM     32  H   UNL     1      -2.072 -12.958  15.427  0.00  0.00    +0.148 HD
BRANCH   7   1
ATOM      1  S   UNL     1      -2.145 -14.050  13.333  0.00  0.00    +0.058 S 
ATOM      3  O   UNL     1      -2.985 -15.127  12.845  0.00  0.00    -0.153 OA
ATOM      4  O   UNL     1      -0.703 -14.202  13.357  0.00  0.00    -0.153 OA
BRANCH   1  25
ATOM     25  C   UNL     1      -2.496 -12.607  12.372  0.00  0.00    +0.105 A 
ATOM     26  C   UNL     1      -1.943 -11.379  12.734  0.00  0.00    +0.032 A 
ATOM     27  C   UNL     1      -3.325 -12.697  11.255  0.00  0.00    +0.032 A 
ATOM     28  C   UNL     1      -2.219 -10.240  11.977  0.00  0.00    +0.047 A 
ATOM     29  C   UNL     1      -3.601 -11.558  10.498  0.00  0.00    +0.047 A 
ATOM     30  C   UNL     1      -3.048 -10.329  10.859  0.00  0.00    +0.120 A 
BRANCH  30   5
ATOM      5  O   UNL     1      -3.317  -9.219  10.120  0.00  0.00    -0.495 OA
ATOM     31  C   UNL     1      -4.309  -9.343   9.102  0.00  0.00    +0.277 C 
ENDBRANCH  30   5
ENDBRANCH   1  25
ENDBRANCH   7   1
ENDBRANCH  16   7
ENDBRANCH   9  16
TORSDOF 8
ENDMDL
MODEL 4
REMARK VINA RESULT:      -5.5     15.673     18.149
REMARK  Name = 38028744
REMARK  12 active torsions:
REMARK  status: ('A' for Active; 'I' for Inactive)
REMARK    1  A    between atoms: S_1  and  N_7
REMARK    2  A    between atoms: S_1  and  C_25
REMARK    3  A    between atoms: O_5  and  C_30
REMARK    4  A    between atoms: O_5  and  C_31
REMARK    5  A    between atoms: N_7  and  C_16
REMARK    6  A    between atoms: C_8  and  C_12
REMARK    7  A    between atoms: C_9  and  C_16
REMARK    8  A    between atoms: C_11  and  C_15
REMARK    9  A    between atoms: C_12  and  C_17
REMARK   10  A    between atoms: C_12  and  C_18
REMARK   11  A    between atoms: C_13  and  C_19
REMARK   12  A    between atoms: C_15  and  C_20
REMARK                            x       y       z     vdW  Elec       q    Type
REMARK                         _______ _______ _______ _____ _____    ______ ____
ROOT
ATOM      8  C   UNL     1      10.783   7.229   5.175  0.00  0.00    +0.000 C 
ATOM      9  C   UNL     1      10.711   5.682   5.118  0.00  0.00    +0.030 C 
ATOM     10  C   UNL     1      11.276   7.691   6.556  0.00  0.00    +0.012 C 
ATOM     11  C   UNL     1      10.360   7.203   7.695  0.00  0.00    +0.023 C 
ATOM     13  C   UNL     1      10.022   5.733   7.554  0.00  0.00    -0.073 C 
ATOM     14  C   UNL     1      10.197   5.067   6.399  0.00  0.00    -0.023 C 
ATOM     19  C   UNL     1       9.519   5.034   8.786  0.00  0.00    +0.039 C 
ENDROOT
BRANCH   8  12
ATOM     12  C   UNL     1      11.696   7.796   4.084  0.00  0.00    -0.013 C 
ATOM     17  C   UNL     1      11.867   9.301   4.262  0.00  0.00    +0.007 C 
ATOM     18  C   UNL     1      13.049   7.091   4.100  0.00  0.00    +0.007 C 
ENDBRANCH   8  12
BRANCH  11  15
ATOM     15  C   UNL     1       9.088   8.053   7.782  0.00  0.00    +0.103 C 
BRANCH  15  20
ATOM      2  O   UNL     1      10.059  10.011   8.729  0.00  0.00    -0.276 OA
ATOM      6  N   UNL     1       9.038  10.230   6.669  0.00  0.00    -0.301 N 
ATOM     20  C   UNL     1       9.447   9.517   7.780  0.00  0.00    +0.216 C 
ATOM     21  C   UNL     1       9.301  11.654   6.519  0.00  0.00    +0.108 C 
ATOM     22  C   UNL     1       8.315   9.706   5.514  0.00  0.00    +0.108 C 
ATOM     23  C   UNL     1       8.988  11.947   5.060  0.00  0.00    +0.020 C 
ATOM     24  C   UNL     1       7.884  10.946   4.742  0.00  0.00    +0.020 C 
ENDBRANCH  15  20
ENDBRANCH  11  15
BRANCH   9  16
ATOM     16  C   UNL     1       9.845   5.213   3.944  0.00  0.00    +0.113 C 
BRANCH  16   7
ATOM      7  N   UNL     1      10.684   4.460   2.997  0.00  0.00    -0.189 NA
ATOM     32  H   UNL     1      11.517   3.998   3.382  0.00  0.00    +0.148 HD
BRANCH   7   1
ATOM      1  S   UNL     1      10.703   4.880   1.347  0.00  0.00    +0.058 S 
ATOM      3  O   UNL     1      10.484   6.308   1.215  0.00  0.00    -0.153 OA
ATOM      4  O   UNL     1       9.877   3.944   0.608  0.00  0.00    -0.153 OA
BRANCH   1  25
ATOM     25  C   UNL     1      12.382   4.543   0.909  0.00  0.00    +0.105 A 
ATOM     26  C   UNL     1      13.212   3.865   1.803  0.00  0.00    +0.032 A 
ATOM     27  C   UNL     1      12.877   4.954  -0.328  0.00  0.00    +0.032 A 
ATOM     28  C   UNL     1      14.537   3.598   1.458  0.00  0.00    +0.047 A 
ATOM     29  C   UNL     1      14.202   4.687  -0.672  0.00  0.00    +0.047 A 
ATOM     30  C   UNL     1      15.033   4.009   0.221  0.00  0.00    +0.120 A 
BRANCH  30   5
ATOM      5  O   UNL     1      16.325   3.749  -0.116  0.00  0.00    -0.495 OA
ATOM     31  C   UNL     1      16.842   4.414  -1.268  0.00  0.00    +0.277 C 
ENDBRANCH  30   5
ENDBRANCH   1  25
ENDBRANCH   7   1
ENDBRANCH  16   7
ENDBRANCH   9  16
TORSDOF 8
ENDMDL
MODEL 5
REMARK VINA RESULT:      -5.5      3.508      6.321
REMARK  Name = 38028744
REMARK  12 active torsions:
REMARK  status: ('A' for Active; 'I' for Inactive)
REMARK    1  A    between atoms: S_1  and  N_7
REMARK    2  A    between atoms: S_1  and  C_25
REMARK    3  A    between atoms: O_5  and  C_30
REMARK    4  A    between atoms: O_5  and  C_31
REMARK    5  A    between atoms: N_7  and  C_16
REMARK    6  A    between atoms: C_8  and  C_12
REMARK    7  A    between atoms: C_9  and  C_16
REMARK    8  A    between atoms: C_11  and  C_15
REMARK    9  A    between atoms: C_12  and  C_17
REMARK   10  A    between atoms: C_12  and  C_18
REMARK   11  A    between atoms: C_13  and  C_19
REMARK   12  A    between atoms: C_15  and  C_20
REMARK                            x       y       z     vdW  Elec       q    Type
REMARK                         _______ _______ _______ _____ _____    ______ ____
ROOT
ATOM      8  C   UNL     1      17.941   7.436  20.519  0.00  0.00    +0.000 C 
ATOM      9  C   UNL     1      17.830   8.600  21.536  0.00  0.00    +0.030 C 
ATOM     10  C   UNL     1      18.589   6.209  21.179  0.00  0.00    +0.012 C 
ATOM     11  C   UNL     1      19.997   6.516  21.725  0.00  0.00    +0.023 C 
ATOM     13  C   UNL     1      20.023   7.805  22.521  0.00  0.00    -0.073 C 
ATOM     14  C   UNL     1      19.040   8.718  22.434  0.00  0.00    -0.023 C 
ATOM     19  C   UNL     1      21.184   7.999  23.456  0.00  0.00    +0.039 C 
ENDROOT
BRANCH   8  12
ATOM     12  C   UNL     1      16.576   7.053  19.941  0.00  0.00    -0.013 C 
ATOM     17  C   UNL     1      16.725   5.927  18.924  0.00  0.00    +0.007 C 
ATOM     18  C   UNL     1      15.618   6.650  21.059  0.00  0.00    +0.007 C 
ENDBRANCH   8  12
BRANCH  11  15
ATOM     15  C   UNL     1      21.033   6.547  20.596  0.00  0.00    +0.103 C 
BRANCH  15  20
ATOM      2  O   UNL     1      21.113   4.169  20.495  0.00  0.00    -0.276 OA
ATOM      6  N   UNL     1      23.130   5.294  20.491  0.00  0.00    -0.301 N 
ATOM     20  C   UNL     1      21.750   5.224  20.520  0.00  0.00    +0.216 C 
ATOM     21  C   UNL     1      23.968   4.106  20.426  0.00  0.00    +0.108 C 
ATOM     22  C   UNL     1      23.943   6.507  20.514  0.00  0.00    +0.108 C 
ATOM     23  C   UNL     1      25.353   4.634  20.086  0.00  0.00    +0.020 C 
ATOM     24  C   UNL     1      25.362   6.008  20.745  0.00  0.00    +0.020 C 
ENDBRANCH  15  20
ENDBRANCH  11  15
BRANCH   9  16
ATOM     16  C   UNL     1      17.591   9.936  20.823  0.00  0.00    +0.113 C 
BRANCH  16   7
ATOM      7  N   UNL     1      16.431  10.606  21.432  0.00  0.00    -0.189 NA
ATOM     32  H   UNL     1      16.164  10.303  22.377  0.00  0.00    +0.148 HD
BRANCH   7   1
ATOM      1  S   UNL     1      15.221  11.290  20.447  0.00  0.00    +0.058 S 
ATOM      3  O   UNL     1      15.684  11.319  19.073  0.00  0.00    -0.153 OA
ATOM      4  O   UNL     1      14.723  12.498  21.075  0.00  0.00    -0.153 OA
BRANCH   1  25
ATOM     25  C   UNL     1      13.937  10.080  20.564  0.00  0.00    +0.105 A 
ATOM     26  C   UNL     1      13.271   9.886  21.775  0.00  0.00    +0.032 A 
ATOM     27  C   UNL     1      13.590   9.319  19.448  0.00  0.00    +0.032 A 
ATOM     28  C   UNL     1      12.258   8.932  21.868  0.00  0.00    +0.047 A 
ATOM     29  C   UNL     1      12.578   8.365  19.542  0.00  0.00    +0.047 A 
ATOM     30  C   UNL     1      11.911   8.171  20.752  0.00  0.00    +0.120 A 
BRANCH  30   5
ATOM      5  O   UNL     1      10.922   7.241  20.842  0.00  0.00    -0.495 OA
ATOM     31  C   UNL     1      11.247   6.011  21.490  0.00  0.00    +0.277 C 
ENDBRANCH  30   5
ENDBRANCH   1  25
ENDBRANCH   7   1
ENDBRANCH  16   7
ENDBRANCH   9  16
TORSDOF 8
ENDMDL
MODEL 6
REMARK VINA RESULT:      -5.5     28.029     30.909
REMARK  Name = 38028744
REMARK  12 active torsions:
REMARK  status: ('A' for Active; 'I' for Inactive)
REMARK    1  A    between atoms: S_1  and  N_7
REMARK    2  A    between atoms: S_1  and  C_25
REMARK    3  A    between atoms: O_5  and  C_30
REMARK    4  A    between atoms: O_5  and  C_31
REMARK    5  A    between atoms: N_7  and  C_16
REMARK    6  A    between atoms: C_8  and  C_12
REMARK    7  A    between atoms: C_9  and  C_16
REMARK    8  A    between atoms: C_11  and  C_15
REMARK    9  A    between atoms: C_12  and  C_17
REMARK   10  A    between atoms: C_12  and  C_18
REMARK   11  A    between atoms: C_13  and  C_19
REMARK   12  A    between atoms: C_15  and  C_20
REMARK                            x       y       z     vdW  Elec       q    Type
REMARK                         _______ _______ _______ _____ _____    ______ ____
ROOT
ATOM      8  C   UNL     1      -4.300 -10.195  11.118  0.00  0.00    +0.000 C 
ATOM      9  C   UNL     1      -5.318  -9.408  11.981  0.00  0.00    +0.030 C 
ATOM     10  C   UNL     1      -4.107  -9.508   9.758  0.00  0.00    +0.012 C 
ATOM     11  C   UNL     1      -5.426  -9.392   8.970  0.00  0.00    +0.023 C 
ATOM     13  C   UNL     1      -6.555  -8.871   9.838  0.00  0.00    -0.073 C 
ATOM     14  C   UNL     1      -6.483  -8.875  11.180  0.00  0.00    -0.023 C 
ATOM     19  C   UNL     1      -7.750  -8.304   9.124  0.00  0.00    +0.039 C 
ENDROOT
BRANCH   8  12
ATOM     12  C   UNL     1      -2.948 -10.338  11.823  0.00  0.00    -0.013 C 
ATOM     17  C   UNL     1      -2.552 -11.808  11.923  0.00  0.00    +0.007 C 
ATOM     18  C   UNL     1      -1.877  -9.538  11.089  0.00  0.00    +0.007 C 
ENDBRANCH   8  12
BRANCH  11  15
ATOM     15  C   UNL     1      -5.803 -10.729   8.324  0.00  0.00    +0.103 C 
BRANCH  15  20
ATOM      2  O   UNL     1      -5.944  -9.828   6.124  0.00  0.00    -0.276 OA
ATOM      6  N   UNL     1      -4.627 -11.704   6.414  0.00  0.00    -0.301 N 
ATOM     20  C   UNL     1      -5.470 -10.701   6.854  0.00  0.00    +0.216 C 
ATOM     21  C   UNL     1      -4.217 -11.820   5.022  0.00  0.00    +0.108 C 
ATOM     22  C   UNL     1      -4.031 -12.762   7.225  0.00  0.00    +0.108 C 
ATOM     23  C   UNL     1      -3.071 -12.820   5.044  0.00  0.00    +0.020 C 
ATOM     24  C   UNL     1      -3.438 -13.729   6.210  0.00  0.00    +0.020 C 
ENDBRANCH  15  20
ENDBRANCH  11  15
BRANCH   9  16
ATOM     16  C   UNL     1      -5.844 -10.267  13.137  0.00  0.00    +0.113 C 
BRANCH  16   7
ATOM      7  N   UNL     1      -5.230  -9.811  14.394  0.00  0.00    -0.189 NA
ATOM     32  H   UNL     1      -4.904  -8.837  14.424  0.00  0.00    +0.148 HD
BRANCH   7   1
ATOM      1  S   UNL     1      -4.479 -10.930  15.436  0.00  0.00    +0.058 S 
ATOM      3  O   UNL     1      -3.205 -10.394  15.875  0.00  0.00    -0.153 OA
ATOM      4  O   UNL     1      -4.550 -12.252  14.845  0.00  0.00    -0.153 OA
BRANCH   1  25
ATOM     25  C   UNL     1      -5.579 -10.925  16.820  0.00  0.00    +0.105 A 
ATOM     26  C   UNL     1      -6.957 -10.997  16.615  0.00  0.00    +0.032 A 
ATOM     27  C   UNL     1      -5.071 -10.849  18.117  0.00  0.00    +0.032 A 
ATOM     28  C   UNL     1      -7.826 -10.994  17.706  0.00  0.00    +0.047 A 
ATOM     29  C   UNL     1      -5.939 -10.844  19.207  0.00  0.00    +0.047 A 
ATOM     30  C   UNL     1      -7.318 -10.917  19.003  0.00  0.00    +0.120 A 
BRANCH  30   5
ATOM      5  O   UNL     1      -8.165 -10.914  20.067  0.00  0.00    -0.495 OA
ATOM     31  C   UNL     1      -9.525 -11.263  19.815  0.00  0.00    +0.277 C 
ENDBRANCH  30   5
ENDBRANCH   1  25
ENDBRANCH   7   1
ENDBRANCH  16   7
ENDBRANCH   9  16
TORSDOF 8
ENDMDL
MODEL 7
REMARK VINA RESULT:      -5.5     27.484     31.077
REMARK  Name = 38028744
REMARK  12 active torsions:
REMARK  status: ('A' for Active; 'I' for Inactive)
REMARK    1  A    between atoms: S_1  and  N_7
REMARK    2  A    between atoms: S_1  and  C_25
REMARK    3  A    between atoms: O_5  and  C_30
REMARK    4  A    between atoms: O_5  and  C_31
REMARK    5  A    between atoms: N_7  and  C_16
REMARK    6  A    between atoms: C_8  and  C_12
REMARK    7  A    between atoms: C_9  and  C_16
REMARK    8  A    between atoms: C_11  and  C_15
REMARK    9  A    between atoms: C_12  and  C_17
REMARK   10  A    between atoms: C_12  and  C_18
REMARK   11  A    between atoms: C_13  and  C_19
REMARK   12  A    between atoms: C_15  and  C_20
REMARK                            x       y       z     vdW  Elec       q    Type
REMARK                         _______ _______ _______ _____ _____    ______ ____
ROOT
ATOM      8  C   UNL     1     -12.355   8.658  34.294  0.00  0.00    +0.000 C 
ATOM      9  C   UNL     1     -13.314   8.225  33.157  0.00  0.00    +0.030 C 
ATOM     10  C   UNL     1     -11.924  10.121  34.102  0.00  0.00    +0.012 C 
ATOM     11  C   UNL     1     -11.215  10.348  32.754  0.00  0.00    +0.023 C 
ATOM     13  C   UNL     1     -11.972   9.709  31.606  0.00  0.00    -0.073 C 
ATOM     14  C   UNL     1     -12.915   8.772  31.807  0.00  0.00    -0.023 C 
ATOM     19  C   UNL     1     -11.650  10.206  30.224  0.00  0.00    +0.039 C 
ENDROOT
BRANCH   8  12
ATOM     12  C   UNL     1     -12.995   8.484  35.675  0.00  0.00    -0.013 C 
ATOM     17  C   UNL     1     -12.157   7.542  36.535  0.00  0.00    +0.007 C 
ATOM     18  C   UNL     1     -13.162   9.836  36.360  0.00  0.00    +0.007 C 
ENDBRANCH   8  12
BRANCH  11  15
ATOM     15  C   UNL     1      -9.766   9.849  32.801  0.00  0.00    +0.103 C 
BRANCH  15  20
ATOM      2  O   UNL     1      -8.697  11.942  32.412  0.00  0.00    -0.276 OA
ATOM      6  N   UNL     1      -8.202  10.855  34.389  0.00  0.00    -0.301 N 
ATOM     20  C   UNL     1      -8.846  10.984  33.173  0.00  0.00    +0.216 C 
ATOM     21  C   UNL     1      -7.275  11.860  34.888  0.00  0.00    +0.108 C 
ATOM     22  C   UNL     1      -8.336   9.752  35.335  0.00  0.00    +0.108 C 
ATOM     23  C   UNL     1      -7.067  11.495  36.350  0.00  0.00    +0.020 C 
ATOM     24  C   UNL     1      -7.219   9.979  36.344  0.00  0.00    +0.020 C 
ENDBRANCH  15  20
ENDBRANCH  11  15
BRANCH   9  16
ATOM     16  C   UNL     1     -13.422   6.698  33.078  0.00  0.00    +0.113 C 
BRANCH  16   7
ATOM      7  N   UNL     1     -14.826   6.303  33.280  0.00  0.00    -0.189 NA
ATOM     32  H   UNL     1     -15.539   7.020  33.100  0.00  0.00    +0.148 HD
BRANCH   7   1
ATOM      1  S   UNL     1     -15.216   5.052  34.368  0.00  0.00    +0.058 S 
ATOM      3  O   UNL     1     -16.596   5.199  34.789  0.00  0.00    -0.153 OA
ATOM      4  O   UNL     1     -14.160   4.934  35.355  0.00  0.00    -0.153 OA
BRANCH   1  25
ATOM     25  C   UNL     1     -15.112   3.626  33.329  0.00  0.00    +0.105 A 
ATOM     26  C   UNL     1     -15.365   3.741  31.962  0.00  0.00    +0.032 A 
ATOM     27  C   UNL     1     -14.779   2.387  33.875  0.00  0.00    +0.032 A 
ATOM     28  C   UNL     1     -15.283   2.616  31.140  0.00  0.00    +0.047 A 
ATOM     29  C   UNL     1     -14.698   1.262  33.054  0.00  0.00    +0.047 A 
ATOM     30  C   UNL     1     -14.950   1.376  31.686  0.00  0.00    +0.120 A 
BRANCH  30   5
ATOM      5  O   UNL     1     -14.869   0.279  30.886  0.00  0.00    -0.495 OA
ATOM     31  C   UNL     1     -13.785   0.231  29.959  0.00  0.00    +0.277 C 
ENDBRANCH  30   5
ENDBRANCH   1  25
ENDBRANCH   7   1
ENDBRANCH  16   7
ENDBRANCH   9  16
TORSDOF 8
ENDMDL
MODEL 8
REMARK VINA RESULT:      -5.5     31.927     34.102
REMARK  Name = 38028744
REMARK  12 active torsions:
REMARK  status: ('A' for Active; 'I' for Inactive)
REMARK    1  A    between atoms: S_1  and  N_7
REMARK    2  A    between atoms: S_1  and  C_25
REMARK    3  A    between atoms: O_5  and  C_30
REMARK    4  A    between atoms: O_5  and  C_31
REMARK    5  A    between atoms: N_7  and  C_16
REMARK    6  A    between atoms: C_8  and  C_12
REMARK    7  A    between atoms: C_9  and  C_16
REMARK    8  A    between atoms: C_11  and  C_15
REMARK    9  A    between atoms: C_12  and  C_17
REMARK   10  A    between atoms: C_12  and  C_18
REMARK   11  A    between atoms: C_13  and  C_19
REMARK   12  A    between atoms: C_15  and  C_20
REMARK                            x       y       z     vdW  Elec       q    Type
REMARK                         _______ _______ _______ _____ _____    ______ ____
ROOT
ATOM      8  C   UNL     1     -16.323   6.438  32.020  0.00  0.00    +0.000 C 
ATOM      9  C   UNL     1     -17.352   5.759  32.957  0.00  0.00    +0.030 C 
ATOM     10  C   UNL     1     -16.993   6.854  30.700  0.00  0.00    +0.012 C 
ATOM     11  C   UNL     1     -17.612   5.655  29.958  0.00  0.00    +0.023 C 
ATOM     13  C   UNL     1     -18.430   4.779  30.886  0.00  0.00    -0.073 C 
ATOM     14  C   UNL     1     -18.310   4.849  32.223  0.00  0.00    -0.023 C 
ATOM     19  C   UNL     1     -19.423   3.853  30.241  0.00  0.00    +0.039 C 
ENDROOT
BRANCH   8  12
ATOM     12  C   UNL     1     -15.673   7.659  32.678  0.00  0.00    -0.013 C 
ATOM     17  C   UNL     1     -14.736   8.357  31.697  0.00  0.00    +0.007 C 
ATOM     18  C   UNL     1     -16.742   8.623  33.185  0.00  0.00    +0.007 C 
ENDBRANCH   8  12
BRANCH  11  15
ATOM     15  C   UNL     1     -16.534   4.835  29.238  0.00  0.00    +0.103 C 
BRANCH  15  20
ATOM      2  O   UNL     1     -17.233   5.583  27.088  0.00  0.00    -0.276 OA
ATOM      6  N   UNL     1     -16.922   3.310  27.365  0.00  0.00    -0.301 N 
ATOM     20  C   UNL     1     -16.927   4.623  27.798  0.00  0.00    +0.216 C 
ATOM     21  C   UNL     1     -17.284   2.939  26.005  0.00  0.00    +0.108 C 
ATOM     22  C   UNL     1     -16.567   2.133  28.152  0.00  0.00    +0.108 C 
ATOM     23  C   UNL     1     -16.834   1.493  25.872  0.00  0.00    +0.020 C 
ATOM     24  C   UNL     1     -16.998   0.956  27.289  0.00  0.00    +0.020 C 
ENDBRANCH  15  20
ENDBRANCH  11  15
BRANCH   9  16
ATOM     16  C   UNL     1     -16.651   4.971  34.070  0.00  0.00    +0.113 C 
BRANCH  16   7
ATOM      7  N   UNL     1     -16.195   3.679  33.531  0.00  0.00    -0.189 NA
ATOM     32  H   UNL     1     -16.879   2.913  33.522  0.00  0.00    +0.148 HD
BRANCH   7   1
ATOM      1  S   UNL     1     -14.543   3.267  33.579  0.00  0.00    +0.058 S 
ATOM      3  O   UNL     1     -14.256   2.588  34.828  0.00  0.00    -0.153 OA
ATOM      4  O   UNL     1     -13.755   4.414  33.173  0.00  0.00    -0.153 OA
BRANCH   1  25
ATOM     25  C   UNL     1     -14.432   2.078  32.275  0.00  0.00    +0.105 A 
ATOM     26  C   UNL     1     -13.780   2.408  31.086  0.00  0.00    +0.032 A 
ATOM     27  C   UNL     1     -14.996   0.813  32.433  0.00  0.00    +0.032 A 
ATOM     28  C   UNL     1     -13.692   1.470  30.056  0.00  0.00    +0.047 A 
ATOM     29  C   UNL     1     -14.908  -0.124  31.403  0.00  0.00    +0.047 A 
ATOM     30  C   UNL     1     -14.256   0.204  30.214  0.00  0.00    +0.120 A 
BRANCH  30   5
ATOM      5  O   UNL     1     -14.169  -0.710  29.211  0.00  0.00    -0.495 OA
ATOM     31  C   UNL     1     -12.951  -1.447  29.108  0.00  0.00    +0.277 C 
ENDBRANCH  30   5
ENDBRANCH   1  25
ENDBRANCH   7   1
ENDBRANCH  16   7
ENDBRANCH   9  16
TORSDOF 8
ENDMDL
MODEL 9
REMARK VINA RESULT:      -5.4     28.113     30.564
REMARK  Name = 38028744
REMARK  12 active torsions:
REMARK  status: ('A' for Active; 'I' for Inactive)
REMARK    1  A    between atoms: S_1  and  N_7
REMARK    2  A    between atoms: S_1  and  C_25
REMARK    3  A    between atoms: O_5  and  C_30
REMARK    4  A    between atoms: O_5  and  C_31
REMARK    5  A    between atoms: N_7  and  C_16
REMARK    6  A    between atoms: C_8  and  C_12
REMARK    7  A    between atoms: C_9  and  C_16
REMARK    8  A    between atoms: C_11  and  C_15
REMARK    9  A    between atoms: C_12  and  C_17
REMARK   10  A    between atoms: C_12  and  C_18
REMARK   11  A    between atoms: C_13  and  C_19
REMARK   12  A    between atoms: C_15  and  C_20
REMARK                            x       y       z     vdW  Elec       q    Type
REMARK                         _______ _______ _______ _____ _____    ______ ____
ROOT
ATOM      8  C   UNL     1      -4.060 -11.904  11.695  0.00  0.00    +0.000 C 
ATOM      9  C   UNL     1      -2.918 -11.032  11.116  0.00  0.00    +0.030 C 
ATOM     10  C   UNL     1      -5.313 -11.800  10.812  0.00  0.00    +0.012 C 
ATOM     11  C   UNL     1      -5.821 -10.351  10.688  0.00  0.00    +0.023 C 
ATOM     13  C   UNL     1      -4.695  -9.384  10.382  0.00  0.00    -0.073 C 
ATOM     14  C   UNL     1      -3.404  -9.710  10.567  0.00  0.00    -0.023 C 
ATOM     19  C   UNL     1      -5.087  -8.048   9.814  0.00  0.00    +0.039 C 
ENDROOT
BRANCH   8  12
ATOM     12  C   UNL     1      -3.642 -13.371  11.830  0.00  0.00    -0.013 C 
ATOM     17  C   UNL     1      -4.393 -14.035  12.980  0.00  0.00    +0.007 C 
ATOM     18  C   UNL     1      -3.885 -14.118  10.522  0.00  0.00    +0.007 C 
ENDBRANCH   8  12
BRANCH  11  15
ATOM     15  C   UNL     1      -6.583  -9.924  11.948  0.00  0.00    +0.103 C 
BRANCH  15  20
ATOM      2  O   UNL     1      -8.299  -9.054  10.545  0.00  0.00    -0.276 OA
ATOM      6  N   UNL     1      -8.955 -10.017  12.540  0.00  0.00    -0.301 N 
ATOM     20  C   UNL     1      -8.019  -9.622  11.601  0.00  0.00    +0.216 C 
ATOM     21  C   UNL     1     -10.381  -9.790  12.358  0.00  0.00    +0.108 C 
ATOM     22  C   UNL     1      -8.690 -10.695  13.805  0.00  0.00    +0.108 C 
ATOM     23  C   UNL     1     -11.042 -10.646  13.426  0.00  0.00    +0.020 C 
ATOM     24  C   UNL     1     -10.015 -10.636  14.551  0.00  0.00    +0.020 C 
ENDBRANCH  15  20
ENDBRANCH  11  15
BRANCH   9  16
ATOM     16  C   UNL     1      -1.830 -10.779  12.166  0.00  0.00    +0.113 C 
BRANCH  16   7
ATOM      7  N   UNL     1      -2.460 -10.305  13.408  0.00  0.00    -0.189 NA
ATOM     32  H   UNL     1      -2.798  -9.335  13.416  0.00  0.00    +0.148 HD
BRANCH   7   1
ATOM      1  S   UNL     1      -2.048 -11.012  14.902  0.00  0.00    +0.058 S 
ATOM      3  O   UNL     1      -1.013 -10.219  15.537  0.00  0.00    -0.153 OA
ATOM      4  O   UNL     1      -1.865 -12.439  14.718  0.00  0.00    -0.153 OA
BRANCH   1  25
ATOM     25  C   UNL     1      -3.541 -10.800  15.825  0.00  0.00    +0.105 A 
ATOM     26  C   UNL     1      -4.691 -10.329  15.190  0.00  0.00    +0.032 A 
ATOM     27  C   UNL     1      -3.570 -11.101  17.186  0.00  0.00    +0.032 A 
ATOM     28  C   UNL     1      -5.870 -10.161  15.917  0.00  0.00    +0.047 A 
ATOM     29  C   UNL     1      -4.748 -10.932  17.913  0.00  0.00    +0.047 A 
ATOM     30  C   UNL     1      -5.898 -10.462  17.279  0.00  0.00    +0.120 A 
BRANCH  30   5
ATOM      5  O   UNL     1      -7.048 -10.299  17.988  0.00  0.00    -0.495 OA
ATOM     31  C   UNL     1      -8.000  -9.367  17.475  0.00  0.00    +0.277 C 
ENDBRANCH  30   5
ENDBRANCH   1  25
ENDBRANCH   7   1
ENDBRANCH  16   7
ENDBRANCH   9  16
TORSDOF 8
ENDMDL
MODEL 10
REMARK VINA RESULT:      -5.3     27.969     30.687
REMARK  Name = 38028744
REMARK  12 active torsions:
REMARK  status: ('A' for Active; 'I' for Inactive)
REMARK    1  A    between atoms: S_1  and  N_7
REMARK    2  A    between atoms: S_1  and  C_25
REMARK    3  A    between atoms: O_5  and  C_30
REMARK    4  A    between atoms: O_5  and  C_31
REMARK    5  A    between atoms: N_7  and  C_16
REMARK    6  A    between atoms: C_8  and  C_12
REMARK    7  A    between atoms: C_9  and  C_16
REMARK    8  A    between atoms: C_11  and  C_15
REMARK    9  A    between atoms: C_12  and  C_17
REMARK   10  A    between atoms: C_12  and  C_18
REMARK   11  A    between atoms: C_13  and  C_19
REMARK   12  A    between atoms: C_15  and  C_20
REMARK                            x       y       z     vdW  Elec       q    Type
REMARK                         _______ _______ _______ _____ _____    ______ ____
ROOT
ATOM      8  C   UNL     1      -5.582 -11.771  17.683  0.00  0.00    +0.000 C 
ATOM      9  C   UNL     1      -7.065 -11.397  17.440  0.00  0.00    +0.030 C 
ATOM     10  C   UNL     1      -4.657 -10.669  17.142  0.00  0.00    +0.012 C 
ATOM     11  C   UNL     1      -4.858 -10.427  15.634  0.00  0.00    +0.023 C 
ATOM     13  C   UNL     1      -6.326 -10.317  15.273  0.00  0.00    -0.073 C 
ATOM     14  C   UNL     1      -7.298 -10.744  16.098  0.00  0.00    -0.023 C 
ATOM     19  C   UNL     1      -6.652  -9.663  13.959  0.00  0.00    +0.039 C 
ENDROOT
BRANCH   8  12
ATOM     12  C   UNL     1      -5.291 -12.007  19.168  0.00  0.00    -0.013 C 
ATOM     17  C   UNL     1      -3.787 -12.068  19.414  0.00  0.00    +0.007 C 
ATOM     18  C   UNL     1      -5.934 -10.916  20.018  0.00  0.00    +0.007 C 
ENDBRANCH   8  12
BRANCH  11  15
ATOM     15  C   UNL     1      -4.169 -11.516  14.804  0.00  0.00    +0.103 C 
BRANCH  15  20
ATOM      2  O   UNL     1      -1.844 -11.022  14.950  0.00  0.00    -0.276 OA
ATOM      6  N   UNL     1      -2.911 -10.500  12.969  0.00  0.00    -0.301 N 
ATOM     20  C   UNL     1      -2.863 -10.996  14.259  0.00  0.00    +0.216 C 
ATOM     21  C   UNL     1      -1.738  -9.954  12.302  0.00  0.00    +0.108 C 
ATOM     22  C   UNL     1      -4.081 -10.444  12.099  0.00  0.00    +0.108 C 
ATOM     23  C   UNL     1      -2.148  -9.839  10.843  0.00  0.00    +0.020 C 
ATOM     24  C   UNL     1      -3.645  -9.568  10.933  0.00  0.00    +0.020 C 
ENDBRANCH  15  20
ENDBRANCH  11  15
BRANCH   9  16
ATOM     16  C   UNL     1      -7.973 -12.626  17.574  0.00  0.00    +0.113 C 
BRANCH  16   7
ATOM      7  N   UNL     1      -8.963 -12.379  18.635  0.00  0.00    -0.189 NA
ATOM     32  H   UNL     1      -8.758 -12.774  19.561  0.00  0.00    +0.148 HD
BRANCH   7   1
ATOM      1  S   UNL     1     -10.596 -12.101  18.236  0.00  0.00    +0.058 S 
ATOM      3  O   UNL     1     -11.362 -11.923  19.454  0.00  0.00    -0.153 OA
ATOM      4  O   UNL     1     -11.014 -13.073  17.245  0.00  0.00    -0.153 OA
BRANCH   1  25
ATOM     25  C   UNL     1     -10.503 -10.537  17.416  0.00  0.00    +0.105 A 
ATOM     26  C   UNL     1     -10.804 -10.444  16.057  0.00  0.00    +0.032 A 
ATOM     27  C   UNL     1     -10.129  -9.397  18.127  0.00  0.00    +0.032 A 
ATOM     28  C   UNL     1     -10.732  -9.211  15.410  0.00  0.00    +0.047 A 
ATOM     29  C   UNL     1     -10.056  -8.164  17.480  0.00  0.00    +0.047 A 
ATOM     30  C   UNL     1     -10.358  -8.070  16.121  0.00  0.00    +0.120 A 
BRANCH  30   5
ATOM      5  O   UNL     1     -10.287  -6.867  15.490  0.00  0.00    -0.495 OA
ATOM     31  C   UNL     1     -11.283  -5.901  15.823  0.00  0.00    +0.277 C 
ENDBRANCH  30   5
ENDBRANCH   1  25
ENDBRANCH   7   1
ENDBRANCH  16   7
ENDBRANCH   9  16
TORSDOF 8
ENDMDL
