MODEL 1
REMARK VINA RESULT:      -7.4      0.000      0.000
REMARK  Name = 11884160
REMARK  10 active torsions:
REMARK  status: ('A' for Active; 'I' for Inactive)
REMARK    1  A    between atoms: O_3  and  C_13
REMARK    2  A    between atoms: O_3  and  C_17
REMARK    3  A    between atoms: N_7  and  C_12
REMARK    4  A    between atoms: N_8  and  C_18
REMARK    5  A    between atoms: N_9  and  C_19
REMARK    6  A    between atoms: C_22  and  C_23
REMARK    7  A    between atoms: C_23  and  C_28
REMARK    8  A    between atoms: C_23  and  C_29
REMARK    9  A    between atoms: C_32  and  C_33
REMARK   10  A    between atoms: C_33  and  C_34
REMARK                            x       y       z     vdW  Elec       q    Type
REMARK                         _______ _______ _______ _____ _____    ______ ____
ROOT
ATOM      1  O   UNL     1      -9.689  -9.207  15.312  0.00  0.00    -0.368 OA
ATOM      2  O   UNL     1     -10.642  -8.917  18.212  0.00  0.00    -0.368 OA
ATOM     10  C   UNL     1     -10.350  -7.933  17.199  0.00  0.00    +0.173 C 
ATOM     11  C   UNL     1      -9.161  -8.450  16.413  0.00  0.00    +0.192 C 
ATOM     12  C   UNL     1     -11.465  -7.888  16.181  0.00  0.00    +0.131 C 
ATOM     13  C   UNL     1      -8.466  -9.336  17.420  0.00  0.00    +0.235 C 
ATOM     14  C   UNL     1     -11.115  -9.051  15.268  0.00  0.00    +0.185 C 
ATOM     15  C   UNL     1      -9.631  -9.935  18.176  0.00  0.00    +0.207 C 
ENDROOT
BRANCH  12   7
ATOM      4  O   UNL     1     -13.285  -7.104  14.112  0.00  0.00    -0.252 OA
ATOM      7  N   UNL     1     -11.465  -6.637  15.460  0.00  0.00    -0.292 N 
ATOM      8  N   UNL     1     -12.150  -5.056  13.941  0.00  0.00    -0.269 N 
ATOM     16  C   UNL     1     -12.395  -6.331  14.458  0.00  0.00    +0.304 C 
ATOM     35  H   UNL     1     -10.801  -5.920  15.736  0.00  0.00    +0.151 HD
ATOM     36  H   UNL     1     -11.368  -4.545  14.340  0.00  0.00    +0.156 HD
BRANCH   8  18
ATOM     18  C   UNL     1     -12.862  -4.382  12.921  0.00  0.00    +0.035 A 
ATOM     20  C   UNL     1     -14.133  -3.868  13.180  0.00  0.00    +0.023 A 
ATOM     21  C   UNL     1     -12.292  -4.232  11.656  0.00  0.00    +0.023 A 
ATOM     22  C   UNL     1     -14.265  -3.053  10.909  0.00  0.00    -0.045 A 
ATOM     24  C   UNL     1     -14.834  -3.203  12.173  0.00  0.00    +0.006 A 
ATOM     25  C   UNL     1     -12.994  -3.567  10.651  0.00  0.00    +0.006 A 
BRANCH  22  23
ATOM     23  C   UNL     1     -15.013  -2.344   9.832  0.00  0.00    +0.013 C 
ATOM     28  C   UNL     1     -14.344  -2.494   8.453  0.00  0.00    +0.012 C 
ATOM     29  C   UNL     1     -16.486  -2.787   9.749  0.00  0.00    +0.012 C 
ENDBRANCH  22  23
ENDBRANCH   8  18
ENDBRANCH  12   7
BRANCH  13   3
ATOM      3  O   UNL     1      -7.652 -10.325  16.831  0.00  0.00    -0.442 OA
BRANCH   3  17
ATOM      5  O   UNL     1      -5.663  -9.255  16.467  0.00  0.00    -0.226 OA
ATOM      9  N   UNL     1      -6.850 -10.268  14.723  0.00  0.00    -0.251 N 
ATOM     17  C   UNL     1      -6.618  -9.886  16.029  0.00  0.00    +0.405 C 
ATOM     37  H   UNL     1      -7.707 -10.791  14.554  0.00  0.00    +0.158 HD
BRANCH   9  19
ATOM     19  C   UNL     1      -6.046 -10.024  13.588  0.00  0.00    +0.036 A 
ATOM     26  C   UNL     1      -6.502  -9.176  12.578  0.00  0.00    +0.024 A 
ATOM     27  C   UNL     1      -4.795 -10.631  13.475  0.00  0.00    +0.024 A 
ATOM     30  C   UNL     1      -5.708  -8.936  11.457  0.00  0.00    +0.013 A 
ATOM     31  C   UNL     1      -4.000 -10.391  12.353  0.00  0.00    +0.013 A 
ATOM     32  C   UNL     1      -4.458  -9.543  11.345  0.00  0.00    +0.017 A 
BRANCH  32  33
ATOM      6  O   UNL     1      -2.396  -9.141  10.272  0.00  0.00    -0.292 OA
ATOM     33  C   UNL     1      -3.631  -9.293  10.176  0.00  0.00    +0.160 C 
ATOM     34  C   UNL     1      -4.262  -9.206   8.790  0.00  0.00    +0.091 C 
ENDBRANCH  32  33
ENDBRANCH   9  19
ENDBRANCH   3  17
ENDBRANCH  13   3
TORSDOF 7
ENDMDL
MODEL 2
REMARK VINA RESULT:      -7.2     20.692     23.637
REMARK  Name = 11884160
REMARK  10 active torsions:
REMARK  status: ('A' for Active; 'I' for Inactive)
REMARK    1  A    between atoms: O_3  and  C_13
REMARK    2  A    between atoms: O_3  and  C_17
REMARK    3  A    between atoms: N_7  and  C_12
REMARK    4  A    between atoms: N_8  and  C_18
REMARK    5  A    between atoms: N_9  and  C_19
REMARK    6  A    between atoms: C_22  and  C_23
REMARK    7  A    between atoms: C_23  and  C_28
REMARK    8  A    between atoms: C_23  and  C_29
REMARK    9  A    between atoms: C_32  and  C_33
REMARK   10  A    between atoms: C_33  and  C_34
REMARK                            x       y       z     vdW  Elec       q    Type
REMARK                         _______ _______ _______ _____ _____    ______ ____
ROOT
ATOM      1  O   UNL     1       4.624  11.988   3.311  0.00  0.00    -0.368 OA
ATOM      2  O   UNL     1       4.211  10.237   0.828  0.00  0.00    -0.368 OA
ATOM     10  C   UNL     1       3.512  10.288   2.089  0.00  0.00    +0.173 C 
ATOM     11  C   UNL     1       4.552  10.562   3.157  0.00  0.00    +0.192 C 
ATOM     12  C   UNL     1       2.615  11.502   2.137  0.00  0.00    +0.131 C 
ATOM     13  C   UNL     1       5.811  10.001   2.538  0.00  0.00    +0.235 C 
ATOM     14  C   UNL     1       3.583  12.602   2.536  0.00  0.00    +0.185 C 
ATOM     15  C   UNL     1       5.621  10.333   1.075  0.00  0.00    +0.207 C 
ENDROOT
BRANCH  12   7
ATOM      4  O   UNL     1       0.217   9.960   1.853  0.00  0.00    -0.252 OA
ATOM      7  N   UNL     1       1.570  11.342   3.120  0.00  0.00    -0.292 N 
ATOM      8  N   UNL     1      -0.406  10.598   4.024  0.00  0.00    -0.269 N 
ATOM     16  C   UNL     1       0.424  10.566   2.901  0.00  0.00    +0.304 C 
ATOM     35  H   UNL     1       1.702  11.758   4.037  0.00  0.00    +0.151 HD
ATOM     36  H   UNL     1      -0.085  11.152   4.813  0.00  0.00    +0.156 HD
BRANCH   8  18
ATOM     18  C   UNL     1      -1.650   9.948   4.201  0.00  0.00    +0.035 A 
ATOM     20  C   UNL     1      -1.790   8.962   5.178  0.00  0.00    +0.023 A 
ATOM     21  C   UNL     1      -2.738  10.294   3.399  0.00  0.00    +0.023 A 
ATOM     22  C   UNL     1      -4.104   8.668   4.550  0.00  0.00    -0.045 A 
ATOM     24  C   UNL     1      -3.017   8.322   5.352  0.00  0.00    +0.006 A 
ATOM     25  C   UNL     1      -3.964   9.654   3.573  0.00  0.00    +0.006 A 
BRANCH  22  23
ATOM     23  C   UNL     1      -5.416   7.984   4.735  0.00  0.00    +0.013 C 
ATOM     28  C   UNL     1      -6.441   8.376   3.653  0.00  0.00    +0.012 C 
ATOM     29  C   UNL     1      -5.278   6.451   4.793  0.00  0.00    +0.012 C 
ENDBRANCH  22  23
ENDBRANCH   8  18
ENDBRANCH  12   7
BRANCH  13   3
ATOM      3  O   UNL     1       6.994  10.564   3.060  0.00  0.00    -0.442 OA
BRANCH   3  17
ATOM      5  O   UNL     1       8.966   9.407   2.975  0.00  0.00    -0.226 OA
ATOM      9  N   UNL     1       7.505   9.214   4.794  0.00  0.00    -0.251 N 
ATOM     17  C   UNL     1       7.930   9.687   3.568  0.00  0.00    +0.405 C 
ATOM     37  H   UNL     1       6.608   9.564   5.124  0.00  0.00    +0.158 HD
BRANCH   9  19
ATOM     19  C   UNL     1       8.160   8.300   5.650  0.00  0.00    +0.036 A 
ATOM     26  C   UNL     1       8.761   8.752   6.824  0.00  0.00    +0.024 A 
ATOM     27  C   UNL     1       8.207   6.946   5.320  0.00  0.00    +0.024 A 
ATOM     30  C   UNL     1       9.410   7.851   7.668  0.00  0.00    +0.013 A 
ATOM     31  C   UNL     1       8.856   6.043   6.163  0.00  0.00    +0.013 A 
ATOM     32  C   UNL     1       9.456   6.497   7.338  0.00  0.00    +0.017 A 
BRANCH  32  33
ATOM      6  O   UNL     1      11.367   5.593   8.383  0.00  0.00    -0.292 OA
ATOM     33  C   UNL     1      10.132   5.557   8.218  0.00  0.00    +0.160 C 
ATOM     34  C   UNL     1       9.335   4.492   8.965  0.00  0.00    +0.091 C 
ENDBRANCH  32  33
ENDBRANCH   9  19
ENDBRANCH   3  17
ENDBRANCH  13   3
TORSDOF 7
ENDMDL
MODEL 3
REMARK VINA RESULT:      -7.0      6.197      8.260
REMARK  Name = 11884160
REMARK  10 active torsions:
REMARK  status: ('A' for Active; 'I' for Inactive)
REMARK    1  A    between atoms: O_3  and  C_13
REMARK    2  A    between atoms: O_3  and  C_17
REMARK    3  A    between atoms: N_7  and  C_12
REMARK    4  A    between atoms: N_8  and  C_18
REMARK    5  A    between atoms: N_9  and  C_19
REMARK    6  A    between atoms: C_22  and  C_23
REMARK    7  A    between atoms: C_23  and  C_28
REMARK    8  A    between atoms: C_23  and  C_29
REMARK    9  A    between atoms: C_32  and  C_33
REMARK   10  A    between atoms: C_33  and  C_34
REMARK                            x       y       z     vdW  Elec       q    Type
REMARK                         _______ _______ _______ _____ _____    ______ ____
ROOT
ATOM      1  O   UNL     1      -3.936 -12.228  14.543  0.00  0.00    -0.368 OA
ATOM      2  O   UNL     1      -2.257 -10.786  16.665  0.00  0.00    -0.368 OA
ATOM     10  C   UNL     1      -3.593 -10.544  16.177  0.00  0.00    +0.173 C 
ATOM     11  C   UNL     1      -3.579 -10.844  14.691  0.00  0.00    +0.192 C 
ATOM     12  C   UNL     1      -4.547 -11.570  16.744  0.00  0.00    +0.131 C 
ATOM     13  C   UNL     1      -2.135 -10.596  14.323  0.00  0.00    +0.235 C 
ATOM     14  C   UNL     1      -4.333 -12.755  15.818  0.00  0.00    +0.185 C 
ATOM     15  C   UNL     1      -1.403 -11.086  15.552  0.00  0.00    +0.207 C 
ENDROOT
BRANCH  12   7
ATOM      4  O   UNL     1      -6.477 -11.673  18.858  0.00  0.00    -0.252 OA
ATOM      7  N   UNL     1      -5.911 -11.101  16.691  0.00  0.00    -0.292 N 
ATOM      8  N   UNL     1      -8.040 -10.658  17.431  0.00  0.00    -0.269 N 
ATOM     16  C   UNL     1      -6.794 -11.189  17.775  0.00  0.00    +0.304 C 
ATOM     35  H   UNL     1      -6.226 -10.628  15.849  0.00  0.00    +0.151 HD
ATOM     36  H   UNL     1      -8.137 -10.297  16.486  0.00  0.00    +0.156 HD
BRANCH   8  18
ATOM     18  C   UNL     1      -9.195 -10.561  18.242  0.00  0.00    +0.035 A 
ATOM     20  C   UNL     1     -10.170  -9.606  17.955  0.00  0.00    +0.023 A 
ATOM     21  C   UNL     1      -9.358 -11.421  19.328  0.00  0.00    +0.023 A 
ATOM     22  C   UNL     1     -11.472 -10.370  19.842  0.00  0.00    -0.045 A 
ATOM     24  C   UNL     1     -11.309  -9.511  18.755  0.00  0.00    +0.006 A 
ATOM     25  C   UNL     1     -10.496 -11.326  20.127  0.00  0.00    +0.006 A 
BRANCH  22  23
ATOM     23  C   UNL     1     -12.689 -10.269  20.698  0.00  0.00    +0.013 C 
ATOM     28  C   UNL     1     -13.854  -9.559  19.983  0.00  0.00    +0.012 C 
ATOM     29  C   UNL     1     -13.155 -11.641  21.222  0.00  0.00    +0.012 C 
ENDBRANCH  22  23
ENDBRANCH   8  18
ENDBRANCH  12   7
BRANCH  13   3
ATOM      3  O   UNL     1      -1.727 -11.276  13.157  0.00  0.00    -0.442 OA
BRANCH   3  17
ATOM      5  O   UNL     1      -1.464  -9.719  11.501  0.00  0.00    -0.226 OA
ATOM      9  N   UNL     1      -3.111 -11.379  11.377  0.00  0.00    -0.251 N 
ATOM     17  C   UNL     1      -2.055 -10.694  11.949  0.00  0.00    +0.405 C 
ATOM     37  H   UNL     1      -3.471 -12.169  11.906  0.00  0.00    +0.158 HD
BRANCH   9  19
ATOM     19  C   UNL     1      -3.754 -11.116  10.148  0.00  0.00    +0.036 A 
ATOM     26  C   UNL     1      -4.106 -12.170   9.305  0.00  0.00    +0.024 A 
ATOM     27  C   UNL     1      -4.037  -9.802   9.775  0.00  0.00    +0.024 A 
ATOM     30  C   UNL     1      -4.740 -11.911   8.090  0.00  0.00    +0.013 A 
ATOM     31  C   UNL     1      -4.672  -9.542   8.559  0.00  0.00    +0.013 A 
ATOM     32  C   UNL     1      -5.023 -10.597   7.718  0.00  0.00    +0.017 A 
BRANCH  32  33
ATOM      6  O   UNL     1      -6.456  -9.357   6.314  0.00  0.00    -0.292 OA
ATOM     33  C   UNL     1      -5.684 -10.327   6.452  0.00  0.00    +0.160 C 
ATOM     34  C   UNL     1      -5.448 -11.237   5.251  0.00  0.00    +0.091 C 
ENDBRANCH  32  33
ENDBRANCH   9  19
ENDBRANCH   3  17
ENDBRANCH  13   3
TORSDOF 7
ENDMDL
MODEL 4
REMARK VINA RESULT:      -7.0      2.135      3.083
REMARK  Name = 11884160
REMARK  10 active torsions:
REMARK  status: ('A' for Active; 'I' for Inactive)
REMARK    1  A    between atoms: O_3  and  C_13
REMARK    2  A    between atoms: O_3  and  C_17
REMARK    3  A    between atoms: N_7  and  C_12
REMARK    4  A    between atoms: N_8  and  C_18
REMARK    5  A    between atoms: N_9  and  C_19
REMARK    6  A    between atoms: C_22  and  C_23
REMARK    7  A    between atoms: C_23  and  C_28
REMARK    8  A    between atoms: C_23  and  C_29
REMARK    9  A    between atoms: C_32  and  C_33
REMARK   10  A    between atoms: C_33  and  C_34
REMARK                            x       y       z     vdW  Elec       q    Type
REMARK                         _______ _______ _______ _____ _____    ______ ____
ROOT
ATOM      1  O   UNL     1     -11.612  -8.118  14.500  0.00  0.00    -0.368 OA
ATOM      2  O   UNL     1     -10.885  -6.747  17.144  0.00  0.00    -0.368 OA
ATOM     10  C   UNL     1     -10.810  -6.289  15.779  0.00  0.00    +0.173 C 
ATOM     11  C   UNL     1     -10.401  -7.482  14.937  0.00  0.00    +0.192 C 
ATOM     12  C   UNL     1     -12.190  -5.945  15.270  0.00  0.00    +0.131 C 
ATOM     13  C   UNL     1      -9.646  -8.337  15.929  0.00  0.00    +0.235 C 
ATOM     14  C   UNL     1     -12.736  -7.305  14.871  0.00  0.00    +0.185 C 
ATOM     15  C   UNL     1     -10.422  -8.104  17.205  0.00  0.00    +0.207 C 
ENDROOT
BRANCH  12   7
ATOM      4  O   UNL     1     -14.336  -5.259  13.500  0.00  0.00    -0.252 OA
ATOM      7  N   UNL     1     -12.123  -5.054  14.136  0.00  0.00    -0.292 N 
ATOM      8  N   UNL     1     -12.860  -3.879  12.305  0.00  0.00    -0.269 N 
ATOM     16  C   UNL     1     -13.224  -4.770  13.318  0.00  0.00    +0.304 C 
ATOM     35  H   UNL     1     -11.253  -4.559  13.962  0.00  0.00    +0.151 HD
ATOM     36  H   UNL     1     -11.892  -3.570  12.296  0.00  0.00    +0.156 HD
BRANCH   8  18
ATOM     18  C   UNL     1     -13.679  -3.349  11.280  0.00  0.00    +0.035 A 
ATOM     20  C   UNL     1     -14.863  -2.687  11.605  0.00  0.00    +0.023 A 
ATOM     21  C   UNL     1     -13.301  -3.489   9.944  0.00  0.00    +0.023 A 
ATOM     22  C   UNL     1     -15.293  -2.305   9.259  0.00  0.00    -0.045 A 
ATOM     24  C   UNL     1     -15.669  -2.165  10.594  0.00  0.00    +0.006 A 
ATOM     25  C   UNL     1     -14.108  -2.967   8.934  0.00  0.00    +0.006 A 
BRANCH  22  23
ATOM     23  C   UNL     1     -16.154  -1.748   8.177  0.00  0.00    +0.013 C 
ATOM     28  C   UNL     1     -16.557  -0.284   8.441  0.00  0.00    +0.012 C 
ATOM     29  C   UNL     1     -15.504  -1.868   6.786  0.00  0.00    +0.012 C 
ENDBRANCH  22  23
ENDBRANCH   8  18
ENDBRANCH  12   7
BRANCH  13   3
ATOM      3  O   UNL     1      -9.601  -9.701  15.576  0.00  0.00    -0.442 OA
BRANCH   3  17
ATOM      5  O   UNL     1      -8.353 -11.401  16.460  0.00  0.00    -0.226 OA
ATOM      9  N   UNL     1      -7.377  -9.687  15.200  0.00  0.00    -0.251 N 
ATOM     17  C   UNL     1      -8.415 -10.366  15.807  0.00  0.00    +0.405 C 
ATOM     37  H   UNL     1      -7.629  -8.838  14.698  0.00  0.00    +0.158 HD
BRANCH   9  19
ATOM     19  C   UNL     1      -6.005 -10.023  15.189  0.00  0.00    +0.036 A 
ATOM     26  C   UNL     1      -5.287 -10.062  16.384  0.00  0.00    +0.024 A 
ATOM     27  C   UNL     1      -5.367 -10.313  13.983  0.00  0.00    +0.024 A 
ATOM     30  C   UNL     1      -3.931 -10.392  16.373  0.00  0.00    +0.013 A 
ATOM     31  C   UNL     1      -4.011 -10.643  13.971  0.00  0.00    +0.013 A 
ATOM     32  C   UNL     1      -3.294 -10.683  15.167  0.00  0.00    +0.017 A 
BRANCH  32  33
ATOM      6  O   UNL     1      -1.480 -12.115  14.697  0.00  0.00    -0.292 OA
ATOM     33  C   UNL     1      -1.882 -11.027  15.156  0.00  0.00    +0.160 C 
ATOM     34  C   UNL     1      -0.848 -10.054  15.714  0.00  0.00    +0.091 C 
ENDBRANCH  32  33
ENDBRANCH   9  19
ENDBRANCH   3  17
ENDBRANCH  13   3
TORSDOF 7
ENDMDL
MODEL 5
REMARK VINA RESULT:      -6.7     29.800     32.949
REMARK  Name = 11884160
REMARK  10 active torsions:
REMARK  status: ('A' for Active; 'I' for Inactive)
REMARK    1  A    between atoms: O_3  and  C_13
REMARK    2  A    between atoms: O_3  and  C_17
REMARK    3  A    between atoms: N_7  and  C_12
REMARK    4  A    between atoms: N_8  and  C_18
REMARK    5  A    between atoms: N_9  and  C_19
REMARK    6  A    between atoms: C_22  and  C_23
REMARK    7  A    between atoms: C_23  and  C_28
REMARK    8  A    between atoms: C_23  and  C_29
REMARK    9  A    between atoms: C_32  and  C_33
REMARK   10  A    between atoms: C_33  and  C_34
REMARK                            x       y       z     vdW  Elec       q    Type
REMARK                         _______ _______ _______ _____ _____    ______ ____
ROOT
ATOM      1  O   UNL     1      21.279   4.978  22.720  0.00  0.00    -0.368 OA
ATOM      2  O   UNL     1      23.117   5.931  20.458  0.00  0.00    -0.368 OA
ATOM     10  C   UNL     1      21.818   5.305  20.434  0.00  0.00    +0.173 C 
ATOM     11  C   UNL     1      21.795   4.296  21.566  0.00  0.00    +0.192 C 
ATOM     12  C   UNL     1      20.752   6.304  20.819  0.00  0.00    +0.131 C 
ATOM     13  C   UNL     1      23.258   3.953  21.725  0.00  0.00    +0.235 C 
ATOM     14  C   UNL     1      20.825   6.285  22.336  0.00  0.00    +0.185 C 
ATOM     15  C   UNL     1      23.929   5.279  21.445  0.00  0.00    +0.207 C 
ENDROOT
BRANCH  12   7
ATOM      4  O   UNL     1      18.351   7.866  20.824  0.00  0.00    -0.252 OA
ATOM      7  N   UNL     1      19.451   5.889  20.351  0.00  0.00    -0.292 N 
ATOM      8  N   UNL     1      17.211   6.049  19.871  0.00  0.00    -0.269 N 
ATOM     16  C   UNL     1      18.323   6.718  20.389  0.00  0.00    +0.304 C 
ATOM     35  H   UNL     1      19.364   4.976  19.915  0.00  0.00    +0.151 HD
ATOM     36  H   UNL     1      17.360   5.095  19.552  0.00  0.00    +0.156 HD
BRANCH   8  18
ATOM     18  C   UNL     1      15.890   6.538  19.735  0.00  0.00    +0.035 A 
ATOM     20  C   UNL     1      15.019   6.505  20.824  0.00  0.00    +0.023 A 
ATOM     21  C   UNL     1      15.460   7.053  18.512  0.00  0.00    +0.023 A 
ATOM     22  C   UNL     1      13.286   7.502  19.467  0.00  0.00    -0.045 A 
ATOM     24  C   UNL     1      13.717   6.987  20.690  0.00  0.00    +0.006 A 
ATOM     25  C   UNL     1      14.158   7.535  18.378  0.00  0.00    +0.006 A 
BRANCH  22  23
ATOM     23  C   UNL     1      11.895   8.017  19.322  0.00  0.00    +0.013 C 
ATOM     28  C   UNL     1      11.576   9.142  20.326  0.00  0.00    +0.012 C 
ATOM     29  C   UNL     1      11.590   8.494  17.889  0.00  0.00    +0.012 C 
ENDBRANCH  22  23
ENDBRANCH   8  18
ENDBRANCH  12   7
BRANCH  13   3
ATOM      3  O   UNL     1      23.582   3.454  23.003  0.00  0.00    -0.442 OA
BRANCH   3  17
ATOM      5  O   UNL     1      23.878   1.294  22.310  0.00  0.00    -0.226 OA
ATOM      9  N   UNL     1      23.002   1.798  24.422  0.00  0.00    -0.251 N 
ATOM     17  C   UNL     1      23.517   2.086  23.173  0.00  0.00    +0.405 C 
ATOM     37  H   UNL     1      22.757   2.598  25.001  0.00  0.00    +0.158 HD
BRANCH   9  19
ATOM     19  C   UNL     1      22.769   0.529  24.996  0.00  0.00    +0.036 A 
ATOM     26  C   UNL     1      23.843  -0.309  25.297  0.00  0.00    +0.024 A 
ATOM     27  C   UNL     1      21.465   0.112  25.262  0.00  0.00    +0.024 A 
ATOM     30  C   UNL     1      23.613  -1.563  25.863  0.00  0.00    +0.013 A 
ATOM     31  C   UNL     1      21.234  -1.143  25.827  0.00  0.00    +0.013 A 
ATOM     32  C   UNL     1      22.308  -1.979  26.128  0.00  0.00    +0.017 A 
BRANCH  32  33
ATOM      6  O   UNL     1      21.152  -4.027  26.310  0.00  0.00    -0.292 OA
ATOM     33  C   UNL     1      22.069  -3.286  26.718  0.00  0.00    +0.160 C 
ATOM     34  C   UNL     1      22.942  -3.785  27.864  0.00  0.00    +0.091 C 
ENDBRANCH  32  33
ENDBRANCH   9  19
ENDBRANCH   3  17
ENDBRANCH  13   3
TORSDOF 7
ENDMDL
MODEL 6
REMARK VINA RESULT:      -6.6      3.034      3.419
REMARK  Name = 11884160
REMARK  10 active torsions:
REMARK  status: ('A' for Active; 'I' for Inactive)
REMARK    1  A    between atoms: O_3  and  C_13
REMARK    2  A    between atoms: O_3  and  C_17
REMARK    3  A    between atoms: N_7  and  C_12
REMARK    4  A    between atoms: N_8  and  C_18
REMARK    5  A    between atoms: N_9  and  C_19
REMARK    6  A    between atoms: C_22  and  C_23
REMARK    7  A    between atoms: C_23  and  C_28
REMARK    8  A    between atoms: C_23  and  C_29
REMARK    9  A    between atoms: C_32  and  C_33
REMARK   10  A    between atoms: C_33  and  C_34
REMARK                            x       y       z     vdW  Elec       q    Type
REMARK                         _______ _______ _______ _____ _____    ______ ____
ROOT
ATOM      1  O   UNL     1     -10.213 -10.922  17.171  0.00  0.00    -0.368 OA
ATOM      2  O   UNL     1     -11.962  -9.907  19.476  0.00  0.00    -0.368 OA
ATOM     10  C   UNL     1     -11.280  -9.208  18.414  0.00  0.00    +0.173 C 
ATOM     11  C   UNL     1      -9.969  -9.932  18.183  0.00  0.00    +0.192 C 
ATOM     12  C   UNL     1     -12.026  -9.386  17.112  0.00  0.00    +0.131 C 
ATOM     13  C   UNL     1      -9.703 -10.562  19.530  0.00  0.00    +0.235 C 
ATOM     14  C   UNL     1     -11.536 -10.745  16.644  0.00  0.00    +0.185 C 
ATOM     15  C   UNL     1     -11.095 -10.927  19.992  0.00  0.00    +0.207 C 
ENDROOT
BRANCH  12   7
ATOM      4  O   UNL     1     -13.748  -8.231  15.135  0.00  0.00    -0.252 OA
ATOM      7  N   UNL     1     -11.683  -8.350  16.167  0.00  0.00    -0.292 N 
ATOM      8  N   UNL     1     -11.977  -6.850  14.452  0.00  0.00    -0.269 N 
ATOM     16  C   UNL     1     -12.589  -7.838  15.229  0.00  0.00    +0.304 C 
ATOM     35  H   UNL     1     -10.761  -7.927  16.228  0.00  0.00    +0.151 HD
ATOM     36  H   UNL     1     -11.004  -6.645  14.660  0.00  0.00    +0.156 HD
BRANCH   8  18
ATOM     18  C   UNL     1     -12.550  -6.095  13.402  0.00  0.00    +0.035 A 
ATOM     20  C   UNL     1     -13.071  -4.827  13.658  0.00  0.00    +0.023 A 
ATOM     21  C   UNL     1     -12.592  -6.619  12.110  0.00  0.00    +0.023 A 
ATOM     22  C   UNL     1     -13.679  -4.606  11.330  0.00  0.00    -0.045 A 
ATOM     24  C   UNL     1     -13.635  -4.083  12.622  0.00  0.00    +0.006 A 
ATOM     25  C   UNL     1     -13.157  -5.875  11.074  0.00  0.00    +0.006 A 
BRANCH  22  23
ATOM     23  C   UNL     1     -14.282  -3.812  10.222  0.00  0.00    +0.013 C 
ATOM     28  C   UNL     1     -15.064  -2.588  10.734  0.00  0.00    +0.012 C 
ATOM     29  C   UNL     1     -13.238  -3.367   9.181  0.00  0.00    +0.012 C 
ENDBRANCH  22  23
ENDBRANCH   8  18
ENDBRANCH  12   7
BRANCH  13   3
ATOM      3  O   UNL     1      -8.852 -11.685  19.468  0.00  0.00    -0.442 OA
BRANCH   3  17
ATOM      5  O   UNL     1      -6.752 -11.037  20.102  0.00  0.00    -0.226 OA
ATOM      9  N   UNL     1      -7.218 -11.725  17.913  0.00  0.00    -0.251 N 
ATOM     17  C   UNL     1      -7.515 -11.442  19.232  0.00  0.00    +0.405 C 
ATOM     37  H   UNL     1      -7.992 -12.053  17.340  0.00  0.00    +0.158 HD
BRANCH   9  19
ATOM     19  C   UNL     1      -5.972 -11.615  17.258  0.00  0.00    +0.036 A 
ATOM     26  C   UNL     1      -5.303 -10.391  17.232  0.00  0.00    +0.024 A 
ATOM     27  C   UNL     1      -5.409 -12.729  16.636  0.00  0.00    +0.024 A 
ATOM     30  C   UNL     1      -4.073 -10.281  16.583  0.00  0.00    +0.013 A 
ATOM     31  C   UNL     1      -4.178 -12.621  15.987  0.00  0.00    +0.013 A 
ATOM     32  C   UNL     1      -3.511 -11.396  15.962  0.00  0.00    +0.017 A 
BRANCH  32  33
ATOM      6  O   UNL     1      -1.942 -11.999  14.307  0.00  0.00    -0.292 OA
ATOM     33  C   UNL     1      -2.228 -11.282  15.286  0.00  0.00    +0.160 C 
ATOM     34  C   UNL     1      -1.192 -10.272  15.768  0.00  0.00    +0.091 C 
ENDBRANCH  32  33
ENDBRANCH   9  19
ENDBRANCH   3  17
ENDBRANCH  13   3
TORSDOF 7
ENDMDL
MODEL 7
REMARK VINA RESULT:      -6.6      3.769     10.583
REMARK  Name = 11884160
REMARK  10 active torsions:
REMARK  status: ('A' for Active; 'I' for Inactive)
REMARK    1  A    between atoms: O_3  and  C_13
REMARK    2  A    between atoms: O_3  and  C_17
REMARK    3  A    between atoms: N_7  and  C_12
REMARK    4  A    between atoms: N_8  and  C_18
REMARK    5  A    between atoms: N_9  and  C_19
REMARK    6  A    between atoms: C_22  and  C_23
REMARK    7  A    between atoms: C_23  and  C_28
REMARK    8  A    between atoms: C_23  and  C_29
REMARK    9  A    between atoms: C_32  and  C_33
REMARK   10  A    between atoms: C_33  and  C_34
REMARK                            x       y       z     vdW  Elec       q    Type
REMARK                         _______ _______ _______ _____ _____    ______ ____
ROOT
ATOM      1  O   UNL     1      -8.378  -9.999   9.093  0.00  0.00    -0.368 OA
ATOM      2  O   UNL     1      -5.631  -9.498   7.826  0.00  0.00    -0.368 OA
ATOM     10  C   UNL     1      -6.211  -9.036   9.063  0.00  0.00    +0.173 C 
ATOM     11  C   UNL     1      -7.680  -8.780   8.791  0.00  0.00    +0.192 C 
ATOM     12  C   UNL     1      -6.221 -10.152  10.081  0.00  0.00    +0.131 C 
ATOM     13  C   UNL     1      -7.690  -8.482   7.310  0.00  0.00    +0.235 C 
ATOM     14  C   UNL     1      -7.465 -10.932   9.692  0.00  0.00    +0.185 C 
ATOM     15  C   UNL     1      -6.620  -9.415   6.790  0.00  0.00    +0.207 C 
ENDROOT
BRANCH  12   7
ATOM      4  O   UNL     1      -5.433 -11.479  12.495  0.00  0.00    -0.252 OA
ATOM      7  N   UNL     1      -6.325  -9.634  11.425  0.00  0.00    -0.292 N 
ATOM      8  N   UNL     1      -6.135  -9.600  13.714  0.00  0.00    -0.269 N 
ATOM     16  C   UNL     1      -5.914 -10.351  12.556  0.00  0.00    +0.304 C 
ATOM     35  H   UNL     1      -6.651  -8.680  11.551  0.00  0.00    +0.151 HD
ATOM     36  H   UNL     1      -6.545  -8.679  13.588  0.00  0.00    +0.156 HD
BRANCH   8  18
ATOM     18  C   UNL     1      -5.857  -9.967  15.052  0.00  0.00    +0.035 A 
ATOM     20  C   UNL     1      -4.554 -10.291  15.430  0.00  0.00    +0.023 A 
ATOM     21  C   UNL     1      -6.887 -10.003  15.992  0.00  0.00    +0.023 A 
ATOM     22  C   UNL     1      -5.311 -10.690  17.690  0.00  0.00    -0.045 A 
ATOM     24  C   UNL     1      -4.282 -10.652  16.749  0.00  0.00    +0.006 A 
ATOM     25  C   UNL     1      -6.614 -10.365  17.311  0.00  0.00    +0.006 A 
BRANCH  22  23
ATOM     23  C   UNL     1      -5.020 -11.077  19.100  0.00  0.00    +0.013 C 
ATOM     28  C   UNL     1      -6.289 -11.495  19.869  0.00  0.00    +0.012 C 
ATOM     29  C   UNL     1      -3.959 -12.189  19.199  0.00  0.00    +0.012 C 
ENDBRANCH  22  23
ENDBRANCH   8  18
ENDBRANCH  12   7
BRANCH  13   3
ATOM      3  O   UNL     1      -8.939  -8.714   6.698  0.00  0.00    -0.442 OA
BRANCH   3  17
ATOM      5  O   UNL     1     -11.033  -7.826   6.460  0.00  0.00    -0.226 OA
ATOM      9  N   UNL     1      -9.646  -7.238   8.252  0.00  0.00    -0.251 N 
ATOM     17  C   UNL     1      -9.985  -7.903   7.089  0.00  0.00    +0.405 C 
ATOM     37  H   UNL     1      -8.721  -7.435   8.627  0.00  0.00    +0.158 HD
BRANCH   9  19
ATOM     19  C   UNL     1     -10.424  -6.316   8.986  0.00  0.00    +0.036 A 
ATOM     26  C   UNL     1     -11.417  -6.774   9.852  0.00  0.00    +0.024 A 
ATOM     27  C   UNL     1     -10.202  -4.947   8.844  0.00  0.00    +0.024 A 
ATOM     30  C   UNL     1     -12.186  -5.864  10.576  0.00  0.00    +0.013 A 
ATOM     31  C   UNL     1     -10.972  -4.035   9.567  0.00  0.00    +0.013 A 
ATOM     32  C   UNL     1     -11.963  -4.494  10.433  0.00  0.00    +0.017 A 
BRANCH  32  33
ATOM      6  O   UNL     1     -12.355  -3.050  12.256  0.00  0.00    -0.292 OA
ATOM     33  C   UNL     1     -12.766  -3.545  11.188  0.00  0.00    +0.160 C 
ATOM     34  C   UNL     1     -14.145  -3.132  10.684  0.00  0.00    +0.091 C 
ENDBRANCH  32  33
ENDBRANCH   9  19
ENDBRANCH   3  17
ENDBRANCH  13   3
TORSDOF 7
ENDMDL
MODEL 8
REMARK VINA RESULT:      -6.5      2.546     10.605
REMARK  Name = 11884160
REMARK  10 active torsions:
REMARK  status: ('A' for Active; 'I' for Inactive)
REMARK    1  A    between atoms: O_3  and  C_13
REMARK    2  A    between atoms: O_3  and  C_17
REMARK    3  A    between atoms: N_7  and  C_12
REMARK    4  A    between atoms: N_8  and  C_18
REMARK    5  A    between atoms: N_9  and  C_19
REMARK    6  A    between atoms: C_22  and  C_23
REMARK    7  A    between atoms: C_23  and  C_28
REMARK    8  A    between atoms: C_23  and  C_29
REMARK    9  A    between atoms: C_32  and  C_33
REMARK   10  A    between atoms: C_33  and  C_34
REMARK                            x       y       z     vdW  Elec       q    Type
REMARK                         _______ _______ _______ _____ _____    ______ ____
ROOT
ATOM      1  O   UNL     1     -11.183  -6.140  16.113  0.00  0.00    -0.368 OA
ATOM      2  O   UNL     1     -12.402  -8.655  14.850  0.00  0.00    -0.368 OA
ATOM     10  C   UNL     1     -11.048  -8.159  14.877  0.00  0.00    +0.173 C 
ATOM     11  C   UNL     1     -11.130  -6.649  14.770  0.00  0.00    +0.192 C 
ATOM     12  C   UNL     1     -10.435  -8.393  16.238  0.00  0.00    +0.131 C 
ATOM     13  C   UNL     1     -12.438  -6.445  14.042  0.00  0.00    +0.235 C 
ATOM     14  C   UNL     1     -10.969  -7.217  17.037  0.00  0.00    +0.185 C 
ATOM     15  C   UNL     1     -13.293  -7.557  14.605  0.00  0.00    +0.207 C 
ENDROOT
BRANCH  12   7
ATOM      4  O   UNL     1      -8.726 -10.542  15.422  0.00  0.00    -0.252 OA
ATOM      7  N   UNL     1      -8.993  -8.372  16.174  0.00  0.00    -0.292 N 
ATOM      8  N   UNL     1      -6.867  -9.159  15.801  0.00  0.00    -0.269 N 
ATOM     16  C   UNL     1      -8.229  -9.472  15.761  0.00  0.00    +0.304 C 
ATOM     35  H   UNL     1      -8.513  -7.500  16.374  0.00  0.00    +0.151 HD
ATOM     36  H   UNL     1      -6.624  -8.221  16.109  0.00  0.00    +0.156 HD
BRANCH   8  18
ATOM     18  C   UNL     1      -5.776  -9.993  15.463  0.00  0.00    +0.035 A 
ATOM     20  C   UNL     1      -4.914 -10.452  16.459  0.00  0.00    +0.023 A 
ATOM     21  C   UNL     1      -5.562 -10.357  14.133  0.00  0.00    +0.023 A 
ATOM     22  C   UNL     1      -3.624 -11.638  14.796  0.00  0.00    -0.045 A 
ATOM     24  C   UNL     1      -3.838 -11.274  16.125  0.00  0.00    +0.006 A 
ATOM     25  C   UNL     1      -4.487 -11.179  13.800  0.00  0.00    +0.006 A 
BRANCH  22  23
ATOM     23  C   UNL     1      -2.474 -12.517  14.438  0.00  0.00    +0.013 C 
ATOM     28  C   UNL     1      -2.872 -14.003  14.356  0.00  0.00    +0.012 C 
ATOM     29  C   UNL     1      -1.790 -12.087  13.126  0.00  0.00    +0.012 C 
ENDBRANCH  22  23
ENDBRANCH   8  18
ENDBRANCH  12   7
BRANCH  13   3
ATOM      3  O   UNL     1     -13.009  -5.174  14.258  0.00  0.00    -0.442 OA
BRANCH   3  17
ATOM      5  O   UNL     1     -11.996  -3.509  13.062  0.00  0.00    -0.226 OA
ATOM      9  N   UNL     1     -14.069  -4.392  12.426  0.00  0.00    -0.251 N 
ATOM     17  C   UNL     1     -12.941  -4.274  13.215  0.00  0.00    +0.405 C 
ATOM     37  H   UNL     1     -14.749  -5.090  12.718  0.00  0.00    +0.158 HD
BRANCH   9  19
ATOM     19  C   UNL     1     -14.398  -3.661  11.263  0.00  0.00    +0.036 A 
ATOM     26  C   UNL     1     -15.368  -2.661  11.318  0.00  0.00    +0.024 A 
ATOM     27  C   UNL     1     -13.753  -3.941  10.058  0.00  0.00    +0.024 A 
ATOM     30  C   UNL     1     -15.694  -1.941  10.169  0.00  0.00    +0.013 A 
ATOM     31  C   UNL     1     -14.079  -3.221   8.908  0.00  0.00    +0.013 A 
ATOM     32  C   UNL     1     -15.049  -2.221   8.964  0.00  0.00    +0.017 A 
BRANCH  32  33
ATOM      6  O   UNL     1     -16.546  -1.478   7.299  0.00  0.00    -0.292 OA
ATOM     33  C   UNL     1     -15.389  -1.470   7.766  0.00  0.00    +0.160 C 
ATOM     34  C   UNL     1     -14.326  -0.649   7.045  0.00  0.00    +0.091 C 
ENDBRANCH  32  33
ENDBRANCH   9  19
ENDBRANCH   3  17
ENDBRANCH  13   3
TORSDOF 7
ENDMDL
MODEL 9
REMARK VINA RESULT:      -6.5     23.342     24.938
REMARK  Name = 11884160
REMARK  10 active torsions:
REMARK  status: ('A' for Active; 'I' for Inactive)
REMARK    1  A    between atoms: O_3  and  C_13
REMARK    2  A    between atoms: O_3  and  C_17
REMARK    3  A    between atoms: N_7  and  C_12
REMARK    4  A    between atoms: N_8  and  C_18
REMARK    5  A    between atoms: N_9  and  C_19
REMARK    6  A    between atoms: C_22  and  C_23
REMARK    7  A    between atoms: C_23  and  C_28
REMARK    8  A    between atoms: C_23  and  C_29
REMARK    9  A    between atoms: C_32  and  C_33
REMARK   10  A    between atoms: C_33  and  C_34
REMARK                            x       y       z     vdW  Elec       q    Type
REMARK                         _______ _______ _______ _____ _____    ______ ____
ROOT
ATOM      1  O   UNL     1       3.296  10.564   2.699  0.00  0.00    -0.368 OA
ATOM      2  O   UNL     1       4.928  11.665   0.348  0.00  0.00    -0.368 OA
ATOM     10  C   UNL     1       3.878  10.677   0.403  0.00  0.00    +0.173 C 
ATOM     11  C   UNL     1       4.073   9.900   1.690  0.00  0.00    +0.192 C 
ATOM     12  C   UNL     1       2.539  11.352   0.587  0.00  0.00    +0.131 C 
ATOM     13  C   UNL     1       5.556  10.047   1.938  0.00  0.00    +0.235 C 
ATOM     14  C   UNL     1       2.504  11.593   2.086  0.00  0.00    +0.185 C 
ATOM     15  C   UNL     1       5.823  11.453   1.450  0.00  0.00    +0.207 C 
ENDROOT
BRANCH  12   7
ATOM      4  O   UNL     1       0.053  12.170  -0.577  0.00  0.00    -0.252 OA
ATOM      7  N   UNL     1       1.458  10.492   0.169  0.00  0.00    -0.292 N 
ATOM      8  N   UNL     1      -0.589   9.916  -0.700  0.00  0.00    -0.269 N 
ATOM     16  C   UNL     1       0.270  10.975  -0.394  0.00  0.00    +0.304 C 
ATOM     35  H   UNL     1       1.590   9.487   0.226  0.00  0.00    +0.151 HD
ATOM     36  H   UNL     1      -0.255   8.981  -0.482  0.00  0.00    +0.156 HD
BRANCH   8  18
ATOM     18  C   UNL     1      -1.878   9.983  -1.278  0.00  0.00    +0.035 A 
ATOM     20  C   UNL     1      -2.041  10.502  -2.562  0.00  0.00    +0.023 A 
ATOM     21  C   UNL     1      -2.987   9.530  -0.562  0.00  0.00    +0.023 A 
ATOM     22  C   UNL     1      -4.422  10.116  -2.417  0.00  0.00    -0.045 A 
ATOM     24  C   UNL     1      -3.313  10.568  -3.131  0.00  0.00    +0.006 A 
ATOM     25  C   UNL     1      -4.258   9.596  -1.132  0.00  0.00    +0.006 A 
BRANCH  22  23
ATOM     23  C   UNL     1      -5.781  10.186  -3.024  0.00  0.00    +0.013 C 
ATOM     28  C   UNL     1      -6.902  10.053  -1.974  0.00  0.00    +0.012 C 
ATOM     29  C   UNL     1      -5.991  11.468  -3.851  0.00  0.00    +0.012 C 
ENDBRANCH  22  23
ENDBRANCH   8  18
ENDBRANCH  12   7
BRANCH  13   3
ATOM      3  O   UNL     1       5.920   9.877   3.289  0.00  0.00    -0.442 OA
BRANCH   3  17
ATOM      5  O   UNL     1       7.832   8.798   2.648  0.00  0.00    -0.226 OA
ATOM      9  N   UNL     1       7.221   8.980   4.900  0.00  0.00    -0.251 N 
ATOM     17  C   UNL     1       7.079   9.172   3.539  0.00  0.00    +0.405 C 
ATOM     37  H   UNL     1       6.485   9.367   5.487  0.00  0.00    +0.158 HD
BRANCH   9  19
ATOM     19  C   UNL     1       8.261   8.311   5.581  0.00  0.00    +0.036 A 
ATOM     26  C   UNL     1       9.267   9.044   6.212  0.00  0.00    +0.024 A 
ATOM     27  C   UNL     1       8.285   6.917   5.623  0.00  0.00    +0.024 A 
ATOM     30  C   UNL     1      10.295   8.383   6.884  0.00  0.00    +0.013 A 
ATOM     31  C   UNL     1       9.314   6.255   6.294  0.00  0.00    +0.013 A 
ATOM     32  C   UNL     1      10.318   6.989   6.925  0.00  0.00    +0.017 A 
BRANCH  32  33
ATOM      6  O   UNL     1      11.152   5.456   8.511  0.00  0.00    -0.292 OA
ATOM     33  C   UNL     1      11.390   6.300   7.625  0.00  0.00    +0.160 C 
ATOM     34  C   UNL     1      12.847   6.601   7.288  0.00  0.00    +0.091 C 
ENDBRANCH  32  33
ENDBRANCH   9  19
ENDBRANCH   3  17
ENDBRANCH  13   3
TORSDOF 7
ENDMDL
MODEL 10
REMARK VINA RESULT:      -6.4     27.305     30.434
REMARK  Name = 11884160
REMARK  10 active torsions:
REMARK  status: ('A' for Active; 'I' for Inactive)
REMARK    1  A    between atoms: O_3  and  C_13
REMARK    2  A    between atoms: O_3  and  C_17
REMARK    3  A    between atoms: N_7  and  C_12
REMARK    4  A    between atoms: N_8  and  C_18
REMARK    5  A    between atoms: N_9  and  C_19
REMARK    6  A    between atoms: C_22  and  C_23
REMARK    7  A    between atoms: C_23  and  C_28
REMARK    8  A    between atoms: C_23  and  C_29
REMARK    9  A    between atoms: C_32  and  C_33
REMARK   10  A    between atoms: C_33  and  C_34
REMARK                            x       y       z     vdW  Elec       q    Type
REMARK                         _______ _______ _______ _____ _____    ______ ____
ROOT
ATOM      1  O   UNL     1      13.717   7.498   6.803  0.00  0.00    -0.368 OA
ATOM      2  O   UNL     1      11.557   9.456   5.852  0.00  0.00    -0.368 OA
ATOM     10  C   UNL     1      12.121   8.281   5.234  0.00  0.00    +0.173 C 
ATOM     11  C   UNL     1      13.594   8.260   5.592  0.00  0.00    +0.192 C 
ATOM     12  C   UNL     1      11.572   7.035   5.889  0.00  0.00    +0.131 C 
ATOM     13  C   UNL     1      13.895   9.724   5.817  0.00  0.00    +0.235 C 
ATOM     14  C   UNL     1      12.448   6.908   7.123  0.00  0.00    +0.185 C 
ATOM     15  C   UNL     1      12.615  10.218   6.452  0.00  0.00    +0.207 C 
ENDROOT
BRANCH  12   7
ATOM      4  O   UNL     1      11.418   7.011   3.028  0.00  0.00    -0.252 OA
ATOM      7  N   UNL     1      11.710   5.886   5.027  0.00  0.00    -0.292 N 
ATOM      8  N   UNL     1      11.795   4.694   3.065  0.00  0.00    -0.269 N 
ATOM     16  C   UNL     1      11.621   5.960   3.631  0.00  0.00    +0.304 C 
ATOM     35  H   UNL     1      11.947   4.992   5.448  0.00  0.00    +0.151 HD
ATOM     36  H   UNL     1      11.953   3.925   3.709  0.00  0.00    +0.156 HD
BRANCH   8  18
ATOM     18  C   UNL     1      11.775   4.347   1.694  0.00  0.00    +0.035 A 
ATOM     20  C   UNL     1      10.689   4.712   0.897  0.00  0.00    +0.023 A 
ATOM     21  C   UNL     1      12.842   3.640   1.138  0.00  0.00    +0.023 A 
ATOM     22  C   UNL     1      11.737   3.663  -1.011  0.00  0.00    -0.045 A 
ATOM     24  C   UNL     1      10.671   4.370  -0.455  0.00  0.00    +0.006 A 
ATOM     25  C   UNL     1      12.823   3.298  -0.213  0.00  0.00    +0.006 A 
BRANCH  22  23
ATOM     23  C   UNL     1      11.718   3.296  -2.455  0.00  0.00    +0.013 C 
ATOM     28  C   UNL     1      10.979   1.969  -2.716  0.00  0.00    +0.012 C 
ATOM     29  C   UNL     1      11.121   4.408  -3.338  0.00  0.00    +0.012 C 
ENDBRANCH  22  23
ENDBRANCH   8  18
ENDBRANCH  12   7
BRANCH  13   3
ATOM      3  O   UNL     1      15.017   9.946   6.642  0.00  0.00    -0.442 OA
BRANCH   3  17
ATOM      5  O   UNL     1      16.602  10.929   5.318  0.00  0.00    -0.226 OA
ATOM      9  N   UNL     1      16.960   8.846   6.324  0.00  0.00    -0.251 N 
ATOM     17  C   UNL     1      16.248   9.990   6.021  0.00  0.00    +0.405 C 
ATOM     37  H   UNL     1      16.494   8.174   6.929  0.00  0.00    +0.158 HD
BRANCH   9  19
ATOM     19  C   UNL     1      18.259   8.490   5.897  0.00  0.00    +0.036 A 
ATOM     26  C   UNL     1      19.333   8.576   6.783  0.00  0.00    +0.024 A 
ATOM     27  C   UNL     1      18.468   8.054   4.589  0.00  0.00    +0.024 A 
ATOM     30  C   UNL     1      20.616   8.226   6.361  0.00  0.00    +0.013 A 
ATOM     31  C   UNL     1      19.751   7.704   4.166  0.00  0.00    +0.013 A 
ATOM     32  C   UNL     1      20.824   7.790   5.053  0.00  0.00    +0.017 A 
BRANCH  32  33
ATOM      6  O   UNL     1      22.355   6.454   3.855  0.00  0.00    -0.292 OA
ATOM     33  C   UNL     1      22.161   7.425   4.613  0.00  0.00    +0.160 C 
ATOM     34  C   UNL     1      23.370   8.231   5.077  0.00  0.00    +0.091 C 
ENDBRANCH  32  33
ENDBRANCH   9  19
ENDBRANCH   3  17
ENDBRANCH  13   3
TORSDOF 7
ENDMDL
