MODEL 1
REMARK VINA RESULT:      -8.0      0.000      0.000
REMARK  Name = 44716382
REMARK  8 active torsions:
REMARK  status: ('A' for Active; 'I' for Inactive)
REMARK    1  A    between atoms: N_4  and  C_14
REMARK    2  A    between atoms: N_6  and  C_21
REMARK    3  A    between atoms: N_7  and  C_34
REMARK    4  A    between atoms: N_7  and  C_35
REMARK    5  A    between atoms: N_7  and  C_36
REMARK    6  A    between atoms: C_9  and  C_14
REMARK    7  A    between atoms: C_11  and  C_21
REMARK    8  A    between atoms: C_28  and  C_29
REMARK                            x       y       z     vdW  Elec       q    Type
REMARK                         _______ _______ _______ _____ _____    ______ ____
ROOT
ATOM      3  N   UNL     1      11.697   7.349  20.175  0.00  0.00    -0.298 NA
ATOM      8  C   UNL     1      12.323   9.193  21.899  0.00  0.00    -0.003 C 
ATOM      9  C   UNL     1      11.910   9.819  20.548  0.00  0.00    +0.020 C 
ATOM     10  C   UNL     1      13.496   8.223  21.675  0.00  0.00    +0.024 C 
ATOM     11  C   UNL     1      13.035   7.067  20.760  0.00  0.00    +0.074 C 
ATOM     12  C   UNL     1      11.690   8.682  19.525  0.00  0.00    +0.089 C 
ATOM     13  C   UNL     1      11.126   8.355  22.388  0.00  0.00    +0.019 C 
ATOM     15  C   UNL     1      10.710   7.369  21.282  0.00  0.00    +0.085 C 
ENDROOT
BRANCH   9  14
ATOM     14  C   UNL     1      12.903  10.849  20.036  0.00  0.00    +0.089 C 
BRANCH  14   4
ATOM      1  O   UNL     1       9.179  14.465  23.342  0.00  0.00    -0.268 OA
ATOM      4  N   UNL     1      12.789  12.104  20.776  0.00  0.00    -0.301 NA
ATOM      5  N   UNL     1      11.443  14.094  22.875  0.00  0.00    -0.312 N 
ATOM     16  C   UNL     1      12.510  14.590  20.600  0.00  0.00    +0.024 C 
ATOM     17  C   UNL     1      13.877  13.655  22.405  0.00  0.00    +0.050 C 
ATOM     18  C   UNL     1      12.581  13.236  19.862  0.00  0.00    +0.089 C 
ATOM     19  C   UNL     1      13.962  12.316  21.636  0.00  0.00    +0.094 C 
ATOM     20  C   UNL     1      13.781  14.809  21.412  0.00  0.00    +0.017 C 
ATOM     22  C   UNL     1      11.301  14.688  21.539  0.00  0.00    +0.130 C 
ATOM     23  C   UNL     1      12.685  13.653  23.344  0.00  0.00    +0.026 A 
ATOM     24  C   UNL     1      12.813  13.214  24.609  0.00  0.00    +0.022 A 
ATOM     25  C   UNL     1      10.294  14.079  23.689  0.00  0.00    +0.251 A 
ATOM     26  C   UNL     1      11.679  13.170  25.489  0.00  0.00    +0.007 A 
ATOM     27  C   UNL     1      10.472  13.564  25.076  0.00  0.00    +0.070 A 
ENDBRANCH  14   4
ENDBRANCH   9  14
BRANCH  11  21
ATOM     21  C   UNL     1      14.081   6.735  19.693  0.00  0.00    +0.123 C 
BRANCH  21   6
ATOM      2  O   UNL     1      16.496   5.825  18.433  0.00  0.00    -0.270 OA
ATOM      6  N   UNL     1      15.422   6.775  20.254  0.00  0.00    -0.310 N 
ATOM     28  C   UNL     1      16.522   6.309  19.562  0.00  0.00    +0.244 C 
ATOM     37  H   UNL     1      15.503   7.101  21.211  0.00  0.00    +0.149 HD
BRANCH  28  29
ATOM     29  C   UNL     1      17.817   6.395  20.285  0.00  0.00    +0.037 A 
ATOM     30  C   UNL     1      18.847   5.505  19.979  0.00  0.00    +0.015 A 
ATOM     31  C   UNL     1      18.004   7.367  21.269  0.00  0.00    +0.015 A 
ATOM     32  C   UNL     1      20.062   5.585  20.659  0.00  0.00    +0.024 A 
ATOM     33  C   UNL     1      19.219   7.446  21.948  0.00  0.00    +0.024 A 
ATOM     34  C   UNL     1      20.249   6.556  21.643  0.00  0.00    +0.029 A 
BRANCH  34   7
ATOM      7  N   UNL     1      21.477   6.638  22.330  0.00  0.00    -0.336 N 
ATOM     35  C   UNL     1      22.060   7.928  22.641  0.00  0.00    +0.129 C 
ATOM     36  C   UNL     1      22.170   5.433  22.741  0.00  0.00    +0.129 C 
ENDBRANCH  34   7
ENDBRANCH  28  29
ENDBRANCH  21   6
ENDBRANCH  11  21
TORSDOF 6
ENDMDL
MODEL 2
REMARK VINA RESULT:      -7.8     27.697     30.677
REMARK  Name = 44716382
REMARK  8 active torsions:
REMARK  status: ('A' for Active; 'I' for Inactive)
REMARK    1  A    between atoms: N_4  and  C_14
REMARK    2  A    between atoms: N_6  and  C_21
REMARK    3  A    between atoms: N_7  and  C_34
REMARK    4  A    between atoms: N_7  and  C_35
REMARK    5  A    between atoms: N_7  and  C_36
REMARK    6  A    between atoms: C_9  and  C_14
REMARK    7  A    between atoms: C_11  and  C_21
REMARK    8  A    between atoms: C_28  and  C_29
REMARK                            x       y       z     vdW  Elec       q    Type
REMARK                         _______ _______ _______ _____ _____    ______ ____
ROOT
ATOM      3  N   UNL     1      -5.423  -9.261   9.983  0.00  0.00    -0.298 NA
ATOM      8  C   UNL     1      -3.559 -10.585  11.223  0.00  0.00    -0.003 C 
ATOM      9  C   UNL     1      -4.368 -11.514  10.290  0.00  0.00    +0.020 C 
ATOM     10  C   UNL     1      -4.514  -9.906  12.221  0.00  0.00    +0.024 C 
ATOM     11  C   UNL     1      -5.513  -9.017  11.447  0.00  0.00    +0.074 C 
ATOM     12  C   UNL     1      -5.545 -10.710   9.694  0.00  0.00    +0.089 C 
ATOM     13  C   UNL     1      -2.960  -9.475  10.339  0.00  0.00    +0.019 C 
ATOM     15  C   UNL     1      -4.086  -8.810   9.527  0.00  0.00    +0.085 C 
ENDROOT
BRANCH   9  14
ATOM     14  C   UNL     1      -4.846 -12.783  10.976  0.00  0.00    +0.089 C 
BRANCH  14   4
ATOM      1  O   UNL     1      -0.927 -10.426  15.094  0.00  0.00    -0.268 OA
ATOM      4  N   UNL     1      -4.094 -13.035  12.203  0.00  0.00    -0.301 NA
ATOM      5  N   UNL     1      -2.461 -12.172  14.803  0.00  0.00    -0.312 N 
ATOM     16  C   UNL     1      -2.074 -14.132  13.202  0.00  0.00    +0.024 C 
ATOM     17  C   UNL     1      -4.147 -14.017  14.501  0.00  0.00    +0.050 C 
ATOM     18  C   UNL     1      -2.871 -13.797  11.923  0.00  0.00    +0.089 C 
ATOM     19  C   UNL     1      -4.932 -13.712  13.204  0.00  0.00    +0.094 C 
ATOM     20  C   UNL     1      -2.952 -14.908  14.176  0.00  0.00    +0.017 C 
ATOM     22  C   UNL     1      -1.537 -12.880  13.908  0.00  0.00    +0.130 C 
ATOM     23  C   UNL     1      -3.694 -12.728  15.161  0.00  0.00    +0.026 A 
ATOM     24  C   UNL     1      -4.475 -12.114  16.067  0.00  0.00    +0.022 A 
ATOM     25  C   UNL     1      -2.005 -10.959  15.355  0.00  0.00    +0.251 A 
ATOM     26  C   UNL     1      -4.070 -10.872  16.664  0.00  0.00    +0.007 A 
ATOM     27  C   UNL     1      -2.910 -10.297  16.337  0.00  0.00    +0.070 A 
ENDBRANCH  14   4
ENDBRANCH   9  14
BRANCH  11  21
ATOM     21  C   UNL     1      -6.941  -9.172  11.978  0.00  0.00    +0.123 C 
BRANCH  21   6
ATOM      2  O   UNL     1      -9.220  -9.546  13.683  0.00  0.00    -0.270 OA
ATOM      6  N   UNL     1      -6.933  -9.684  13.338  0.00  0.00    -0.310 N 
ATOM     28  C   UNL     1      -8.091  -9.826  14.077  0.00  0.00    +0.244 C 
ATOM     37  H   UNL     1      -6.023  -9.870  13.748  0.00  0.00    +0.149 HD
BRANCH  28  29
ATOM     29  C   UNL     1      -7.910 -10.337  15.459  0.00  0.00    +0.037 A 
ATOM     30  C   UNL     1      -7.547  -9.463  16.484  0.00  0.00    +0.015 A 
ATOM     31  C   UNL     1      -8.105 -11.691  15.734  0.00  0.00    +0.015 A 
ATOM     32  C   UNL     1      -7.376  -9.943  17.783  0.00  0.00    +0.024 A 
ATOM     33  C   UNL     1      -7.934 -12.172  17.032  0.00  0.00    +0.024 A 
ATOM     34  C   UNL     1      -7.570 -11.298  18.057  0.00  0.00    +0.029 A 
BRANCH  34   7
ATOM      7  N   UNL     1      -7.398 -11.784  19.369  0.00  0.00    -0.336 N 
ATOM     35  C   UNL     1      -8.389 -12.658  19.964  0.00  0.00    +0.129 C 
ATOM     36  C   UNL     1      -6.224 -11.422  20.138  0.00  0.00    +0.129 C 
ENDBRANCH  34   7
ENDBRANCH  28  29
ENDBRANCH  21   6
ENDBRANCH  11  21
TORSDOF 6
ENDMDL
MODEL 3
REMARK VINA RESULT:      -7.7      2.630      3.330
REMARK  Name = 44716382
REMARK  8 active torsions:
REMARK  status: ('A' for Active; 'I' for Inactive)
REMARK    1  A    between atoms: N_4  and  C_14
REMARK    2  A    between atoms: N_6  and  C_21
REMARK    3  A    between atoms: N_7  and  C_34
REMARK    4  A    between atoms: N_7  and  C_35
REMARK    5  A    between atoms: N_7  and  C_36
REMARK    6  A    between atoms: C_9  and  C_14
REMARK    7  A    between atoms: C_11  and  C_21
REMARK    8  A    between atoms: C_28  and  C_29
REMARK                            x       y       z     vdW  Elec       q    Type
REMARK                         _______ _______ _______ _____ _____    ______ ____
ROOT
ATOM      3  N   UNL     1      12.321   8.675  19.289  0.00  0.00    -0.298 NA
ATOM      8  C   UNL     1      12.540   7.933  21.772  0.00  0.00    -0.003 C 
ATOM      9  C   UNL     1      13.107   9.357  21.570  0.00  0.00    +0.020 C 
ATOM     10  C   UNL     1      13.270   6.955  20.835  0.00  0.00    +0.024 C 
ATOM     11  C   UNL     1      12.993   7.351  19.367  0.00  0.00    +0.074 C 
ATOM     12  C   UNL     1      13.083   9.686  20.060  0.00  0.00    +0.089 C 
ATOM     13  C   UNL     1      11.065   7.972  21.330  0.00  0.00    +0.019 C 
ATOM     15  C   UNL     1      10.977   8.542  19.903  0.00  0.00    +0.085 C 
ENDROOT
BRANCH   9  14
ATOM     14  C   UNL     1      14.494   9.539  22.161  0.00  0.00    +0.089 C 
BRANCH  14   4
ATOM      1  O   UNL     1      14.905  11.291  28.047  0.00  0.00    -0.268 OA
ATOM      4  N   UNL     1      14.531  10.676  23.079  0.00  0.00    -0.301 NA
ATOM      5  N   UNL     1      15.146  12.104  25.864  0.00  0.00    -0.312 N 
ATOM     16  C   UNL     1      13.179  12.427  24.257  0.00  0.00    +0.024 C 
ATOM     17  C   UNL     1      15.452  12.958  23.515  0.00  0.00    +0.050 C 
ATOM     18  C   UNL     1      13.180  11.190  23.334  0.00  0.00    +0.089 C 
ATOM     19  C   UNL     1      15.422  11.731  22.574  0.00  0.00    +0.094 C 
ATOM     20  C   UNL     1      14.044  13.528  23.656  0.00  0.00    +0.017 C 
ATOM     22  C   UNL     1      13.691  12.111  25.669  0.00  0.00    +0.130 C 
ATOM     23  C   UNL     1      16.014  12.572  24.871  0.00  0.00    +0.026 A 
ATOM     24  C   UNL     1      17.334  12.660  25.113  0.00  0.00    +0.022 A 
ATOM     25  C   UNL     1      15.616  11.697  27.127  0.00  0.00    +0.251 A 
ATOM     26  C   UNL     1      17.877  12.256  26.379  0.00  0.00    +0.007 A 
ATOM     27  C   UNL     1      17.087  11.786  27.348  0.00  0.00    +0.070 A 
ENDBRANCH  14   4
ENDBRANCH   9  14
BRANCH  11  21
ATOM     21  C   UNL     1      14.262   7.288  18.513  0.00  0.00    +0.123 C 
BRANCH  21   6
ATOM      2  O   UNL     1      16.559   5.566  18.483  0.00  0.00    -0.270 OA
ATOM      6  N   UNL     1      15.449   7.410  19.342  0.00  0.00    -0.310 N 
ATOM     28  C   UNL     1      16.505   6.524  19.250  0.00  0.00    +0.244 C 
ATOM     37  H   UNL     1      15.439   8.142  20.045  0.00  0.00    +0.149 HD
BRANCH  28  29
ATOM     29  C   UNL     1      17.632   6.770  20.185  0.00  0.00    +0.037 A 
ATOM     30  C   UNL     1      18.725   5.904  20.203  0.00  0.00    +0.015 A 
ATOM     31  C   UNL     1      17.597   7.868  21.046  0.00  0.00    +0.015 A 
ATOM     32  C   UNL     1      19.783   6.134  21.082  0.00  0.00    +0.024 A 
ATOM     33  C   UNL     1      18.655   8.097  21.926  0.00  0.00    +0.024 A 
ATOM     34  C   UNL     1      19.749   7.231  21.943  0.00  0.00    +0.029 A 
BRANCH  34   7
ATOM      7  N   UNL     1      20.817   7.465  22.832  0.00  0.00    -0.336 N 
ATOM     35  C   UNL     1      20.566   7.683  24.243  0.00  0.00    +0.129 C 
ATOM     36  C   UNL     1      22.184   7.481  22.349  0.00  0.00    +0.129 C 
ENDBRANCH  34   7
ENDBRANCH  28  29
ENDBRANCH  21   6
ENDBRANCH  11  21
TORSDOF 6
ENDMDL
MODEL 4
REMARK VINA RESULT:      -7.6     17.890     21.932
REMARK  Name = 44716382
REMARK  8 active torsions:
REMARK  status: ('A' for Active; 'I' for Inactive)
REMARK    1  A    between atoms: N_4  and  C_14
REMARK    2  A    between atoms: N_6  and  C_21
REMARK    3  A    between atoms: N_7  and  C_34
REMARK    4  A    between atoms: N_7  and  C_35
REMARK    5  A    between atoms: N_7  and  C_36
REMARK    6  A    between atoms: C_9  and  C_14
REMARK    7  A    between atoms: C_11  and  C_21
REMARK    8  A    between atoms: C_28  and  C_29
REMARK                            x       y       z     vdW  Elec       q    Type
REMARK                         _______ _______ _______ _____ _____    ______ ____
ROOT
ATOM      3  N   UNL     1      10.274   7.166   6.567  0.00  0.00    -0.298 NA
ATOM      8  C   UNL     1       9.153   5.391   5.031  0.00  0.00    -0.003 C 
ATOM      9  C   UNL     1      10.228   6.189   4.259  0.00  0.00    +0.020 C 
ATOM     10  C   UNL     1       8.109   6.365   5.607  0.00  0.00    +0.024 C 
ATOM     11  C   UNL     1       8.795   7.307   6.622  0.00  0.00    +0.074 C 
ATOM     12  C   UNL     1      10.755   7.318   5.172  0.00  0.00    +0.089 C 
ATOM     13  C   UNL     1       9.863   4.726   6.226  0.00  0.00    +0.019 C 
ATOM     15  C   UNL     1      10.620   5.800   7.029  0.00  0.00    +0.085 C 
ENDROOT
BRANCH   9  14
ATOM     14  C   UNL     1       9.731   6.730   2.928  0.00  0.00    +0.089 C 
BRANCH  14   4
ATOM      1  O   UNL     1      15.142   6.602  -0.000  0.00  0.00    -0.268 OA
ATOM      4  N   UNL     1      10.482   6.159   1.813  0.00  0.00    -0.301 NA
ATOM      5  N   UNL     1      13.144   5.401   0.227  0.00  0.00    -0.312 N 
ATOM     16  C   UNL     1      10.891   6.236  -0.659  0.00  0.00    +0.024 C 
ATOM     17  C   UNL     1      11.014   4.091   0.516  0.00  0.00    +0.050 C 
ATOM     18  C   UNL     1      10.159   6.845   0.555  0.00  0.00    +0.089 C 
ATOM     19  C   UNL     1      10.252   4.711   1.710  0.00  0.00    +0.094 C 
ATOM     20  C   UNL     1      10.558   4.754  -0.781  0.00  0.00    +0.017 C 
ATOM     22  C   UNL     1      12.415   6.395  -0.571  0.00  0.00    +0.130 C 
ATOM     23  C   UNL     1      12.511   4.247   0.703  0.00  0.00    +0.026 A 
ATOM     24  C   UNL     1      13.223   3.298   1.336  0.00  0.00    +0.022 A 
ATOM     25  C   UNL     1      14.524   5.618   0.405  0.00  0.00    +0.251 A 
ATOM     26  C   UNL     1      14.633   3.460   1.554  0.00  0.00    +0.007 A 
ATOM     27  C   UNL     1      15.273   4.554   1.133  0.00  0.00    +0.070 A 
ENDBRANCH  14   4
ENDBRANCH   9  14
BRANCH  11  21
ATOM     21  C   UNL     1       8.339   8.758   6.448  0.00  0.00    +0.123 C 
BRANCH  21   6
ATOM      2  O   UNL     1       8.925  10.251   4.066  0.00  0.00    -0.270 OA
ATOM      6  N   UNL     1       7.488   8.895   5.277  0.00  0.00    -0.310 N 
ATOM     28  C   UNL     1       7.865   9.640   4.177  0.00  0.00    +0.244 C 
ATOM     37  H   UNL     1       6.569   8.470   5.333  0.00  0.00    +0.149 HD
BRANCH  28  29
ATOM     29  C   UNL     1       6.872   9.703   3.075  0.00  0.00    +0.037 A 
ATOM     30  C   UNL     1       5.549  10.054   3.347  0.00  0.00    +0.015 A 
ATOM     31  C   UNL     1       7.262   9.411   1.767  0.00  0.00    +0.015 A 
ATOM     32  C   UNL     1       4.617  10.112   2.312  0.00  0.00    +0.024 A 
ATOM     33  C   UNL     1       6.329   9.468   0.732  0.00  0.00    +0.024 A 
ATOM     34  C   UNL     1       5.006   9.819   1.004  0.00  0.00    +0.029 A 
BRANCH  34   7
ATOM      7  N   UNL     1       4.064   9.878  -0.043  0.00  0.00    -0.336 N 
ATOM     35  C   UNL     1       2.755  10.461   0.179  0.00  0.00    +0.129 C 
ATOM     36  C   UNL     1       4.393   9.363  -1.357  0.00  0.00    +0.129 C 
ENDBRANCH  34   7
ENDBRANCH  28  29
ENDBRANCH  21   6
ENDBRANCH  11  21
TORSDOF 6
ENDMDL
MODEL 5
REMARK VINA RESULT:      -7.5     26.600     30.703
REMARK  Name = 44716382
REMARK  8 active torsions:
REMARK  status: ('A' for Active; 'I' for Inactive)
REMARK    1  A    between atoms: N_4  and  C_14
REMARK    2  A    between atoms: N_6  and  C_21
REMARK    3  A    between atoms: N_7  and  C_34
REMARK    4  A    between atoms: N_7  and  C_35
REMARK    5  A    between atoms: N_7  and  C_36
REMARK    6  A    between atoms: C_9  and  C_14
REMARK    7  A    between atoms: C_11  and  C_21
REMARK    8  A    between atoms: C_28  and  C_29
REMARK                            x       y       z     vdW  Elec       q    Type
REMARK                         _______ _______ _______ _____ _____    ______ ____
ROOT
ATOM      3  N   UNL     1     -17.240   6.484  23.331  0.00  0.00    -0.298 NA
ATOM      8  C   UNL     1     -16.875   3.950  22.868  0.00  0.00    -0.003 C 
ATOM      9  C   UNL     1     -16.912   4.234  24.387  0.00  0.00    +0.020 C 
ATOM     10  C   UNL     1     -15.767   4.798  22.217  0.00  0.00    +0.024 C 
ATOM     11  C   UNL     1     -16.101   6.296  22.393  0.00  0.00    +0.074 C 
ATOM     12  C   UNL     1     -16.985   5.762  24.601  0.00  0.00    +0.089 C 
ATOM     13  C   UNL     1     -18.219   4.435  22.291  0.00  0.00    +0.019 C 
ATOM     15  C   UNL     1     -18.450   5.900  22.703  0.00  0.00    +0.085 C 
ENDROOT
BRANCH   9  14
ATOM     14  C   UNL     1     -15.744   3.617  25.140  0.00  0.00    +0.089 C 
BRANCH  14   4
ATOM      1  O   UNL     1     -14.743  -0.641  29.469  0.00  0.00    -0.268 OA
ATOM      4  N   UNL     1     -16.169   3.098  26.438  0.00  0.00    -0.301 NA
ATOM      5  N   UNL     1     -15.795   1.423  29.127  0.00  0.00    -0.312 N 
ATOM     16  C   UNL     1     -17.871   1.719  27.657  0.00  0.00    +0.024 C 
ATOM     17  C   UNL     1     -16.881   3.666  28.765  0.00  0.00    +0.050 C 
ATOM     18  C   UNL     1     -17.357   2.245  26.300  0.00  0.00    +0.089 C 
ATOM     19  C   UNL     1     -16.400   4.192  27.392  0.00  0.00    +0.094 C 
ATOM     20  C   UNL     1     -18.180   2.886  28.586  0.00  0.00    +0.017 C 
ATOM     22  C   UNL     1     -16.866   0.788  28.349  0.00  0.00    +0.130 C 
ATOM     23  C   UNL     1     -15.814   2.796  29.402  0.00  0.00    +0.026 A 
ATOM     24  C   UNL     1     -14.883   3.336  30.208  0.00  0.00    +0.022 A 
ATOM     25  C   UNL     1     -14.807   0.573  29.660  0.00  0.00    +0.251 A 
ATOM     26  C   UNL     1     -13.846   2.524  30.780  0.00  0.00    +0.007 A 
ATOM     27  C   UNL     1     -13.780   1.214  30.529  0.00  0.00    +0.070 A 
ENDBRANCH  14   4
ENDBRANCH   9  14
BRANCH  11  21
ATOM     21  C   UNL     1     -14.869   7.109  22.799  0.00  0.00    +0.123 C 
BRANCH  21   6
ATOM      2  O   UNL     1     -12.512   5.997  21.595  0.00  0.00    -0.270 OA
ATOM      6  N   UNL     1     -14.173   7.613  21.627  0.00  0.00    -0.310 N 
ATOM     28  C   UNL     1     -13.041   7.001  21.125  0.00  0.00    +0.244 C 
ATOM     37  H   UNL     1     -14.521   8.480  21.231  0.00  0.00    +0.149 HD
BRANCH  28  29
ATOM     29  C   UNL     1     -12.433   7.655  19.938  0.00  0.00    +0.037 A 
ATOM     30  C   UNL     1     -13.159   7.760  18.751  0.00  0.00    +0.015 A 
ATOM     31  C   UNL     1     -11.136   8.164  20.009  0.00  0.00    +0.015 A 
ATOM     32  C   UNL     1     -12.588   8.372  17.636  0.00  0.00    +0.024 A 
ATOM     33  C   UNL     1     -10.565   8.776  18.894  0.00  0.00    +0.024 A 
ATOM     34  C   UNL     1     -11.291   8.881  17.707  0.00  0.00    +0.029 A 
BRANCH  34   7
ATOM      7  N   UNL     1     -10.713   9.500  16.581  0.00  0.00    -0.336 N 
ATOM     35  C   UNL     1     -10.752   8.852  15.285  0.00  0.00    +0.129 C 
ATOM     36  C   UNL     1     -10.079  10.798  16.701  0.00  0.00    +0.129 C 
ENDBRANCH  34   7
ENDBRANCH  28  29
ENDBRANCH  21   6
ENDBRANCH  11  21
TORSDOF 6
ENDMDL
MODEL 6
REMARK VINA RESULT:      -7.5      3.593      7.529
REMARK  Name = 44716382
REMARK  8 active torsions:
REMARK  status: ('A' for Active; 'I' for Inactive)
REMARK    1  A    between atoms: N_4  and  C_14
REMARK    2  A    between atoms: N_6  and  C_21
REMARK    3  A    between atoms: N_7  and  C_34
REMARK    4  A    between atoms: N_7  and  C_35
REMARK    5  A    between atoms: N_7  and  C_36
REMARK    6  A    between atoms: C_9  and  C_14
REMARK    7  A    between atoms: C_11  and  C_21
REMARK    8  A    between atoms: C_28  and  C_29
REMARK                            x       y       z     vdW  Elec       q    Type
REMARK                         _______ _______ _______ _____ _____    ______ ____
ROOT
ATOM      3  N   UNL     1      11.938  12.386  23.596  0.00  0.00    -0.298 NA
ATOM      8  C   UNL     1      11.903  10.321  22.015  0.00  0.00    -0.003 C 
ATOM      9  C   UNL     1      13.205  10.356  22.847  0.00  0.00    +0.020 C 
ATOM     10  C   UNL     1      11.770  11.632  21.218  0.00  0.00    +0.024 C 
ATOM     11  C   UNL     1      11.650  12.817  22.203  0.00  0.00    +0.074 C 
ATOM     12  C   UNL     1      13.237  11.672  23.657  0.00  0.00    +0.089 C 
ATOM     13  C   UNL     1      10.733  10.276  23.016  0.00  0.00    +0.019 C 
ATOM     15  C   UNL     1      10.872  11.442  24.012  0.00  0.00    +0.085 C 
ENDROOT
BRANCH   9  14
ATOM     14  C   UNL     1      14.459  10.186  22.005  0.00  0.00    +0.089 C 
BRANCH  14   4
ATOM      1  O   UNL     1      10.532   8.210  17.698  0.00  0.00    -0.268 OA
ATOM      4  N   UNL     1      14.242   9.229  20.923  0.00  0.00    -0.301 NA
ATOM      5  N   UNL     1      12.794   8.134  18.299  0.00  0.00    -0.312 N 
ATOM     16  C   UNL     1      13.665   6.859  20.342  0.00  0.00    +0.024 C 
ATOM     17  C   UNL     1      15.233   8.099  18.926  0.00  0.00    +0.050 C 
ATOM     18  C   UNL     1      13.852   7.916  21.452  0.00  0.00    +0.089 C 
ATOM     19  C   UNL     1      15.429   9.131  20.061  0.00  0.00    +0.094 C 
ATOM     20  C   UNL     1      14.946   6.726  19.528  0.00  0.00    +0.017 C 
ATOM     22  C   UNL     1      12.508   7.197  19.393  0.00  0.00    +0.130 C 
ATOM     23  C   UNL     1      14.104   8.530  18.007  0.00  0.00    +0.026 A 
ATOM     24  C   UNL     1      14.354   9.301  16.934  0.00  0.00    +0.022 A 
ATOM     25  C   UNL     1      11.704   8.535  17.505  0.00  0.00    +0.251 A 
ATOM     26  C   UNL     1      13.286   9.747  16.085  0.00  0.00    +0.007 A 
ATOM     27  C   UNL     1      12.019   9.408  16.338  0.00  0.00    +0.070 A 
ENDBRANCH  14   4
ENDBRANCH   9  14
BRANCH  11  21
ATOM     21  C   UNL     1      12.512  14.005  21.769  0.00  0.00    +0.123 C 
BRANCH  21   6
ATOM      2  O   UNL     1      15.304  13.491  21.339  0.00  0.00    -0.270 OA
ATOM      6  N   UNL     1      13.159  13.736  20.495  0.00  0.00    -0.310 N 
ATOM     28  C   UNL     1      14.516  13.500  20.396  0.00  0.00    +0.244 C 
ATOM     37  H   UNL     1      12.575  13.796  19.668  0.00  0.00    +0.149 HD
BRANCH  28  29
ATOM     29  C   UNL     1      15.027  13.268  19.021  0.00  0.00    +0.037 A 
ATOM     30  C   UNL     1      14.166  13.378  17.929  0.00  0.00    +0.015 A 
ATOM     31  C   UNL     1      16.368  12.939  18.821  0.00  0.00    +0.015 A 
ATOM     32  C   UNL     1      14.645  13.159  16.638  0.00  0.00    +0.024 A 
ATOM     33  C   UNL     1      16.848  12.720  17.530  0.00  0.00    +0.024 A 
ATOM     34  C   UNL     1      15.987  12.830  16.438  0.00  0.00    +0.029 A 
BRANCH  34   7
ATOM      7  N   UNL     1      16.472  12.609  15.133  0.00  0.00    -0.336 N 
ATOM     35  C   UNL     1      16.279  11.327  14.485  0.00  0.00    +0.129 C 
ATOM     36  C   UNL     1      17.164  13.663  14.418  0.00  0.00    +0.129 C 
ENDBRANCH  34   7
ENDBRANCH  28  29
ENDBRANCH  21   6
ENDBRANCH  11  21
TORSDOF 6
ENDMDL
MODEL 7
REMARK VINA RESULT:      -7.3     27.945     30.733
REMARK  Name = 44716382
REMARK  8 active torsions:
REMARK  status: ('A' for Active; 'I' for Inactive)
REMARK    1  A    between atoms: N_4  and  C_14
REMARK    2  A    between atoms: N_6  and  C_21
REMARK    3  A    between atoms: N_7  and  C_34
REMARK    4  A    between atoms: N_7  and  C_35
REMARK    5  A    between atoms: N_7  and  C_36
REMARK    6  A    between atoms: C_9  and  C_14
REMARK    7  A    between atoms: C_11  and  C_21
REMARK    8  A    between atoms: C_28  and  C_29
REMARK                            x       y       z     vdW  Elec       q    Type
REMARK                         _______ _______ _______ _____ _____    ______ ____
ROOT
ATOM      3  N   UNL     1      -4.023 -11.942  17.682  0.00  0.00    -0.298 NA
ATOM      8  C   UNL     1      -6.250 -10.694  17.185  0.00  0.00    -0.003 C 
ATOM      9  C   UNL     1      -6.272 -12.119  16.589  0.00  0.00    +0.020 C 
ATOM     10  C   UNL     1      -5.044  -9.922  16.620  0.00  0.00    +0.024 C 
ATOM     11  C   UNL     1      -3.739 -10.621  17.062  0.00  0.00    +0.074 C 
ATOM     12  C   UNL     1      -4.879 -12.758  16.787  0.00  0.00    +0.089 C 
ATOM     13  C   UNL     1      -6.023 -10.847  18.702  0.00  0.00    +0.019 C 
ATOM     15  C   UNL     1      -4.768 -11.704  18.943  0.00  0.00    +0.085 C 
ENDROOT
BRANCH   9  14
ATOM     14  C   UNL     1      -6.701 -12.152  15.132  0.00  0.00    +0.089 C 
BRANCH  14   4
ATOM      1  O   UNL     1     -12.035 -10.795  17.885  0.00  0.00    -0.268 OA
ATOM      4  N   UNL     1      -8.031 -11.570  14.960  0.00  0.00    -0.301 NA
ATOM      5  N   UNL     1     -10.760 -10.280  15.989  0.00  0.00    -0.312 N 
ATOM     16  C   UNL     1     -10.349 -11.935  14.078  0.00  0.00    +0.024 C 
ATOM     17  C   UNL     1      -9.361  -9.696  13.979  0.00  0.00    +0.050 C 
ATOM     18  C   UNL     1      -8.947 -12.529  14.328  0.00  0.00    +0.089 C 
ATOM     19  C   UNL     1      -7.960 -10.313  14.201  0.00  0.00    +0.094 C 
ATOM     20  C   UNL     1     -10.239 -10.682  13.217  0.00  0.00    +0.017 C 
ATOM     22  C   UNL     1     -11.080 -11.578  15.379  0.00  0.00    +0.130 C 
ATOM     23  C   UNL     1      -9.994  -9.327  15.309  0.00  0.00    +0.026 A 
ATOM     24  C   UNL     1      -9.806  -8.107  15.839  0.00  0.00    +0.022 A 
ATOM     25  C   UNL     1     -11.340 -10.008  17.243  0.00  0.00    +0.251 A 
ATOM     26  C   UNL     1     -10.367  -7.767  17.117  0.00  0.00    +0.007 A 
ATOM     27  C   UNL     1     -11.090  -8.652  17.808  0.00  0.00    +0.070 A 
ENDBRANCH  14   4
ENDBRANCH   9  14
BRANCH  11  21
ATOM     21  C   UNL     1      -2.730 -10.719  15.914  0.00  0.00    +0.123 C 
BRANCH  21   6
ATOM      2  O   UNL     1      -1.769 -11.429  13.303  0.00  0.00    -0.270 OA
ATOM      6  N   UNL     1      -3.365 -10.413  14.643  0.00  0.00    -0.310 N 
ATOM     28  C   UNL     1      -2.818 -10.802  13.436  0.00  0.00    +0.244 C 
ATOM     37  H   UNL     1      -4.200  -9.838  14.679  0.00  0.00    +0.149 HD
BRANCH  28  29
ATOM     29  C   UNL     1      -3.574 -10.389  12.227  0.00  0.00    +0.037 A 
ATOM     30  C   UNL     1      -4.969 -10.385  12.244  0.00  0.00    +0.015 A 
ATOM     31  C   UNL     1      -2.890 -10.004  11.073  0.00  0.00    +0.015 A 
ATOM     32  C   UNL     1      -5.679  -9.998  11.108  0.00  0.00    +0.024 A 
ATOM     33  C   UNL     1      -3.600  -9.617   9.937  0.00  0.00    +0.024 A 
ATOM     34  C   UNL     1      -4.995  -9.613   9.954  0.00  0.00    +0.029 A 
BRANCH  34   7
ATOM      7  N   UNL     1      -5.712  -9.222   8.806  0.00  0.00    -0.336 N 
ATOM     35  C   UNL     1      -6.758  -8.222   8.898  0.00  0.00    +0.129 C 
ATOM     36  C   UNL     1      -5.409  -9.807   7.515  0.00  0.00    +0.129 C 
ENDBRANCH  34   7
ENDBRANCH  28  29
ENDBRANCH  21   6
ENDBRANCH  11  21
TORSDOF 6
ENDMDL
MODEL 8
REMARK VINA RESULT:      -7.3     28.688     32.034
REMARK  Name = 44716382
REMARK  8 active torsions:
REMARK  status: ('A' for Active; 'I' for Inactive)
REMARK    1  A    between atoms: N_4  and  C_14
REMARK    2  A    between atoms: N_6  and  C_21
REMARK    3  A    between atoms: N_7  and  C_34
REMARK    4  A    between atoms: N_7  and  C_35
REMARK    5  A    between atoms: N_7  and  C_36
REMARK    6  A    between atoms: C_9  and  C_14
REMARK    7  A    between atoms: C_11  and  C_21
REMARK    8  A    between atoms: C_28  and  C_29
REMARK                            x       y       z     vdW  Elec       q    Type
REMARK                         _______ _______ _______ _____ _____    ______ ____
ROOT
ATOM      3  N   UNL     1      -5.246 -10.555  18.109  0.00  0.00    -0.298 NA
ATOM      8  C   UNL     1      -5.811 -12.655  16.683  0.00  0.00    -0.003 C 
ATOM      9  C   UNL     1      -4.998 -11.632  15.859  0.00  0.00    +0.020 C 
ATOM     10  C   UNL     1      -7.091 -11.984  17.213  0.00  0.00    +0.024 C 
ATOM     11  C   UNL     1      -6.706 -10.833  18.169  0.00  0.00    +0.074 C 
ATOM     12  C   UNL     1      -4.817 -10.351  16.705  0.00  0.00    +0.089 C 
ATOM     13  C   UNL     1      -4.952 -13.027  17.907  0.00  0.00    +0.019 C 
ATOM     15  C   UNL     1      -4.533 -11.741  18.643  0.00  0.00    +0.085 C 
ENDROOT
BRANCH   9  14
ATOM     14  C   UNL     1      -5.617 -11.326  14.505  0.00  0.00    +0.089 C 
BRANCH  14   4
ATOM      1  O   UNL     1      -4.724 -12.618   8.555  0.00  0.00    -0.268 OA
ATOM      4  N   UNL     1      -4.630 -11.446  13.435  0.00  0.00    -0.301 NA
ATOM      5  N   UNL     1      -3.694 -11.588  10.389  0.00  0.00    -0.312 N 
ATOM     16  C   UNL     1      -2.835 -12.877  12.428  0.00  0.00    +0.024 C 
ATOM     17  C   UNL     1      -2.615 -10.438  12.352  0.00  0.00    +0.050 C 
ATOM     18  C   UNL     1      -3.926 -12.732  13.510  0.00  0.00    +0.089 C 
ATOM     19  C   UNL     1      -3.689 -10.316  13.458  0.00  0.00    +0.094 C 
ATOM     20  C   UNL     1      -1.833 -11.735  12.541  0.00  0.00    +0.017 C 
ATOM     22  C   UNL     1      -3.411 -12.890  11.006  0.00  0.00    +0.130 C 
ATOM     23  C   UNL     1      -3.261 -10.395  10.979  0.00  0.00    +0.026 A 
ATOM     24  C   UNL     1      -3.434  -9.224  10.343  0.00  0.00    +0.022 A 
ATOM     25  C   UNL     1      -4.333 -11.605   9.134  0.00  0.00    +0.251 A 
ATOM     26  C   UNL     1      -4.082  -9.172   9.063  0.00  0.00    +0.007 A 
ATOM     27  C   UNL     1      -4.528 -10.284   8.472  0.00  0.00    +0.070 A 
ENDBRANCH  14   4
ENDBRANCH   9  14
BRANCH  11  21
ATOM     21  C   UNL     1      -7.550  -9.580  17.919  0.00  0.00    +0.123 C 
BRANCH  21   6
ATOM      2  O   UNL     1     -10.097  -9.235  16.641  0.00  0.00    -0.270 OA
ATOM      6  N   UNL     1      -8.857  -9.706  18.541  0.00  0.00    -0.310 N 
ATOM     28  C   UNL     1     -10.029  -9.519  17.834  0.00  0.00    +0.244 C 
ATOM     37  H   UNL     1      -8.870  -9.873  19.542  0.00  0.00    +0.149 HD
BRANCH  28  29
ATOM     29  C   UNL     1     -11.281  -9.657  18.620  0.00  0.00    +0.037 A 
ATOM     30  C   UNL     1     -11.219  -9.921  19.989  0.00  0.00    +0.015 A 
ATOM     31  C   UNL     1     -12.519  -9.522  17.991  0.00  0.00    +0.015 A 
ATOM     32  C   UNL     1     -12.395 -10.052  20.727  0.00  0.00    +0.024 A 
ATOM     33  C   UNL     1     -13.695  -9.653  18.729  0.00  0.00    +0.024 A 
ATOM     34  C   UNL     1     -13.633  -9.917  20.098  0.00  0.00    +0.029 A 
BRANCH  34   7
ATOM      7  N   UNL     1     -14.822 -10.049  20.844  0.00  0.00    -0.336 N 
ATOM     35  C   UNL     1     -15.156 -11.309  21.478  0.00  0.00    +0.129 C 
ATOM     36  C   UNL     1     -15.723  -8.923  20.994  0.00  0.00    +0.129 C 
ENDBRANCH  34   7
ENDBRANCH  28  29
ENDBRANCH  21   6
ENDBRANCH  11  21
TORSDOF 6
ENDMDL
MODEL 9
REMARK VINA RESULT:      -7.3     27.327     31.244
REMARK  Name = 44716382
REMARK  8 active torsions:
REMARK  status: ('A' for Active; 'I' for Inactive)
REMARK    1  A    between atoms: N_4  and  C_14
REMARK    2  A    between atoms: N_6  and  C_21
REMARK    3  A    between atoms: N_7  and  C_34
REMARK    4  A    between atoms: N_7  and  C_35
REMARK    5  A    between atoms: N_7  and  C_36
REMARK    6  A    between atoms: C_9  and  C_14
REMARK    7  A    between atoms: C_11  and  C_21
REMARK    8  A    between atoms: C_28  and  C_29
REMARK                            x       y       z     vdW  Elec       q    Type
REMARK                         _______ _______ _______ _____ _____    ______ ____
ROOT
ATOM      3  N   UNL     1     -10.306  -9.495  15.197  0.00  0.00    -0.298 NA
ATOM      8  C   UNL     1     -12.696  -8.508  15.478  0.00  0.00    -0.003 C 
ATOM      9  C   UNL     1     -11.947  -7.817  14.316  0.00  0.00    +0.020 C 
ATOM     10  C   UNL     1     -11.879  -8.359  16.774  0.00  0.00    +0.024 C 
ATOM     11  C   UNL     1     -10.524  -9.084  16.609  0.00  0.00    +0.074 C 
ATOM     12  C   UNL     1     -10.493  -8.338  14.289  0.00  0.00    +0.089 C 
ATOM     13  C   UNL     1     -12.749 -10.012  15.144  0.00  0.00    +0.019 C 
ATOM     15  C   UNL     1     -11.324 -10.518  14.856  0.00  0.00    +0.085 C 
ENDROOT
BRANCH   9  14
ATOM     14  C   UNL     1     -11.998  -6.300  14.389  0.00  0.00    +0.089 C 
BRANCH  14   4
ATOM      1  O   UNL     1      -9.902  -4.167   9.011  0.00  0.00    -0.268 OA
ATOM      4  N   UNL     1     -12.365  -5.722  13.099  0.00  0.00    -0.301 NA
ATOM      5  N   UNL     1     -11.854  -4.937  10.049  0.00  0.00    -0.312 N 
ATOM     16  C   UNL     1     -13.074  -3.642  11.891  0.00  0.00    +0.024 C 
ATOM     17  C   UNL     1     -13.938  -5.814  11.159  0.00  0.00    +0.050 C 
ATOM     18  C   UNL     1     -12.629  -4.282  13.223  0.00  0.00    +0.089 C 
ATOM     19  C   UNL     1     -13.512  -6.430  12.512  0.00  0.00    +0.094 C 
ATOM     20  C   UNL     1     -14.315  -4.349  11.361  0.00  0.00    +0.017 C 
ATOM     22  C   UNL     1     -11.979  -3.692  10.817  0.00  0.00    +0.130 C 
ATOM     23  C   UNL     1     -12.820  -5.946  10.141  0.00  0.00    +0.026 A 
ATOM     24  C   UNL     1     -12.744  -7.029   9.347  0.00  0.00    +0.022 A 
ATOM     25  C   UNL     1     -10.774  -5.024   9.150  0.00  0.00    +0.251 A 
ATOM     26  C   UNL     1     -11.665  -7.180   8.412  0.00  0.00    +0.007 A 
ATOM     27  C   UNL     1     -10.712  -6.250   8.305  0.00  0.00    +0.070 A 
ENDBRANCH  14   4
ENDBRANCH   9  14
BRANCH  11  21
ATOM     21  C   UNL     1      -9.364  -8.252  17.161  0.00  0.00    +0.123 C 
BRANCH  21   6
ATOM      2  O   UNL     1      -7.751 -10.180  18.550  0.00  0.00    -0.270 OA
ATOM      6  N   UNL     1      -8.087  -8.792  16.724  0.00  0.00    -0.310 N 
ATOM     28  C   UNL     1      -7.388  -9.720  17.470  0.00  0.00    +0.244 C 
ATOM     37  H   UNL     1      -7.698  -8.403  15.872  0.00  0.00    +0.149 HD
BRANCH  28  29
ATOM     29  C   UNL     1      -6.087 -10.153  16.898  0.00  0.00    +0.037 A 
ATOM     30  C   UNL     1      -5.860 -10.051  15.525  0.00  0.00    +0.015 A 
ATOM     31  C   UNL     1      -5.092 -10.661  17.733  0.00  0.00    +0.015 A 
ATOM     32  C   UNL     1      -4.640 -10.458  14.987  0.00  0.00    +0.024 A 
ATOM     33  C   UNL     1      -3.871 -11.068  17.196  0.00  0.00    +0.024 A 
ATOM     34  C   UNL     1      -3.644 -10.966  15.823  0.00  0.00    +0.029 A 
BRANCH  34   7
ATOM      7  N   UNL     1      -2.410 -11.378  15.281  0.00  0.00    -0.336 N 
ATOM     35  C   UNL     1      -1.188 -10.675  15.619  0.00  0.00    +0.129 C 
ATOM     36  C   UNL     1      -2.344 -12.514  14.383  0.00  0.00    +0.129 C 
ENDBRANCH  34   7
ENDBRANCH  28  29
ENDBRANCH  21   6
ENDBRANCH  11  21
TORSDOF 6
ENDMDL
MODEL 10
REMARK VINA RESULT:      -7.1     17.928     21.868
REMARK  Name = 44716382
REMARK  8 active torsions:
REMARK  status: ('A' for Active; 'I' for Inactive)
REMARK    1  A    between atoms: N_4  and  C_14
REMARK    2  A    between atoms: N_6  and  C_21
REMARK    3  A    between atoms: N_7  and  C_34
REMARK    4  A    between atoms: N_7  and  C_35
REMARK    5  A    between atoms: N_7  and  C_36
REMARK    6  A    between atoms: C_9  and  C_14
REMARK    7  A    between atoms: C_11  and  C_21
REMARK    8  A    between atoms: C_28  and  C_29
REMARK                            x       y       z     vdW  Elec       q    Type
REMARK                         _______ _______ _______ _____ _____    ______ ____
ROOT
ATOM      3  N   UNL     1      10.311   6.862   7.104  0.00  0.00    -0.298 NA
ATOM      8  C   UNL     1       9.300   5.170   5.406  0.00  0.00    -0.003 C 
ATOM      9  C   UNL     1      10.508   5.913   4.792  0.00  0.00    +0.020 C 
ATOM     10  C   UNL     1       8.247   6.196   5.861  0.00  0.00    +0.024 C 
ATOM     11  C   UNL     1       8.847   7.086   6.972  0.00  0.00    +0.074 C 
ATOM     12  C   UNL     1      10.975   7.001   5.785  0.00  0.00    +0.089 C 
ATOM     13  C   UNL     1       9.813   4.453   6.670  0.00  0.00    +0.019 C 
ATOM     15  C   UNL     1      10.519   5.473   7.582  0.00  0.00    +0.085 C 
ENDROOT
BRANCH   9  14
ATOM     14  C   UNL     1      10.217   6.496   3.419  0.00  0.00    +0.089 C 
BRANCH  14   4
ATOM      1  O   UNL     1      10.382   3.762  -2.092  0.00  0.00    -0.268 OA
ATOM      4  N   UNL     1      11.074   5.896   2.399  0.00  0.00    -0.301 NA
ATOM      5  N   UNL     1      11.751   4.860  -0.541  0.00  0.00    -0.312 N 
ATOM     16  C   UNL     1      12.382   3.864   1.732  0.00  0.00    +0.024 C 
ATOM     17  C   UNL     1      13.205   6.085   1.109  0.00  0.00    +0.050 C 
ATOM     18  C   UNL     1      11.433   4.518   2.758  0.00  0.00    +0.089 C 
ATOM     19  C   UNL     1      12.269   6.719   2.163  0.00  0.00    +0.094 C 
ATOM     20  C   UNL     1      13.646   4.703   1.581  0.00  0.00    +0.017 C 
ATOM     22  C   UNL     1      11.734   3.694   0.352  0.00  0.00    +0.130 C 
ATOM     23  C   UNL     1      12.507   5.997  -0.236  0.00  0.00    +0.026 A 
ATOM     24  C   UNL     1      12.596   7.007  -1.119  0.00  0.00    +0.022 A 
ATOM     25  C   UNL     1      11.051   4.739  -1.757  0.00  0.00    +0.251 A 
ATOM     26  C   UNL     1      11.903   6.948  -2.375  0.00  0.00    +0.007 A 
ATOM     27  C   UNL     1      11.155   5.889  -2.699  0.00  0.00    +0.070 A 
ENDBRANCH  14   4
ENDBRANCH   9  14
BRANCH  11  21
ATOM     21  C   UNL     1       8.499   8.563   6.767  0.00  0.00    +0.123 C 
BRANCH  21   6
ATOM      2  O   UNL     1       9.364  10.058   4.473  0.00  0.00    -0.270 OA
ATOM      6  N   UNL     1       7.765   8.753   5.526  0.00  0.00    -0.310 N 
ATOM     28  C   UNL     1       8.272   9.494   4.478  0.00  0.00    +0.244 C 
ATOM     37  H   UNL     1       6.826   8.369   5.491  0.00  0.00    +0.149 HD
BRANCH  28  29
ATOM     29  C   UNL     1       7.388   9.615   3.291  0.00  0.00    +0.037 A 
ATOM     30  C   UNL     1       6.058  10.007   3.449  0.00  0.00    +0.015 A 
ATOM     31  C   UNL     1       7.886   9.337   2.018  0.00  0.00    +0.015 A 
ATOM     32  C   UNL     1       5.227  10.119   2.335  0.00  0.00    +0.024 A 
ATOM     33  C   UNL     1       7.055   9.449   0.904  0.00  0.00    +0.024 A 
ATOM     34  C   UNL     1       5.725   9.841   1.062  0.00  0.00    +0.029 A 
BRANCH  34   7
ATOM      7  N   UNL     1       4.886   9.955  -0.065  0.00  0.00    -0.336 N 
ATOM     35  C   UNL     1       5.448  10.209  -1.377  0.00  0.00    +0.129 C 
ATOM     36  C   UNL     1       3.450   9.811   0.071  0.00  0.00    +0.129 C 
ENDBRANCH  34   7
ENDBRANCH  28  29
ENDBRANCH  21   6
ENDBRANCH  11  21
TORSDOF 6
ENDMDL
