MODEL 1
REMARK VINA RESULT:      -6.8      0.000      0.000
REMARK  Name = 28961385
REMARK  8 active torsions:
REMARK  status: ('A' for Active; 'I' for Inactive)
REMARK    1  A    between atoms: O_3  and  C_12
REMARK    2  A    between atoms: O_4  and  C_19
REMARK    3  A    between atoms: N_6  and  C_10
REMARK    4  A    between atoms: N_7  and  C_20
REMARK    5  A    between atoms: N_8  and  C_16
REMARK    6  A    between atoms: N_9  and  C_27
REMARK    7  A    between atoms: C_11  and  C_16
REMARK    8  A    between atoms: C_13  and  C_19
REMARK                            x       y       z     vdW  Elec       q    Type
REMARK                         _______ _______ _______ _____ _____    ______ ____
ROOT
ATOM      2  O   UNL     1      20.142   7.931  20.880  0.00  0.00    -0.365 OA
ATOM     10  C   UNL     1      21.709   6.412  21.831  0.00  0.00    +0.118 C 
ATOM     11  C   UNL     1      20.765   6.648  20.644  0.00  0.00    +0.155 C 
ATOM     12  C   UNL     1      21.078   7.239  22.941  0.00  0.00    +0.165 C 
ATOM     13  C   UNL     1      20.589   8.445  22.149  0.00  0.00    +0.174 C 
ENDROOT
BRANCH  10   6
ATOM      6  N   UNL     1      21.980   5.026  22.168  0.00  0.00    -0.292 NA
ATOM      7  N   UNL     1      23.613   2.759  22.768  0.00  0.00    -0.327 N 
ATOM     14  C   UNL     1      22.779   4.386  21.115  0.00  0.00    +0.104 C 
ATOM     15  C   UNL     1      22.686   4.937  23.452  0.00  0.00    +0.104 C 
ATOM     17  C   UNL     1      23.023   2.908  21.432  0.00  0.00    +0.120 C 
ATOM     18  C   UNL     1      22.928   3.478  23.848  0.00  0.00    +0.120 C 
BRANCH   7  20
ATOM     20  C   UNL     1      24.308   1.578  23.052  0.00  0.00    +0.030 A 
ATOM     22  C   UNL     1      24.184   0.982  24.307  0.00  0.00    +0.023 A 
ATOM     23  C   UNL     1      25.123   0.998  22.080  0.00  0.00    +0.023 A 
ATOM     24  C   UNL     1      24.877  -0.195  24.590  0.00  0.00    +0.002 A 
ATOM     25  C   UNL     1      25.816  -0.180  22.365  0.00  0.00    +0.002 A 
ATOM     26  C   UNL     1      25.693  -0.775  23.620  0.00  0.00    +0.000 A 
ENDBRANCH   7  20
ENDBRANCH  10   6
BRANCH  12   3
ATOM      3  O   UNL     1      19.981   6.559  23.537  0.00  0.00    -0.388 OA
ATOM     33  H   UNL     1      19.167   7.001  23.244  0.00  0.00    +0.210 HD
ENDBRANCH  12   3
BRANCH  11  16
ATOM     16  C   UNL     1      19.646   5.632  20.448  0.00  0.00    +0.139 C 
BRANCH  16   8
ATOM      5  O   UNL     1      17.421   5.736  18.647  0.00  0.00    -0.253 OA
ATOM      8  N   UNL     1      18.365   6.221  20.702  0.00  0.00    -0.297 N 
ATOM      9  N   UNL     1      16.193   6.876  20.290  0.00  0.00    -0.269 N 
ATOM     21  C   UNL     1      17.318   6.234  19.765  0.00  0.00    +0.304 C 
ATOM     34  H   UNL     1      18.203   6.640  21.612  0.00  0.00    +0.150 HD
ATOM     36  H   UNL     1      16.274   7.234  21.239  0.00  0.00    +0.156 HD
BRANCH   9  27
ATOM      1 CL   UNL     1      13.581   8.728  16.276  0.00  0.00    -0.083 Cl
ATOM     27  C   UNL     1      14.944   7.092  19.662  0.00  0.00    +0.036 A 
ATOM     28  C   UNL     1      14.885   7.730  18.423  0.00  0.00    +0.043 A 
ATOM     29  C   UNL     1      13.770   6.666  20.283  0.00  0.00    +0.023 A 
ATOM     30  C   UNL     1      13.653   7.942  17.805  0.00  0.00    +0.043 A 
ATOM     31  C   UNL     1      12.538   6.878  19.665  0.00  0.00    +0.003 A 
ATOM     32  C   UNL     1      12.479   7.515  18.425  0.00  0.00    +0.020 A 
ENDBRANCH   9  27
ENDBRANCH  16   8
ENDBRANCH  11  16
BRANCH  13  19
ATOM     19  C   UNL     1      19.465   9.237  22.793  0.00  0.00    +0.190 C 
BRANCH  19   4
ATOM      4  O   UNL     1      18.223   8.684  22.387  0.00  0.00    -0.392 OA
ATOM     35  H   UNL     1      17.529   9.307  22.659  0.00  0.00    +0.210 HD
ENDBRANCH  19   4
ENDBRANCH  13  19
TORSDOF 8
ENDMDL
MODEL 2
REMARK VINA RESULT:      -6.7      2.099      2.382
REMARK  Name = 28961385
REMARK  8 active torsions:
REMARK  status: ('A' for Active; 'I' for Inactive)
REMARK    1  A    between atoms: O_3  and  C_12
REMARK    2  A    between atoms: O_4  and  C_19
REMARK    3  A    between atoms: N_6  and  C_10
REMARK    4  A    between atoms: N_7  and  C_20
REMARK    5  A    between atoms: N_8  and  C_16
REMARK    6  A    between atoms: N_9  and  C_27
REMARK    7  A    between atoms: C_11  and  C_16
REMARK    8  A    between atoms: C_13  and  C_19
REMARK                            x       y       z     vdW  Elec       q    Type
REMARK                         _______ _______ _______ _____ _____    ______ ____
ROOT
ATOM      2  O   UNL     1      18.579   8.399  20.848  0.00  0.00    -0.365 OA
ATOM     10  C   UNL     1      20.464   7.051  21.392  0.00  0.00    +0.118 C 
ATOM     11  C   UNL     1      19.119   7.073  20.653  0.00  0.00    +0.155 C 
ATOM     12  C   UNL     1      20.282   8.112  22.466  0.00  0.00    +0.165 C 
ATOM     13  C   UNL     1      19.464   9.146  21.704  0.00  0.00    +0.174 C 
ENDROOT
BRANCH  10   6
ATOM      6  N   UNL     1      20.912   5.755  21.870  0.00  0.00    -0.292 NA
ATOM      7  N   UNL     1      22.748   3.592  22.208  0.00  0.00    -0.327 N 
ATOM     14  C   UNL     1      21.238   4.874  20.741  0.00  0.00    +0.104 C 
ATOM     15  C   UNL     1      22.084   5.904  22.740  0.00  0.00    +0.104 C 
ATOM     17  C   UNL     1      21.657   3.486  21.232  0.00  0.00    +0.120 C 
ATOM     18  C   UNL     1      22.533   4.550  23.298  0.00  0.00    +0.120 C 
BRANCH   7  20
ATOM     20  C   UNL     1      23.550   2.466  22.423  0.00  0.00    +0.030 A 
ATOM     22  C   UNL     1      23.752   1.992  23.719  0.00  0.00    +0.023 A 
ATOM     23  C   UNL     1      24.149   1.820  21.342  0.00  0.00    +0.023 A 
ATOM     24  C   UNL     1      24.553   0.869  23.933  0.00  0.00    +0.002 A 
ATOM     25  C   UNL     1      24.949   0.697  21.557  0.00  0.00    +0.002 A 
ATOM     26  C   UNL     1      25.151   0.223  22.853  0.00  0.00    +0.000 A 
ENDBRANCH   7  20
ENDBRANCH  10   6
BRANCH  12   3
ATOM      3  O   UNL     1      19.542   7.611  23.572  0.00  0.00    -0.388 OA
ATOM     33  H   UNL     1      19.313   6.686  23.377  0.00  0.00    +0.210 HD
ENDBRANCH  12   3
BRANCH  11  16
ATOM     16  C   UNL     1      18.063   6.081  21.126  0.00  0.00    +0.139 C 
BRANCH  16   8
ATOM      5  O   UNL     1      15.406   6.425  20.111  0.00  0.00    -0.253 OA
ATOM      8  N   UNL     1      16.978   6.754  21.776  0.00  0.00    -0.297 N 
ATOM      9  N   UNL     1      14.849   7.586  22.073  0.00  0.00    -0.269 N 
ATOM     21  C   UNL     1      15.697   6.883  21.213  0.00  0.00    +0.304 C 
ATOM     34  H   UNL     1      17.142   7.147  22.697  0.00  0.00    +0.150 HD
ATOM     36  H   UNL     1      15.250   7.899  22.954  0.00  0.00    +0.156 HD
BRANCH   9  27
ATOM      1 CL   UNL     1      11.196  11.195  22.025  0.00  0.00    -0.083 Cl
ATOM     27  C   UNL     1      13.490   7.921  21.869  0.00  0.00    +0.036 A 
ATOM     28  C   UNL     1      13.063   9.239  22.030  0.00  0.00    +0.043 A 
ATOM     29  C   UNL     1      12.575   6.931  21.508  0.00  0.00    +0.023 A 
ATOM     30  C   UNL     1      11.723   9.568  21.828  0.00  0.00    +0.043 A 
ATOM     31  C   UNL     1      11.235   7.260  21.306  0.00  0.00    +0.003 A 
ATOM     32  C   UNL     1      10.808   8.579  21.466  0.00  0.00    +0.020 A 
ENDBRANCH   9  27
ENDBRANCH  16   8
ENDBRANCH  11  16
BRANCH  13  19
ATOM     19  C   UNL     1      18.647  10.095  22.562  0.00  0.00    +0.190 C 
BRANCH  19   4
ATOM      4  O   UNL     1      19.405  10.446  23.709  0.00  0.00    -0.392 OA
ATOM     35  H   UNL     1      20.182   9.862  23.730  0.00  0.00    +0.210 HD
ENDBRANCH  19   4
ENDBRANCH  13  19
TORSDOF 8
ENDMDL
MODEL 3
REMARK VINA RESULT:      -6.6     28.693     33.758
REMARK  Name = 28961385
REMARK  8 active torsions:
REMARK  status: ('A' for Active; 'I' for Inactive)
REMARK    1  A    between atoms: O_3  and  C_12
REMARK    2  A    between atoms: O_4  and  C_19
REMARK    3  A    between atoms: N_6  and  C_10
REMARK    4  A    between atoms: N_7  and  C_20
REMARK    5  A    between atoms: N_8  and  C_16
REMARK    6  A    between atoms: N_9  and  C_27
REMARK    7  A    between atoms: C_11  and  C_16
REMARK    8  A    between atoms: C_13  and  C_19
REMARK                            x       y       z     vdW  Elec       q    Type
REMARK                         _______ _______ _______ _____ _____    ______ ____
ROOT
ATOM      2  O   UNL     1      -9.142 -11.576  17.187  0.00  0.00    -0.365 OA
ATOM     10  C   UNL     1     -10.358  -9.583  16.723  0.00  0.00    +0.118 C 
ATOM     11  C   UNL     1      -9.949 -10.952  16.163  0.00  0.00    +0.155 C 
ATOM     12  C   UNL     1      -9.245  -9.270  17.711  0.00  0.00    +0.165 C 
ATOM     13  C   UNL     1      -8.981 -10.656  18.284  0.00  0.00    +0.174 C 
ENDROOT
BRANCH  10   6
ATOM      6  N   UNL     1     -10.627  -8.545  15.743  0.00  0.00    -0.292 NA
ATOM      7  N   UNL     1     -12.154  -6.493  14.472  0.00  0.00    -0.327 N 
ATOM     14  C   UNL     1     -11.808  -8.887  14.941  0.00  0.00    +0.104 C 
ATOM     15  C   UNL     1     -10.833  -7.252  16.407  0.00  0.00    +0.104 C 
ATOM     17  C   UNL     1     -12.069  -7.827  13.867  0.00  0.00    +0.120 C 
ATOM     18  C   UNL     1     -11.061  -6.137  15.383  0.00  0.00    +0.120 C 
BRANCH   7  20
ATOM     20  C   UNL     1     -12.815  -5.488  13.756  0.00  0.00    +0.030 A 
ATOM     22  C   UNL     1     -12.081  -4.557  13.022  0.00  0.00    +0.023 A 
ATOM     23  C   UNL     1     -14.209  -5.418  13.778  0.00  0.00    +0.023 A 
ATOM     24  C   UNL     1     -12.740  -3.555  12.310  0.00  0.00    +0.002 A 
ATOM     25  C   UNL     1     -14.867  -4.416  13.064  0.00  0.00    +0.002 A 
ATOM     26  C   UNL     1     -14.132  -3.484  12.331  0.00  0.00    +0.000 A 
ENDBRANCH   7  20
ENDBRANCH  10   6
BRANCH  12   3
ATOM      3  O   UNL     1      -8.087  -8.777  17.051  0.00  0.00    -0.388 OA
ATOM     33  H   UNL     1      -8.294  -7.888  16.719  0.00  0.00    +0.210 HD
ENDBRANCH  12   3
BRANCH  11  16
ATOM     16  C   UNL     1      -9.127 -10.949  14.880  0.00  0.00    +0.139 C 
BRANCH  16   8
ATOM      5  O   UNL     1      -6.671  -9.571  14.349  0.00  0.00    -0.253 OA
ATOM      8  N   UNL     1      -7.801 -11.438  15.116  0.00  0.00    -0.297 N 
ATOM      9  N   UNL     1      -5.496 -11.433  15.163  0.00  0.00    -0.269 N 
ATOM     21  C   UNL     1      -6.640 -10.702  14.829  0.00  0.00    +0.304 C 
ATOM     34  H   UNL     1      -7.698 -12.362  15.524  0.00  0.00    +0.150 HD
ATOM     36  H   UNL     1      -5.645 -12.361  15.552  0.00  0.00    +0.156 HD
BRANCH   9  27
ATOM      1 CL   UNL     1      -1.603 -10.175  12.059  0.00  0.00    -0.083 Cl
ATOM     27  C   UNL     1      -4.144 -11.041  15.025  0.00  0.00    +0.036 A 
ATOM     28  C   UNL     1      -3.604 -10.827  13.757  0.00  0.00    +0.043 A 
ATOM     29  C   UNL     1      -3.351 -10.869  16.160  0.00  0.00    +0.023 A 
ATOM     30  C   UNL     1      -2.270 -10.440  13.624  0.00  0.00    +0.043 A 
ATOM     31  C   UNL     1      -2.017 -10.482  16.026  0.00  0.00    +0.003 A 
ATOM     32  C   UNL     1      -1.477 -10.266  14.758  0.00  0.00    +0.020 A 
ENDBRANCH   9  27
ENDBRANCH  16   8
ENDBRANCH  11  16
BRANCH  13  19
ATOM     19  C   UNL     1      -7.611 -10.856  18.907  0.00  0.00    +0.190 C 
BRANCH  19   4
ATOM      4  O   UNL     1      -6.719 -11.335  17.912  0.00  0.00    -0.392 OA
ATOM     35  H   UNL     1      -7.119 -11.137  17.049  0.00  0.00    +0.210 HD
ENDBRANCH  19   4
ENDBRANCH  13  19
TORSDOF 8
ENDMDL
MODEL 4
REMARK VINA RESULT:      -6.5     29.456     32.220
REMARK  Name = 28961385
REMARK  8 active torsions:
REMARK  status: ('A' for Active; 'I' for Inactive)
REMARK    1  A    between atoms: O_3  and  C_12
REMARK    2  A    between atoms: O_4  and  C_19
REMARK    3  A    between atoms: N_6  and  C_10
REMARK    4  A    between atoms: N_7  and  C_20
REMARK    5  A    between atoms: N_8  and  C_16
REMARK    6  A    between atoms: N_9  and  C_27
REMARK    7  A    between atoms: C_11  and  C_16
REMARK    8  A    between atoms: C_13  and  C_19
REMARK                            x       y       z     vdW  Elec       q    Type
REMARK                         _______ _______ _______ _____ _____    ______ ____
ROOT
ATOM      2  O   UNL     1      -1.780 -12.551  12.997  0.00  0.00    -0.365 OA
ATOM     10  C   UNL     1      -3.245 -11.959  11.217  0.00  0.00    +0.118 C 
ATOM     11  C   UNL     1      -2.240 -11.410  12.239  0.00  0.00    +0.155 C 
ATOM     12  C   UNL     1      -3.759 -13.224  11.888  0.00  0.00    +0.165 C 
ATOM     13  C   UNL     1      -2.484 -13.726  12.554  0.00  0.00    +0.174 C 
ENDROOT
BRANCH  10   6
ATOM      6  N   UNL     1      -4.272 -11.036  10.768  0.00  0.00    -0.292 NA
ATOM      7  N   UNL     1      -5.856  -9.628   8.852  0.00  0.00    -0.327 N 
ATOM     14  C   UNL     1      -3.681  -9.960   9.963  0.00  0.00    +0.104 C 
ATOM     15  C   UNL     1      -5.293 -11.742   9.985  0.00  0.00    +0.104 C 
ATOM     17  C   UNL     1      -4.746  -8.949   9.530  0.00  0.00    +0.120 C 
ATOM     18  C   UNL     1      -6.412 -10.790   9.553  0.00  0.00    +0.120 C 
BRANCH   7  20
ATOM     20  C   UNL     1      -6.676  -8.869   8.009  0.00  0.00    +0.030 A 
ATOM     22  C   UNL     1      -7.407  -7.800   8.527  0.00  0.00    +0.023 A 
ATOM     23  C   UNL     1      -6.762  -9.181   6.652  0.00  0.00    +0.023 A 
ATOM     24  C   UNL     1      -8.224  -7.043   7.687  0.00  0.00    +0.002 A 
ATOM     25  C   UNL     1      -7.579  -8.424   5.813  0.00  0.00    +0.002 A 
ATOM     26  C   UNL     1      -8.311  -7.355   6.331  0.00  0.00    +0.000 A 
ENDBRANCH   7  20
ENDBRANCH  10   6
BRANCH  12   3
ATOM      3  O   UNL     1      -4.747 -12.930  12.867  0.00  0.00    -0.388 OA
ATOM     33  H   UNL     1      -4.355 -12.307  13.501  0.00  0.00    +0.210 HD
ENDBRANCH  12   3
BRANCH  11  16
ATOM     16  C   UNL     1      -2.770 -10.388  13.238  0.00  0.00    +0.139 C 
BRANCH  16   8
ATOM      5  O   UNL     1      -5.155 -10.341  14.824  0.00  0.00    -0.253 OA
ATOM      8  N   UNL     1      -2.950 -10.977  14.531  0.00  0.00    -0.297 N 
ATOM      9  N   UNL     1      -4.033 -11.573  16.477  0.00  0.00    -0.269 N 
ATOM     21  C   UNL     1      -4.154 -10.912  15.251  0.00  0.00    +0.304 C 
ATOM     34  H   UNL     1      -2.168 -11.477  14.942  0.00  0.00    +0.150 HD
ATOM     36  H   UNL     1      -3.130 -11.996  16.680  0.00  0.00    +0.156 HD
BRANCH   9  27
ATOM      1 CL   UNL     1      -8.220 -14.032  18.148  0.00  0.00    -0.083 Cl
ATOM     27  C   UNL     1      -5.018 -11.730  17.480  0.00  0.00    +0.036 A 
ATOM     28  C   UNL     1      -6.017 -12.691  17.336  0.00  0.00    +0.043 A 
ATOM     29  C   UNL     1      -4.988 -10.921  18.617  0.00  0.00    +0.023 A 
ATOM     30  C   UNL     1      -6.987 -12.845  18.326  0.00  0.00    +0.043 A 
ATOM     31  C   UNL     1      -5.958 -11.074  19.607  0.00  0.00    +0.003 A 
ATOM     32  C   UNL     1      -6.957 -12.037  19.463  0.00  0.00    +0.020 A 
ENDBRANCH   9  27
ENDBRANCH  16   8
ENDBRANCH  11  16
BRANCH  13  19
ATOM     19  C   UNL     1      -2.687 -14.662  13.731  0.00  0.00    +0.190 C 
BRANCH  19   4
ATOM      4  O   UNL     1      -2.818 -13.890  14.915  0.00  0.00    -0.392 OA
ATOM     35  H   UNL     1      -1.970 -13.436  15.057  0.00  0.00    +0.210 HD
ENDBRANCH  19   4
ENDBRANCH  13  19
TORSDOF 8
ENDMDL
MODEL 5
REMARK VINA RESULT:      -6.3     30.218     32.867
REMARK  Name = 28961385
REMARK  8 active torsions:
REMARK  status: ('A' for Active; 'I' for Inactive)
REMARK    1  A    between atoms: O_3  and  C_12
REMARK    2  A    between atoms: O_4  and  C_19
REMARK    3  A    between atoms: N_6  and  C_10
REMARK    4  A    between atoms: N_7  and  C_20
REMARK    5  A    between atoms: N_8  and  C_16
REMARK    6  A    between atoms: N_9  and  C_27
REMARK    7  A    between atoms: C_11  and  C_16
REMARK    8  A    between atoms: C_13  and  C_19
REMARK                            x       y       z     vdW  Elec       q    Type
REMARK                         _______ _______ _______ _____ _____    ______ ____
ROOT
ATOM      2  O   UNL     1      -3.680 -10.216  12.256  0.00  0.00    -0.365 OA
ATOM     10  C   UNL     1      -4.432  -9.876  10.024  0.00  0.00    +0.118 C 
ATOM     11  C   UNL     1      -4.633  -9.451  11.485  0.00  0.00    +0.155 C 
ATOM     12  C   UNL     1      -3.863 -11.281  10.151  0.00  0.00    +0.165 C 
ATOM     13  C   UNL     1      -2.976 -11.114  11.378  0.00  0.00    +0.174 C 
ENDROOT
BRANCH  10   6
ATOM      6  N   UNL     1      -5.590  -9.753   9.156  0.00  0.00    -0.292 NA
ATOM      7  N   UNL     1      -7.144  -8.663   7.021  0.00  0.00    -0.327 N 
ATOM     14  C   UNL     1      -6.186  -8.416   9.278  0.00  0.00    +0.104 C 
ATOM     15  C   UNL     1      -5.216 -10.007   7.759  0.00  0.00    +0.104 C 
ATOM     17  C   UNL     1      -7.441  -8.293   8.410  0.00  0.00    +0.120 C 
ATOM     18  C   UNL     1      -6.439  -9.936   6.840  0.00  0.00    +0.120 C 
BRANCH   7  20
ATOM     20  C   UNL     1      -8.004  -8.198   6.019  0.00  0.00    +0.030 A 
ATOM     22  C   UNL     1      -7.631  -8.301   4.679  0.00  0.00    +0.023 A 
ATOM     23  C   UNL     1      -9.232  -7.632   6.361  0.00  0.00    +0.023 A 
ATOM     24  C   UNL     1      -8.487  -7.837   3.680  0.00  0.00    +0.002 A 
ATOM     25  C   UNL     1     -10.088  -7.168   5.361  0.00  0.00    +0.002 A 
ATOM     26  C   UNL     1      -9.715  -7.270   4.021  0.00  0.00    +0.000 A 
ENDBRANCH   7  20
ENDBRANCH  10   6
BRANCH  12   3
ATOM      3  O   UNL     1      -4.885 -12.236  10.404  0.00  0.00    -0.388 OA
ATOM     33  H   UNL     1      -5.106 -12.186  11.349  0.00  0.00    +0.210 HD
ENDBRANCH  12   3
BRANCH  11  16
ATOM     16  C   UNL     1      -6.010  -9.704  12.088  0.00  0.00    +0.139 C 
BRANCH  16   8
ATOM      5  O   UNL     1      -5.971 -11.461  14.350  0.00  0.00    -0.253 OA
ATOM      8  N   UNL     1      -6.045  -9.324  13.469  0.00  0.00    -0.297 N 
ATOM      9  N   UNL     1      -6.068  -9.587  15.759  0.00  0.00    -0.269 N 
ATOM     21  C   UNL     1      -6.023 -10.247  14.528  0.00  0.00    +0.304 C 
ATOM     34  H   UNL     1      -6.075  -8.334  13.692  0.00  0.00    +0.150 HD
ATOM     36  H   UNL     1      -6.109  -8.570  15.731  0.00  0.00    +0.156 HD
BRANCH   9  27
ATOM      1 CL   UNL     1      -3.476 -12.066  19.435  0.00  0.00    -0.083 Cl
ATOM     27  C   UNL     1      -6.064 -10.160  17.052  0.00  0.00    +0.036 A 
ATOM     28  C   UNL     1      -4.907 -10.761  17.547  0.00  0.00    +0.043 A 
ATOM     29  C   UNL     1      -7.219 -10.123  17.833  0.00  0.00    +0.023 A 
ATOM     30  C   UNL     1      -4.904 -11.325  18.823  0.00  0.00    +0.043 A 
ATOM     31  C   UNL     1      -7.217 -10.687  19.109  0.00  0.00    +0.003 A 
ATOM     32  C   UNL     1      -6.059 -11.287  19.604  0.00  0.00    +0.020 A 
ENDBRANCH   9  27
ENDBRANCH  16   8
ENDBRANCH  11  16
BRANCH  13  19
ATOM     19  C   UNL     1      -2.650 -12.394  12.127  0.00  0.00    +0.190 C 
BRANCH  19   4
ATOM      4  O   UNL     1      -3.091 -12.265  13.469  0.00  0.00    -0.392 OA
ATOM     35  H   UNL     1      -2.425 -12.692  14.033  0.00  0.00    +0.210 HD
ENDBRANCH  19   4
ENDBRANCH  13  19
TORSDOF 8
ENDMDL
MODEL 6
REMARK VINA RESULT:      -6.3     31.298     32.636
REMARK  Name = 28961385
REMARK  8 active torsions:
REMARK  status: ('A' for Active; 'I' for Inactive)
REMARK    1  A    between atoms: O_3  and  C_12
REMARK    2  A    between atoms: O_4  and  C_19
REMARK    3  A    between atoms: N_6  and  C_10
REMARK    4  A    between atoms: N_7  and  C_20
REMARK    5  A    between atoms: N_8  and  C_16
REMARK    6  A    between atoms: N_9  and  C_27
REMARK    7  A    between atoms: C_11  and  C_16
REMARK    8  A    between atoms: C_13  and  C_19
REMARK                            x       y       z     vdW  Elec       q    Type
REMARK                         _______ _______ _______ _____ _____    ______ ____
ROOT
ATOM      2  O   UNL     1      -7.686 -10.981  19.882  0.00  0.00    -0.365 OA
ATOM     10  C   UNL     1      -6.759 -12.589  18.393  0.00  0.00    +0.118 C 
ATOM     11  C   UNL     1      -6.575 -11.184  18.982  0.00  0.00    +0.155 C 
ATOM     12  C   UNL     1      -8.261 -12.808  18.493  0.00  0.00    +0.165 C 
ATOM     13  C   UNL     1      -8.556 -12.127  19.823  0.00  0.00    +0.174 C 
ENDROOT
BRANCH  10   6
ATOM      6  N   UNL     1      -6.187 -12.814  17.077  0.00  0.00    -0.292 NA
ATOM      7  N   UNL     1      -4.421 -13.998  15.169  0.00  0.00    -0.327 N 
ATOM     14  C   UNL     1      -4.760 -12.466  17.070  0.00  0.00    +0.104 C 
ATOM     15  C   UNL     1      -6.362 -14.213  16.671  0.00  0.00    +0.104 C 
ATOM     17  C   UNL     1      -4.158 -12.645  15.674  0.00  0.00    +0.120 C 
ATOM     18  C   UNL     1      -5.813 -14.451  15.262  0.00  0.00    +0.120 C 
BRANCH   7  20
ATOM     20  C   UNL     1      -3.597 -14.492  14.151  0.00  0.00    +0.030 A 
ATOM     22  C   UNL     1      -2.613 -15.435  14.447  0.00  0.00    +0.023 A 
ATOM     23  C   UNL     1      -3.760 -14.040  12.842  0.00  0.00    +0.023 A 
ATOM     24  C   UNL     1      -1.792 -15.927  13.432  0.00  0.00    +0.002 A 
ATOM     25  C   UNL     1      -2.939 -14.532  11.827  0.00  0.00    +0.002 A 
ATOM     26  C   UNL     1      -1.954 -15.475  12.123  0.00  0.00    +0.000 A 
ENDBRANCH   7  20
ENDBRANCH  10   6
BRANCH  12   3
ATOM      3  O   UNL     1      -8.954 -12.155  17.437  0.00  0.00    -0.388 OA
ATOM     33  H   UNL     1      -9.420 -12.838  16.925  0.00  0.00    +0.210 HD
ENDBRANCH  12   3
BRANCH  11  16
ATOM     16  C   UNL     1      -6.575 -10.023  17.994  0.00  0.00    +0.139 C 
BRANCH  16   8
ATOM      5  O   UNL     1      -8.540  -9.393  16.007  0.00  0.00    -0.253 OA
ATOM      8  N   UNL     1      -7.735  -9.200  18.166  0.00  0.00    -0.297 N 
ATOM      9  N   UNL     1      -9.682  -8.104  17.601  0.00  0.00    -0.269 N 
ATOM     21  C   UNL     1      -8.657  -8.935  17.141  0.00  0.00    +0.304 C 
ATOM     34  H   UNL     1      -7.903  -8.798  19.083  0.00  0.00    +0.150 HD
ATOM     36  H   UNL     1      -9.631  -7.811  18.574  0.00  0.00    +0.156 HD
BRANCH   9  27
ATOM      1 CL   UNL     1     -14.601  -8.660  16.231  0.00  0.00    -0.083 Cl
ATOM     27  C   UNL     1     -10.794  -7.613  16.876  0.00  0.00    +0.036 A 
ATOM     28  C   UNL     1     -12.007  -8.299  16.907  0.00  0.00    +0.043 A 
ATOM     29  C   UNL     1     -10.675  -6.440  16.130  0.00  0.00    +0.023 A 
ATOM     30  C   UNL     1     -13.102  -7.814  16.193  0.00  0.00    +0.043 A 
ATOM     31  C   UNL     1     -11.770  -5.954  15.416  0.00  0.00    +0.003 A 
ATOM     32  C   UNL     1     -12.984  -6.640  15.447  0.00  0.00    +0.020 A 
ENDBRANCH   9  27
ENDBRANCH  16   8
ENDBRANCH  11  16
BRANCH  13  19
ATOM     19  C   UNL     1      -9.992 -11.676  20.022  0.00  0.00    +0.190 C 
BRANCH  19   4
ATOM      4  O   UNL     1     -10.057 -10.267  19.868  0.00  0.00    -0.392 OA
ATOM     35  H   UNL     1     -10.704 -10.084  19.166  0.00  0.00    +0.210 HD
ENDBRANCH  19   4
ENDBRANCH  13  19
TORSDOF 8
ENDMDL
MODEL 7
REMARK VINA RESULT:      -6.3     28.867     32.520
REMARK  Name = 28961385
REMARK  8 active torsions:
REMARK  status: ('A' for Active; 'I' for Inactive)
REMARK    1  A    between atoms: O_3  and  C_12
REMARK    2  A    between atoms: O_4  and  C_19
REMARK    3  A    between atoms: N_6  and  C_10
REMARK    4  A    between atoms: N_7  and  C_20
REMARK    5  A    between atoms: N_8  and  C_16
REMARK    6  A    between atoms: N_9  and  C_27
REMARK    7  A    between atoms: C_11  and  C_16
REMARK    8  A    between atoms: C_13  and  C_19
REMARK                            x       y       z     vdW  Elec       q    Type
REMARK                         _______ _______ _______ _____ _____    ______ ____
ROOT
ATOM      2  O   UNL     1      -3.623 -12.281  16.117  0.00  0.00    -0.365 OA
ATOM     10  C   UNL     1      -5.487 -11.356  17.272  0.00  0.00    +0.118 C 
ATOM     11  C   UNL     1      -4.987 -12.578  16.490  0.00  0.00    +0.155 C 
ATOM     12  C   UNL     1      -4.624 -10.227  16.731  0.00  0.00    +0.165 C 
ATOM     13  C   UNL     1      -3.295 -10.949  16.555  0.00  0.00    +0.174 C 
ENDROOT
BRANCH  10   6
ATOM      6  N   UNL     1      -6.919 -11.113  17.236  0.00  0.00    -0.292 NA
ATOM      7  N   UNL     1      -9.483 -10.471  18.319  0.00  0.00    -0.327 N 
ATOM     14  C   UNL     1      -7.626 -12.076  18.090  0.00  0.00    +0.104 C 
ATOM     15  C   UNL     1      -7.220  -9.744  17.670  0.00  0.00    +0.104 C 
ATOM     17  C   UNL     1      -9.141 -11.866  18.016  0.00  0.00    +0.120 C 
ATOM     18  C   UNL     1      -8.722  -9.456  17.582  0.00  0.00    +0.120 C 
BRANCH   7  20
ATOM     20  C   UNL     1     -10.789 -10.190  18.737  0.00  0.00    +0.030 A 
ATOM     22  C   UNL     1     -11.112 -10.241  20.093  0.00  0.00    +0.023 A 
ATOM     23  C   UNL     1     -11.766  -9.860  17.798  0.00  0.00    +0.023 A 
ATOM     24  C   UNL     1     -12.413  -9.961  20.510  0.00  0.00    +0.002 A 
ATOM     25  C   UNL     1     -13.067  -9.580  18.216  0.00  0.00    +0.002 A 
ATOM     26  C   UNL     1     -13.391  -9.631  19.572  0.00  0.00    +0.000 A 
ENDBRANCH   7  20
ENDBRANCH  10   6
BRANCH  12   3
ATOM      3  O   UNL     1      -5.104  -9.758  15.477  0.00  0.00    -0.388 OA
ATOM     33  H   UNL     1      -6.065  -9.635  15.559  0.00  0.00    +0.210 HD
ENDBRANCH  12   3
BRANCH  11  16
ATOM     16  C   UNL     1      -5.740 -12.927  15.211  0.00  0.00    +0.139 C 
BRANCH  16   8
ATOM      5  O   UNL     1      -6.413 -11.144  13.072  0.00  0.00    -0.253 OA
ATOM      8  N   UNL     1      -4.947 -12.641  14.053  0.00  0.00    -0.297 N 
ATOM      9  N   UNL     1      -4.372 -11.674  12.041  0.00  0.00    -0.269 N 
ATOM     21  C   UNL     1      -5.345 -11.751  13.041  0.00  0.00    +0.304 C 
ATOM     34  H   UNL     1      -4.044 -13.097  13.966  0.00  0.00    +0.150 HD
ATOM     36  H   UNL     1      -3.540 -12.246  12.168  0.00  0.00    +0.156 HD
BRANCH   9  27
ATOM      1 CL   UNL     1      -4.956 -11.476   6.942  0.00  0.00    -0.083 Cl
ATOM     27  C   UNL     1      -4.400 -10.894  10.861  0.00  0.00    +0.036 A 
ATOM     28  C   UNL     1      -4.636 -11.499   9.627  0.00  0.00    +0.043 A 
ATOM     29  C   UNL     1      -4.190  -9.516  10.933  0.00  0.00    +0.023 A 
ATOM     30  C   UNL     1      -4.663 -10.728   8.465  0.00  0.00    +0.043 A 
ATOM     31  C   UNL     1      -4.217  -8.745   9.771  0.00  0.00    +0.003 A 
ATOM     32  C   UNL     1      -4.455  -9.351   8.537  0.00  0.00    +0.020 A 
ENDBRANCH   9  27
ENDBRANCH  16   8
ENDBRANCH  11  16
BRANCH  13  19
ATOM     19  C   UNL     1      -2.335 -10.318  15.562  0.00  0.00    +0.190 C 
BRANCH  19   4
ATOM      4  O   UNL     1      -2.497 -10.948  14.302  0.00  0.00    -0.392 OA
ATOM     35  H   UNL     1      -3.411 -10.783  14.013  0.00  0.00    +0.210 HD
ENDBRANCH  19   4
ENDBRANCH  13  19
TORSDOF 8
ENDMDL
MODEL 8
REMARK VINA RESULT:      -6.2     16.859     19.686
REMARK  Name = 28961385
REMARK  8 active torsions:
REMARK  status: ('A' for Active; 'I' for Inactive)
REMARK    1  A    between atoms: O_3  and  C_12
REMARK    2  A    between atoms: O_4  and  C_19
REMARK    3  A    between atoms: N_6  and  C_10
REMARK    4  A    between atoms: N_7  and  C_20
REMARK    5  A    between atoms: N_8  and  C_16
REMARK    6  A    between atoms: N_9  and  C_27
REMARK    7  A    between atoms: C_11  and  C_16
REMARK    8  A    between atoms: C_13  and  C_19
REMARK                            x       y       z     vdW  Elec       q    Type
REMARK                         _______ _______ _______ _____ _____    ______ ____
ROOT
ATOM      2  O   UNL     1       8.968   5.748   6.908  0.00  0.00    -0.365 OA
ATOM     10  C   UNL     1      10.976   7.000   6.655  0.00  0.00    +0.118 C 
ATOM     11  C   UNL     1       9.884   6.231   5.900  0.00  0.00    +0.155 C 
ATOM     12  C   UNL     1      10.960   6.356   8.032  0.00  0.00    +0.165 C 
ATOM     13  C   UNL     1       9.467   6.110   8.209  0.00  0.00    +0.174 C 
ENDROOT
BRANCH  10   6
ATOM      6  N   UNL     1      12.279   7.059   6.014  0.00  0.00    -0.292 NA
ATOM      7  N   UNL     1      14.754   8.259   5.245  0.00  0.00    -0.327 N 
ATOM     14  C   UNL     1      12.306   8.120   4.999  0.00  0.00    +0.104 C 
ATOM     15  C   UNL     1      13.332   7.293   7.009  0.00  0.00    +0.104 C 
ATOM     17  C   UNL     1      13.655   8.155   4.278  0.00  0.00    +0.120 C 
ATOM     18  C   UNL     1      14.716   7.301   6.355  0.00  0.00    +0.120 C 
BRANCH   7  20
ATOM     20  C   UNL     1      15.985   8.747   4.792  0.00  0.00    +0.030 A 
ATOM     22  C   UNL     1      17.098   8.717   5.632  0.00  0.00    +0.023 A 
ATOM     23  C   UNL     1      16.099   9.263   3.501  0.00  0.00    +0.023 A 
ATOM     24  C   UNL     1      18.325   9.204   5.181  0.00  0.00    +0.002 A 
ATOM     25  C   UNL     1      17.326   9.750   3.050  0.00  0.00    +0.002 A 
ATOM     26  C   UNL     1      18.439   9.720   3.891  0.00  0.00    +0.000 A 
ENDBRANCH   7  20
ENDBRANCH  10   6
BRANCH  12   3
ATOM      3  O   UNL     1      11.669   5.124   8.039  0.00  0.00    -0.388 OA
ATOM     33  H   UNL     1      11.614   4.748   7.144  0.00  0.00    +0.210 HD
ENDBRANCH  12   3
BRANCH  11  16
ATOM     16  C   UNL     1      10.336   5.024   5.085  0.00  0.00    +0.139 C 
BRANCH  16   8
ATOM      5  O   UNL     1      11.241   3.292   2.990  0.00  0.00    -0.253 OA
ATOM      8  N   UNL     1      10.658   5.401   3.741  0.00  0.00    -0.297 N 
ATOM      9  N   UNL     1      11.334   5.145   1.552  0.00  0.00    -0.269 N 
ATOM     21  C   UNL     1      11.098   4.492   2.765  0.00  0.00    +0.304 C 
ATOM     34  H   UNL     1      10.550   6.376   3.479  0.00  0.00    +0.150 HD
ATOM     36  H   UNL     1      11.166   6.148   1.534  0.00  0.00    +0.156 HD
BRANCH   9  27
ATOM      1 CL   UNL     1      10.203   3.442  -3.158  0.00  0.00    -0.083 Cl
ATOM     27  C   UNL     1      11.784   4.581   0.335  0.00  0.00    +0.036 A 
ATOM     28  C   UNL     1      10.877   4.319  -0.691  0.00  0.00    +0.043 A 
ATOM     29  C   UNL     1      13.137   4.286   0.162  0.00  0.00    +0.023 A 
ATOM     30  C   UNL     1      11.322   3.764  -1.891  0.00  0.00    +0.043 A 
ATOM     31  C   UNL     1      13.582   3.731  -1.037  0.00  0.00    +0.003 A 
ATOM     32  C   UNL     1      12.674   3.470  -2.064  0.00  0.00    +0.020 A 
ENDBRANCH   9  27
ENDBRANCH  16   8
ENDBRANCH  11  16
BRANCH  13  19
ATOM     19  C   UNL     1       9.096   5.028   9.206  0.00  0.00    +0.190 C 
BRANCH  19   4
ATOM      4  O   UNL     1      10.087   4.977  10.220  0.00  0.00    -0.392 OA
ATOM     35  H   UNL     1      10.945   4.860   9.778  0.00  0.00    +0.210 HD
ENDBRANCH  19   4
ENDBRANCH  13  19
TORSDOF 8
ENDMDL
MODEL 9
REMARK VINA RESULT:      -6.1     33.644     37.174
REMARK  Name = 28961385
REMARK  8 active torsions:
REMARK  status: ('A' for Active; 'I' for Inactive)
REMARK    1  A    between atoms: O_3  and  C_12
REMARK    2  A    between atoms: O_4  and  C_19
REMARK    3  A    between atoms: N_6  and  C_10
REMARK    4  A    between atoms: N_7  and  C_20
REMARK    5  A    between atoms: N_8  and  C_16
REMARK    6  A    between atoms: N_9  and  C_27
REMARK    7  A    between atoms: C_11  and  C_16
REMARK    8  A    between atoms: C_13  and  C_19
REMARK                            x       y       z     vdW  Elec       q    Type
REMARK                         _______ _______ _______ _____ _____    ______ ____
ROOT
ATOM      2  O   UNL     1      -8.147  -9.204  40.747  0.00  0.00    -0.365 OA
ATOM     10  C   UNL     1      -9.881 -10.102  39.386  0.00  0.00    +0.118 C 
ATOM     11  C   UNL     1      -8.373 -10.139  39.668  0.00  0.00    +0.155 C 
ATOM     12  C   UNL     1     -10.284  -8.713  39.857  0.00  0.00    +0.165 C 
ATOM     13  C   UNL     1      -9.392  -8.562  41.082  0.00  0.00    +0.174 C 
ENDROOT
BRANCH  10   6
ATOM      6  N   UNL     1     -10.289 -10.441  38.034  0.00  0.00    -0.292 NA
ATOM      7  N   UNL     1     -11.762 -11.845  36.029  0.00  0.00    -0.327 N 
ATOM     14  C   UNL     1      -9.992 -11.850  37.744  0.00  0.00    +0.104 C 
ATOM     15  C   UNL     1     -11.722 -10.185  37.849  0.00  0.00    +0.104 C 
ATOM     17  C   UNL     1     -10.366 -12.204  36.302  0.00  0.00    +0.120 C 
ATOM     18  C   UNL     1     -12.154 -10.484  36.410  0.00  0.00    +0.120 C 
BRANCH   7  20
ATOM     20  C   UNL     1     -12.408 -12.478  34.961  0.00  0.00    +0.030 A 
ATOM     22  C   UNL     1     -11.899 -13.671  34.449  0.00  0.00    +0.023 A 
ATOM     23  C   UNL     1     -13.559 -11.916  34.409  0.00  0.00    +0.023 A 
ATOM     24  C   UNL     1     -12.542 -14.303  33.384  0.00  0.00    +0.002 A 
ATOM     25  C   UNL     1     -14.202 -12.548  33.344  0.00  0.00    +0.002 A 
ATOM     26  C   UNL     1     -13.693 -13.741  32.831  0.00  0.00    +0.000 A 
ENDBRANCH   7  20
ENDBRANCH  10   6
BRANCH  12   3
ATOM      3  O   UNL     1      -9.968  -7.723  38.887  0.00  0.00    -0.388 OA
ATOM     33  H   UNL     1     -10.163  -8.096  38.011  0.00  0.00    +0.210 HD
ENDBRANCH  12   3
BRANCH  11  16
ATOM     16  C   UNL     1      -7.453  -9.736  38.521  0.00  0.00    +0.139 C 
BRANCH  16   8
ATOM      5  O   UNL     1      -4.981  -9.089  39.817  0.00  0.00    -0.253 OA
ATOM      8  N   UNL     1      -6.912  -8.426  38.730  0.00  0.00    -0.297 N 
ATOM      9  N   UNL     1      -5.421  -6.816  39.435  0.00  0.00    -0.269 N 
ATOM     21  C   UNL     1      -5.689  -8.186  39.377  0.00  0.00    +0.304 C 
ATOM     34  H   UNL     1      -7.437  -7.631  38.380  0.00  0.00    +0.150 HD
ATOM     36  H   UNL     1      -6.115  -6.197  39.021  0.00  0.00    +0.156 HD
BRANCH   9  27
ATOM      1 CL   UNL     1      -3.127  -4.902  43.612  0.00  0.00    -0.083 Cl
ATOM     27  C   UNL     1      -4.296  -6.174  40.004  0.00  0.00    +0.036 A 
ATOM     28  C   UNL     1      -4.270  -5.887  41.368  0.00  0.00    +0.043 A 
ATOM     29  C   UNL     1      -3.211  -5.827  39.197  0.00  0.00    +0.023 A 
ATOM     30  C   UNL     1      -3.160  -5.255  41.927  0.00  0.00    +0.043 A 
ATOM     31  C   UNL     1      -2.101  -5.195  39.757  0.00  0.00    +0.003 A 
ATOM     32  C   UNL     1      -2.074  -4.909  41.122  0.00  0.00    +0.020 A 
ENDBRANCH   9  27
ENDBRANCH  16   8
ENDBRANCH  11  16
BRANCH  13  19
ATOM     19  C   UNL     1      -9.117  -7.135  41.518  0.00  0.00    +0.190 C 
BRANCH  19   4
ATOM      4  O   UNL     1      -8.097  -6.591  40.696  0.00  0.00    -0.392 OA
ATOM     35  H   UNL     1      -8.015  -7.169  39.919  0.00  0.00    +0.210 HD
ENDBRANCH  19   4
ENDBRANCH  13  19
TORSDOF 8
ENDMDL
MODEL 10
REMARK VINA RESULT:      -6.1     29.656     33.491
REMARK  Name = 28961385
REMARK  8 active torsions:
REMARK  status: ('A' for Active; 'I' for Inactive)
REMARK    1  A    between atoms: O_3  and  C_12
REMARK    2  A    between atoms: O_4  and  C_19
REMARK    3  A    between atoms: N_6  and  C_10
REMARK    4  A    between atoms: N_7  and  C_20
REMARK    5  A    between atoms: N_8  and  C_16
REMARK    6  A    between atoms: N_9  and  C_27
REMARK    7  A    between atoms: C_11  and  C_16
REMARK    8  A    between atoms: C_13  and  C_19
REMARK                            x       y       z     vdW  Elec       q    Type
REMARK                         _______ _______ _______ _____ _____    ______ ____
ROOT
ATOM      2  O   UNL     1     -12.561  -9.039  17.526  0.00  0.00    -0.365 OA
ATOM     10  C   UNL     1     -10.493 -10.047  16.913  0.00  0.00    +0.118 C 
ATOM     11  C   UNL     1     -11.132  -8.841  17.615  0.00  0.00    +0.155 C 
ATOM     12  C   UNL     1     -11.572 -10.483  15.933  0.00  0.00    +0.165 C 
ATOM     13  C   UNL     1     -12.824 -10.232  16.764  0.00  0.00    +0.174 C 
ENDROOT
BRANCH  10   6
ATOM      6  N   UNL     1      -9.180  -9.829  16.332  0.00  0.00    -0.292 NA
ATOM      7  N   UNL     1      -6.412 -10.363  15.869  0.00  0.00    -0.327 N 
ATOM     14  C   UNL     1      -8.188  -9.570  17.383  0.00  0.00    +0.104 C 
ATOM     15  C   UNL     1      -8.771 -10.991  15.534  0.00  0.00    +0.104 C 
ATOM     17  C   UNL     1      -6.811  -9.283  16.780  0.00  0.00    +0.120 C 
ATOM     18  C   UNL     1      -7.412 -10.752  14.869  0.00  0.00    +0.120 C 
BRANCH   7  20
ATOM     20  C   UNL     1      -5.051 -10.513  15.583  0.00  0.00    +0.030 A 
ATOM     22  C   UNL     1      -4.619 -10.562  14.258  0.00  0.00    +0.023 A 
ATOM     23  C   UNL     1      -4.126 -10.614  16.623  0.00  0.00    +0.023 A 
ATOM     24  C   UNL     1      -3.261 -10.712  13.972  0.00  0.00    +0.002 A 
ATOM     25  C   UNL     1      -2.769 -10.763  16.336  0.00  0.00    +0.002 A 
ATOM     26  C   UNL     1      -2.337 -10.813  15.011  0.00  0.00    +0.000 A 
ENDBRANCH   7  20
ENDBRANCH  10   6
BRANCH  12   3
ATOM      3  O   UNL     1     -11.578  -9.668  14.768  0.00  0.00    -0.388 OA
ATOM     33  H   UNL     1     -12.375  -9.113  14.803  0.00  0.00    +0.210 HD
ENDBRANCH  12   3
BRANCH  11  16
ATOM     16  C   UNL     1     -10.828  -7.467  17.028  0.00  0.00    +0.139 C 
BRANCH  16   8
ATOM      5  O   UNL     1     -10.712  -5.569  14.886  0.00  0.00    -0.253 OA
ATOM      8  N   UNL     1     -11.930  -6.984  16.251  0.00  0.00    -0.297 N 
ATOM      9  N   UNL     1     -13.038  -5.767  14.636  0.00  0.00    -0.269 N 
ATOM     21  C   UNL     1     -11.796  -6.049  15.211  0.00  0.00    +0.304 C 
ATOM     34  H   UNL     1     -12.856  -7.348  16.456  0.00  0.00    +0.150 HD
ATOM     36  H   UNL     1     -13.842  -6.253  15.026  0.00  0.00    +0.156 HD
BRANCH   9  27
ATOM      1 CL   UNL     1     -11.498  -3.561  10.262  0.00  0.00    -0.083 Cl
ATOM     27  C   UNL     1     -13.320  -4.882  13.569  0.00  0.00    +0.036 A 
ATOM     28  C   UNL     1     -12.379  -4.681  12.560  0.00  0.00    +0.043 A 
ATOM     29  C   UNL     1     -14.542  -4.210  13.527  0.00  0.00    +0.023 A 
ATOM     30  C   UNL     1     -12.659  -3.809  11.508  0.00  0.00    +0.043 A 
ATOM     31  C   UNL     1     -14.822  -3.338  12.476  0.00  0.00    +0.003 A 
ATOM     32  C   UNL     1     -13.881  -3.137  11.465  0.00  0.00    +0.020 A 
ENDBRANCH   9  27
ENDBRANCH  16   8
ENDBRANCH  11  16
BRANCH  13  19
ATOM     19  C   UNL     1     -14.107 -10.048  15.973  0.00  0.00    +0.190 C 
BRANCH  19   4
ATOM      4  O   UNL     1     -14.187  -8.702  15.533  0.00  0.00    -0.392 OA
ATOM     35  H   UNL     1     -13.606  -8.177  16.109  0.00  0.00    +0.210 HD
ENDBRANCH  19   4
ENDBRANCH  13  19
TORSDOF 8
ENDMDL
