MODEL 1
REMARK VINA RESULT:      -7.6      0.000      0.000
REMARK  Name = 75536090
REMARK  6 active torsions:
REMARK  status: ('A' for Active; 'I' for Inactive)
REMARK    1  A    between atoms: O_1  and  C_12
REMARK    2  A    between atoms: O_2  and  C_14
REMARK    3  A    between atoms: N_7  and  C_11
REMARK    4  A    between atoms: N_9  and  C_20
REMARK    5  A    between atoms: C_10  and  C_15
REMARK    6  A    between atoms: C_18  and  C_21
REMARK                            x       y       z     vdW  Elec       q    Type
REMARK                         _______ _______ _______ _____ _____    ______ ____
ROOT
ATOM     10  C   UNL     1     -16.898   4.191  24.096  0.00  0.00    +0.046 C 
ATOM     11  C   UNL     1     -16.235   2.982  24.794  0.00  0.00    +0.112 C 
ATOM     12  C   UNL     1     -17.324   1.910  24.761  0.00  0.00    +0.164 C 
ATOM     13  C   UNL     1     -18.025   3.602  23.210  0.00  0.00    +0.044 C 
ATOM     14  C   UNL     1     -17.938   2.086  23.377  0.00  0.00    +0.145 C 
ENDROOT
BRANCH  10  15
ATOM      8  N   UNL     1     -15.339   7.224  22.434  0.00  0.00    -0.240 NA
ATOM     15  C   UNL     1     -15.907   5.060  23.350  0.00  0.00    -0.024 A 
ATOM     16  C   UNL     1     -14.698   4.543  22.898  0.00  0.00    +0.009 A 
ATOM     17  C   UNL     1     -16.178   6.394  23.096  0.00  0.00    +0.116 A 
ATOM     19  C   UNL     1     -13.809   5.365  22.215  0.00  0.00    +0.044 A 
ATOM     20  C   UNL     1     -14.174   6.686  22.010  0.00  0.00    +0.121 A 
BRANCH  20   9
ATOM      4  O   UNL     1     -11.280   9.104  20.151  0.00  0.00    -0.377 OA
ATOM      9  N   UNL     1     -13.270   7.500  21.320  0.00  0.00    -0.311 N 
ATOM     22  C   UNL     1     -12.003   6.904  20.873  0.00  0.00    +0.134 C 
ATOM     23  C   UNL     1     -13.218   8.939  21.600  0.00  0.00    +0.134 C 
ATOM     24  C   UNL     1     -11.410   7.743  19.745  0.00  0.00    +0.178 C 
ATOM     25  C   UNL     1     -12.560   9.668  20.435  0.00  0.00    +0.178 C 
ENDBRANCH  20   9
ENDBRANCH  10  15
BRANCH  11   7
ATOM      3  O   UNL     1     -17.959   3.485  27.035  0.00  0.00    -0.270 OA
ATOM      7  N   UNL     1     -15.828   3.292  26.142  0.00  0.00    -0.305 N 
ATOM     18  C   UNL     1     -16.738   3.521  27.165  0.00  0.00    +0.245 C 
ATOM     33  H   UNL     1     -14.831   3.363  26.314  0.00  0.00    +0.149 HD
BRANCH  18  21
ATOM      5  O   UNL     1     -13.709   2.480  30.811  0.00  0.00    -0.485 OA
ATOM      6  O   UNL     1     -14.545   4.872  32.185  0.00  0.00    -0.485 OA
ATOM     21  C   UNL     1     -16.158   3.854  28.491  0.00  0.00    +0.040 A 
ATOM     26  C   UNL     1     -15.185   3.028  29.053  0.00  0.00    +0.062 A 
ATOM     27  C   UNL     1     -16.589   4.992  29.174  0.00  0.00    +0.017 A 
ATOM     28  C   UNL     1     -14.646   3.340  30.301  0.00  0.00    +0.163 A 
ATOM     29  C   UNL     1     -16.042   5.312  30.416  0.00  0.00    +0.050 A 
ATOM     30  C   UNL     1     -15.059   4.493  30.973  0.00  0.00    +0.162 A 
ATOM     31  C   UNL     1     -13.489   2.696  32.207  0.00  0.00    +0.270 C 
ATOM     32  C   UNL     1     -13.331   4.178  32.490  0.00  0.00    +0.270 C 
ENDBRANCH  18  21
ENDBRANCH  11   7
BRANCH  12   1
ATOM      1  O   UNL     1     -16.800   0.606  24.926  0.00  0.00    -0.387 OA
ATOM     34  H   UNL     1     -16.705   0.216  24.040  0.00  0.00    +0.210 HD
ENDBRANCH  12   1
BRANCH  14   2
ATOM      2  O   UNL     1     -17.078   1.564  22.368  0.00  0.00    -0.389 OA
ATOM     35  H   UNL     1     -16.193   1.469  22.759  0.00  0.00    +0.210 HD
ENDBRANCH  14   2
TORSDOF 6
ENDMDL
MODEL 2
REMARK VINA RESULT:      -7.4     30.249     33.117
REMARK  Name = 75536090
REMARK  6 active torsions:
REMARK  status: ('A' for Active; 'I' for Inactive)
REMARK    1  A    between atoms: O_1  and  C_12
REMARK    2  A    between atoms: O_2  and  C_14
REMARK    3  A    between atoms: N_7  and  C_11
REMARK    4  A    between atoms: N_9  and  C_20
REMARK    5  A    between atoms: C_10  and  C_15
REMARK    6  A    between atoms: C_18  and  C_21
REMARK                            x       y       z     vdW  Elec       q    Type
REMARK                         _______ _______ _______ _____ _____    ______ ____
ROOT
ATOM     10  C   UNL     1       8.763   6.377   5.713  0.00  0.00    +0.046 C 
ATOM     11  C   UNL     1       8.755   7.919   5.825  0.00  0.00    +0.112 C 
ATOM     12  C   UNL     1       8.705   8.167   7.332  0.00  0.00    +0.164 C 
ATOM     13  C   UNL     1       9.304   5.859   7.070  0.00  0.00    +0.044 C 
ATOM     14  C   UNL     1       9.644   7.103   7.888  0.00  0.00    +0.145 C 
ENDROOT
BRANCH  10  15
ATOM      8  N   UNL     1      10.928   4.179   3.508  0.00  0.00    -0.240 NA
ATOM     15  C   UNL     1       9.523   5.875   4.504  0.00  0.00    -0.024 A 
ATOM     16  C   UNL     1       9.539   6.597   3.316  0.00  0.00    +0.009 A 
ATOM     17  C   UNL     1      10.227   4.683   4.548  0.00  0.00    +0.116 A 
ATOM     19  C   UNL     1      10.248   6.111   2.223  0.00  0.00    +0.044 A 
ATOM     20  C   UNL     1      10.920   4.908   2.370  0.00  0.00    +0.121 A 
BRANCH  20   9
ATOM      4  O   UNL     1      12.890   3.253  -0.957  0.00  0.00    -0.377 OA
ATOM      9  N   UNL     1      11.630   4.433   1.262  0.00  0.00    -0.311 N 
ATOM     22  C   UNL     1      10.914   4.298  -0.015  0.00  0.00    +0.134 C 
ATOM     23  C   UNL     1      12.747   3.502   1.452  0.00  0.00    +0.134 C 
ATOM     24  C   UNL     1      11.914   4.273  -1.165  0.00  0.00    +0.178 C 
ATOM     25  C   UNL     1      13.648   3.518   0.223  0.00  0.00    +0.178 C 
ENDBRANCH  20   9
ENDBRANCH  10  15
BRANCH  11   7
ATOM      3  O   UNL     1       8.561  10.602   4.817  0.00  0.00    -0.270 OA
ATOM      7  N   UNL     1       7.626   8.505   5.145  0.00  0.00    -0.305 N 
ATOM     18  C   UNL     1       7.625   9.817   4.692  0.00  0.00    +0.245 C 
ATOM     33  H   UNL     1       6.807   7.919   5.031  0.00  0.00    +0.149 HD
BRANCH  18  21
ATOM      5  O   UNL     1       4.415   9.493   1.067  0.00  0.00    -0.485 OA
ATOM      6  O   UNL     1       2.844  11.587   2.273  0.00  0.00    -0.485 OA
ATOM     21  C   UNL     1       6.374  10.278   4.035  0.00  0.00    +0.040 A 
ATOM     26  C   UNL     1       5.945   9.672   2.853  0.00  0.00    +0.062 A 
ATOM     27  C   UNL     1       5.634  11.317   4.599  0.00  0.00    +0.017 A 
ATOM     28  C   UNL     1       4.774  10.111   2.235  0.00  0.00    +0.163 A 
ATOM     29  C   UNL     1       4.456  11.747   3.988  0.00  0.00    +0.050 A 
ATOM     30  C   UNL     1       4.018  11.134   2.814  0.00  0.00    +0.162 A 
ATOM     31  C   UNL     1       3.422  10.234   0.354  0.00  0.00    +0.270 C 
ATOM     32  C   UNL     1       2.321  10.681   1.297  0.00  0.00    +0.270 C 
ENDBRANCH  18  21
ENDBRANCH  11   7
BRANCH  12   1
ATOM      1  O   UNL     1       9.144   9.468   7.677  0.00  0.00    -0.387 OA
ATOM     34  H   UNL     1       9.898   9.682   7.102  0.00  0.00    +0.210 HD
ENDBRANCH  12   1
BRANCH  14   2
ATOM      2  O   UNL     1      11.005   7.450   7.649  0.00  0.00    -0.389 OA
ATOM     35  H   UNL     1      11.108   7.586   6.692  0.00  0.00    +0.210 HD
ENDBRANCH  14   2
TORSDOF 6
ENDMDL
MODEL 3
REMARK VINA RESULT:      -7.4     31.610     35.609
REMARK  Name = 75536090
REMARK  6 active torsions:
REMARK  status: ('A' for Active; 'I' for Inactive)
REMARK    1  A    between atoms: O_1  and  C_12
REMARK    2  A    between atoms: O_2  and  C_14
REMARK    3  A    between atoms: N_7  and  C_11
REMARK    4  A    between atoms: N_9  and  C_20
REMARK    5  A    between atoms: C_10  and  C_15
REMARK    6  A    between atoms: C_18  and  C_21
REMARK                            x       y       z     vdW  Elec       q    Type
REMARK                         _______ _______ _______ _____ _____    ______ ____
ROOT
ATOM     10  C   UNL     1      10.342   6.173   4.874  0.00  0.00    +0.046 C 
ATOM     11  C   UNL     1      11.402   6.175   5.999  0.00  0.00    +0.112 C 
ATOM     12  C   UNL     1      10.578   5.937   7.264  0.00  0.00    +0.164 C 
ATOM     13  C   UNL     1       9.135   5.376   5.432  0.00  0.00    +0.044 C 
ATOM     14  C   UNL     1       9.556   4.898   6.820  0.00  0.00    +0.145 C 
ENDROOT
BRANCH  10  15
ATOM      8  N   UNL     1      11.798   6.127   1.371  0.00  0.00    -0.240 NA
ATOM     15  C   UNL     1      10.878   5.653   3.556  0.00  0.00    -0.024 A 
ATOM     16  C   UNL     1      10.948   4.289   3.298  0.00  0.00    +0.009 A 
ATOM     17  C   UNL     1      11.311   6.523   2.569  0.00  0.00    +0.116 A 
ATOM     19  C   UNL     1      11.443   3.842   2.079  0.00  0.00    +0.044 A 
ATOM     20  C   UNL     1      11.851   4.793   1.157  0.00  0.00    +0.121 A 
BRANCH  20   9
ATOM      4  O   UNL     1      13.263   3.640  -2.632  0.00  0.00    -0.377 OA
ATOM      9  N   UNL     1      12.345   4.328  -0.066  0.00  0.00    -0.311 N 
ATOM     22  C   UNL     1      13.516   5.004  -0.642  0.00  0.00    +0.134 C 
ATOM     23  C   UNL     1      11.434   3.719  -1.040  0.00  0.00    +0.134 C 
ATOM     24  C   UNL     1      14.198   4.084  -1.649  0.00  0.00    +0.178 C 
ATOM     25  C   UNL     1      12.226   2.869  -2.026  0.00  0.00    +0.178 C 
ENDBRANCH  20   9
ENDBRANCH  10  15
BRANCH  11   7
ATOM      3  O   UNL     1      14.018   6.585   7.109  0.00  0.00    -0.270 OA
ATOM      7  N   UNL     1      12.128   7.419   6.055  0.00  0.00    -0.305 N 
ATOM     18  C   UNL     1      13.395   7.520   6.614  0.00  0.00    +0.245 C 
ATOM     33  H   UNL     1      11.660   8.239   5.687  0.00  0.00    +0.149 HD
BRANCH  18  21
ATOM      5  O   UNL     1      17.235  10.418   5.973  0.00  0.00    -0.485 OA
ATOM      6  O   UNL     1      15.609  12.711   6.608  0.00  0.00    -0.485 OA
ATOM     21  C   UNL     1      13.998   8.878   6.618  0.00  0.00    +0.040 A 
ATOM     26  C   UNL     1      15.342   9.044   6.282  0.00  0.00    +0.062 A 
ATOM     27  C   UNL     1      13.220   9.984   6.962  0.00  0.00    +0.017 A 
ATOM     28  C   UNL     1      15.906  10.320   6.293  0.00  0.00    +0.163 A 
ATOM     29  C   UNL     1      13.781  11.261   6.961  0.00  0.00    +0.050 A 
ATOM     30  C   UNL     1      15.121  11.430   6.611  0.00  0.00    +0.162 A 
ATOM     31  C   UNL     1      17.782  11.685   6.347  0.00  0.00    +0.270 C 
ATOM     32  C   UNL     1      16.856  12.805   5.915  0.00  0.00    +0.270 C 
ENDBRANCH  18  21
ENDBRANCH  11   7
BRANCH  12   1
ATOM      1  O   UNL     1      11.368   5.454   8.335  0.00  0.00    -0.387 OA
ATOM     34  H   UNL     1      12.300   5.564   8.082  0.00  0.00    +0.210 HD
ENDBRANCH  12   1
BRANCH  14   2
ATOM      2  O   UNL     1      10.156   3.612   6.698  0.00  0.00    -0.389 OA
ATOM     35  H   UNL     1      10.410   3.322   7.591  0.00  0.00    +0.210 HD
ENDBRANCH  14   2
TORSDOF 6
ENDMDL
MODEL 4
REMARK VINA RESULT:      -7.4     16.919     19.188
REMARK  Name = 75536090
REMARK  6 active torsions:
REMARK  status: ('A' for Active; 'I' for Inactive)
REMARK    1  A    between atoms: O_1  and  C_12
REMARK    2  A    between atoms: O_2  and  C_14
REMARK    3  A    between atoms: N_7  and  C_11
REMARK    4  A    between atoms: N_9  and  C_20
REMARK    5  A    between atoms: C_10  and  C_15
REMARK    6  A    between atoms: C_18  and  C_21
REMARK                            x       y       z     vdW  Elec       q    Type
REMARK                         _______ _______ _______ _____ _____    ______ ____
ROOT
ATOM     10  C   UNL     1     -10.035  -9.950  18.997  0.00  0.00    +0.046 C 
ATOM     11  C   UNL     1      -9.448 -11.323  18.598  0.00  0.00    +0.112 C 
ATOM     12  C   UNL     1      -9.742 -12.203  19.813  0.00  0.00    +0.164 C 
ATOM     13  C   UNL     1     -11.106 -10.246  20.078  0.00  0.00    +0.044 C 
ATOM     14  C   UNL     1     -11.143 -11.767  20.223  0.00  0.00    +0.145 C 
ENDROOT
BRANCH  10  15
ATOM      8  N   UNL     1     -12.207  -8.883  16.075  0.00  0.00    -0.240 NA
ATOM     15  C   UNL     1     -10.548  -9.159  17.811  0.00  0.00    -0.024 A 
ATOM     16  C   UNL     1      -9.878  -8.027  17.361  0.00  0.00    +0.009 A 
ATOM     17  C   UNL     1     -11.697  -9.542  17.140  0.00  0.00    +0.116 A 
ATOM     19  C   UNL     1     -10.372  -7.322  16.270  0.00  0.00    +0.044 A 
ATOM     20  C   UNL     1     -11.529  -7.787  15.667  0.00  0.00    +0.121 A 
BRANCH  20   9
ATOM      4  O   UNL     1     -13.229  -5.608  12.498  0.00  0.00    -0.377 OA
ATOM      9  N   UNL     1     -12.012  -7.068  14.569  0.00  0.00    -0.311 N 
ATOM     22  C   UNL     1     -12.383  -5.660  14.771  0.00  0.00    +0.134 C 
ATOM     23  C   UNL     1     -12.749  -7.761  13.507  0.00  0.00    +0.134 C 
ATOM     24  C   UNL     1     -12.386  -4.932  13.431  0.00  0.00    +0.178 C 
ATOM     25  C   UNL     1     -12.734  -6.921  12.235  0.00  0.00    +0.178 C 
ENDBRANCH  20   9
ENDBRANCH  10  15
BRANCH  11   7
ATOM      3  O   UNL     1      -8.223 -11.049  16.015  0.00  0.00    -0.270 OA
ATOM      7  N   UNL     1      -8.036 -11.246  18.318  0.00  0.00    -0.305 N 
ATOM     18  C   UNL     1      -7.534 -11.114  17.030  0.00  0.00    +0.245 C 
ATOM     33  H   UNL     1      -7.408 -11.320  19.111  0.00  0.00    +0.149 HD
BRANCH  18  21
ATOM      5  O   UNL     1      -3.554 -10.374  14.355  0.00  0.00    -0.485 OA
ATOM      6  O   UNL     1      -1.907 -10.943  16.650  0.00  0.00    -0.485 OA
ATOM     21  C   UNL     1      -6.054 -11.075  16.908  0.00  0.00    +0.040 A 
ATOM     26  C   UNL     1      -5.465 -10.730  15.692  0.00  0.00    +0.062 A 
ATOM     27  C   UNL     1      -5.257 -11.387  18.010  0.00  0.00    +0.017 A 
ATOM     28  C   UNL     1      -4.075 -10.700  15.579  0.00  0.00    +0.163 A 
ATOM     29  C   UNL     1      -3.867 -11.345  17.901  0.00  0.00    +0.050 A 
ATOM     30  C   UNL     1      -3.276 -10.987  16.689  0.00  0.00    +0.162 A 
ATOM     31  C   UNL     1      -2.167 -10.708  14.258  0.00  0.00    +0.270 C 
ATOM     32  C   UNL     1      -1.427 -10.244  15.498  0.00  0.00    +0.270 C 
ENDBRANCH  18  21
ENDBRANCH  11   7
BRANCH  12   1
ATOM      1  O   UNL     1      -9.707 -13.582  19.498  0.00  0.00    -0.387 OA
ATOM     34  H   UNL     1      -9.314 -14.044  20.258  0.00  0.00    +0.210 HD
ENDBRANCH  12   1
BRANCH  14   2
ATOM      2  O   UNL     1     -12.122 -12.287  19.328  0.00  0.00    -0.389 OA
ATOM     35  H   UNL     1     -11.655 -12.598  18.533  0.00  0.00    +0.210 HD
ENDBRANCH  14   2
TORSDOF 6
ENDMDL
MODEL 5
REMARK VINA RESULT:      -7.3     30.069     33.845
REMARK  Name = 75536090
REMARK  6 active torsions:
REMARK  status: ('A' for Active; 'I' for Inactive)
REMARK    1  A    between atoms: O_1  and  C_12
REMARK    2  A    between atoms: O_2  and  C_14
REMARK    3  A    between atoms: N_7  and  C_11
REMARK    4  A    between atoms: N_9  and  C_20
REMARK    5  A    between atoms: C_10  and  C_15
REMARK    6  A    between atoms: C_18  and  C_21
REMARK                            x       y       z     vdW  Elec       q    Type
REMARK                         _______ _______ _______ _____ _____    ______ ____
ROOT
ATOM     10  C   UNL     1       9.606   5.138   5.088  0.00  0.00    +0.046 C 
ATOM     11  C   UNL     1       9.515   6.589   5.612  0.00  0.00    +0.112 C 
ATOM     12  C   UNL     1       9.115   6.414   7.077  0.00  0.00    +0.164 C 
ATOM     13  C   UNL     1       9.845   4.252   6.337  0.00  0.00    +0.044 C 
ATOM     14  C   UNL     1       9.943   5.214   7.519  0.00  0.00    +0.145 C 
ENDROOT
BRANCH  10  15
ATOM      8  N   UNL     1      12.466   5.904   2.717  0.00  0.00    -0.240 NA
ATOM     15  C   UNL     1      10.640   4.968   3.994  0.00  0.00    -0.024 A 
ATOM     16  C   UNL     1      10.731   3.784   3.271  0.00  0.00    +0.009 A 
ATOM     17  C   UNL     1      11.522   5.989   3.681  0.00  0.00    +0.116 A 
ATOM     19  C   UNL     1      11.689   3.659   2.272  0.00  0.00    +0.044 A 
ATOM     20  C   UNL     1      12.525   4.738   2.036  0.00  0.00    +0.121 A 
BRANCH  20   9
ATOM      4  O   UNL     1      15.444   4.050  -0.911  0.00  0.00    -0.377 OA
ATOM      9  N   UNL     1      13.483   4.596   1.026  0.00  0.00    -0.311 N 
ATOM     22  C   UNL     1      13.209   3.647  -0.062  0.00  0.00    +0.134 C 
ATOM     23  C   UNL     1      14.902   4.805   1.330  0.00  0.00    +0.134 C 
ATOM     24  C   UNL     1      14.066   3.992  -1.274  0.00  0.00    +0.178 C 
ATOM     25  C   UNL     1      15.669   5.087   0.043  0.00  0.00    +0.178 C 
ENDBRANCH  20   9
ENDBRANCH  10  15
BRANCH  11   7
ATOM      3  O   UNL     1       9.574   9.428   5.178  0.00  0.00    -0.270 OA
ATOM      7  N   UNL     1       8.548   7.369   4.880  0.00  0.00    -0.305 N 
ATOM     18  C   UNL     1       8.661   8.744   4.722  0.00  0.00    +0.245 C 
ATOM     33  H   UNL     1       7.752   6.870   4.498  0.00  0.00    +0.149 HD
BRANCH  18  21
ATOM      5  O   UNL     1       4.801  11.683   4.607  0.00  0.00    -0.485 OA
ATOM      6  O   UNL     1       4.560  11.253   1.768  0.00  0.00    -0.485 OA
ATOM     21  C   UNL     1       7.568   9.404   3.963  0.00  0.00    +0.040 A 
ATOM     26  C   UNL     1       6.681  10.258   4.620  0.00  0.00    +0.062 A 
ATOM     27  C   UNL     1       7.428   9.167   2.595  0.00  0.00    +0.017 A 
ATOM     28  C   UNL     1       5.652  10.872   3.905  0.00  0.00    +0.163 A 
ATOM     29  C   UNL     1       6.408   9.790   1.877  0.00  0.00    +0.050 A 
ATOM     30  C   UNL     1       5.528  10.655   2.530  0.00  0.00    +0.162 A 
ATOM     31  C   UNL     1       3.609  11.972   3.871  0.00  0.00    +0.270 C 
ATOM     32  C   UNL     1       3.953  12.357   2.445  0.00  0.00    +0.270 C 
ENDBRANCH  18  21
ENDBRANCH  11   7
BRANCH  12   1
ATOM      1  O   UNL     1       9.414   7.558   7.855  0.00  0.00    -0.387 OA
ATOM     34  H   UNL     1      10.048   7.286   8.540  0.00  0.00    +0.210 HD
ENDBRANCH  12   1
BRANCH  14   2
ATOM      2  O   UNL     1      11.309   5.577   7.702  0.00  0.00    -0.389 OA
ATOM     35  H   UNL     1      11.796   4.768   7.934  0.00  0.00    +0.210 HD
ENDBRANCH  14   2
TORSDOF 6
ENDMDL
MODEL 6
REMARK VINA RESULT:      -7.1     31.424     35.454
REMARK  Name = 75536090
REMARK  6 active torsions:
REMARK  status: ('A' for Active; 'I' for Inactive)
REMARK    1  A    between atoms: O_1  and  C_12
REMARK    2  A    between atoms: O_2  and  C_14
REMARK    3  A    between atoms: N_7  and  C_11
REMARK    4  A    between atoms: N_9  and  C_20
REMARK    5  A    between atoms: C_10  and  C_15
REMARK    6  A    between atoms: C_18  and  C_21
REMARK                            x       y       z     vdW  Elec       q    Type
REMARK                         _______ _______ _______ _____ _____    ______ ____
ROOT
ATOM     10  C   UNL     1      19.661   9.061  21.553  0.00  0.00    +0.046 C 
ATOM     11  C   UNL     1      20.295   8.293  22.735  0.00  0.00    +0.112 C 
ATOM     12  C   UNL     1      21.281   9.300  23.327  0.00  0.00    +0.164 C 
ATOM     13  C   UNL     1      19.844  10.566  21.880  0.00  0.00    +0.044 C 
ATOM     14  C   UNL     1      20.516  10.616  23.251  0.00  0.00    +0.145 C 
ENDROOT
BRANCH  10  15
ATOM      8  N   UNL     1      15.875   9.194  21.367  0.00  0.00    -0.240 NA
ATOM     15  C   UNL     1      18.229   8.651  21.281  0.00  0.00    -0.024 A 
ATOM     16  C   UNL     1      17.931   7.412  20.725  0.00  0.00    +0.009 A 
ATOM     17  C   UNL     1      17.175   9.498  21.581  0.00  0.00    +0.116 A 
ATOM     19  C   UNL     1      16.606   7.064  20.489  0.00  0.00    +0.044 A 
ATOM     20  C   UNL     1      15.624   7.981  20.825  0.00  0.00    +0.121 A 
BRANCH  20   9
ATOM      4  O   UNL     1      11.570   7.153  20.079  0.00  0.00    -0.377 OA
ATOM      9  N   UNL     1      14.296   7.615  20.582  0.00  0.00    -0.311 N 
ATOM     22  C   UNL     1      13.720   7.927  19.267  0.00  0.00    +0.134 C 
ATOM     23  C   UNL     1      13.335   7.570  21.689  0.00  0.00    +0.134 C 
ATOM     24  C   UNL     1      12.509   7.037  19.011  0.00  0.00    +0.178 C 
ATOM     25  C   UNL     1      12.145   6.700  21.304  0.00  0.00    +0.178 C 
ENDBRANCH  20   9
ENDBRANCH  10  15
BRANCH  11   7
ATOM      3  O   UNL     1      20.968   6.029  24.368  0.00  0.00    -0.270 OA
ATOM      7  N   UNL     1      20.954   7.086  22.304  0.00  0.00    -0.305 N 
ATOM     18  C   UNL     1      21.240   6.039  23.170  0.00  0.00    +0.245 C 
ATOM     33  H   UNL     1      21.231   7.038  21.329  0.00  0.00    +0.149 HD
BRANCH  18  21
ATOM      5  O   UNL     1      24.930   2.887  23.216  0.00  0.00    -0.485 OA
ATOM      6  O   UNL     1      23.846   1.587  20.883  0.00  0.00    -0.485 OA
ATOM     21  C   UNL     1      21.946   4.875  22.575  0.00  0.00    +0.040 A 
ATOM     26  C   UNL     1      23.114   4.392  23.167  0.00  0.00    +0.062 A 
ATOM     27  C   UNL     1      21.442   4.269  21.424  0.00  0.00    +0.017 A 
ATOM     28  C   UNL     1      23.778   3.303  22.603  0.00  0.00    +0.163 A 
ATOM     29  C   UNL     1      22.098   3.172  20.867  0.00  0.00    +0.050 A 
ATOM     30  C   UNL     1      23.259   2.680  21.465  0.00  0.00    +0.162 A 
ATOM     31  C   UNL     1      25.696   2.017  22.379  0.00  0.00    +0.270 C 
ATOM     32  C   UNL     1      24.799   0.967  21.752  0.00  0.00    +0.270 C 
ENDBRANCH  18  21
ENDBRANCH  11   7
BRANCH  12   1
ATOM      1  O   UNL     1      21.631   8.988  24.662  0.00  0.00    -0.387 OA
ATOM     34  H   UNL     1      20.879   9.236  25.226  0.00  0.00    +0.210 HD
ENDBRANCH  12   1
BRANCH  14   2
ATOM      2  O   UNL     1      19.505  10.677  24.253  0.00  0.00    -0.389 OA
ATOM     35  H   UNL     1      19.138   9.782  24.352  0.00  0.00    +0.210 HD
ENDBRANCH  14   2
TORSDOF 6
ENDMDL
MODEL 7
REMARK VINA RESULT:      -7.1     17.045     19.499
REMARK  Name = 75536090
REMARK  6 active torsions:
REMARK  status: ('A' for Active; 'I' for Inactive)
REMARK    1  A    between atoms: O_1  and  C_12
REMARK    2  A    between atoms: O_2  and  C_14
REMARK    3  A    between atoms: N_7  and  C_11
REMARK    4  A    between atoms: N_9  and  C_20
REMARK    5  A    between atoms: C_10  and  C_15
REMARK    6  A    between atoms: C_18  and  C_21
REMARK                            x       y       z     vdW  Elec       q    Type
REMARK                         _______ _______ _______ _____ _____    ______ ____
ROOT
ATOM     10  C   UNL     1      -8.760 -11.891  17.356  0.00  0.00    +0.046 C 
ATOM     11  C   UNL     1      -9.184 -10.653  18.179  0.00  0.00    +0.112 C 
ATOM     12  C   UNL     1      -9.669 -11.251  19.499  0.00  0.00    +0.164 C 
ATOM     13  C   UNL     1      -8.462 -13.005  18.392  0.00  0.00    +0.044 C 
ATOM     14  C   UNL     1      -8.662 -12.364  19.765  0.00  0.00    +0.145 C 
ENDROOT
BRANCH  10  15
ATOM      8  N   UNL     1      -6.711 -11.764  14.167  0.00  0.00    -0.240 NA
ATOM     15  C   UNL     1      -7.621 -11.606  16.401  0.00  0.00    -0.024 A 
ATOM     16  C   UNL     1      -6.469 -10.957  16.832  0.00  0.00    +0.009 A 
ATOM     17  C   UNL     1      -7.692 -11.986  15.071  0.00  0.00    +0.116 A 
ATOM     19  C   UNL     1      -5.439 -10.710  15.931  0.00  0.00    +0.044 A 
ATOM     20  C   UNL     1      -5.608 -11.130  14.623  0.00  0.00    +0.121 A 
BRANCH  20   9
ATOM      4  O   UNL     1      -2.445 -10.109  12.047  0.00  0.00    -0.377 OA
ATOM      9  N   UNL     1      -4.562 -10.876  13.729  0.00  0.00    -0.311 N 
ATOM     22  C   UNL     1      -3.218 -10.652  14.280  0.00  0.00    +0.134 C 
ATOM     23  C   UNL     1      -4.834 -10.200  12.456  0.00  0.00    +0.134 C 
ATOM     24  C   UNL     1      -2.171 -10.902  13.201  0.00  0.00    +0.178 C 
ATOM     25  C   UNL     1      -3.700 -10.473  11.474  0.00  0.00    +0.178 C 
ENDBRANCH  20   9
ENDBRANCH  10  15
BRANCH  11   7
ATOM      3  O   UNL     1      -8.918  -8.039  17.021  0.00  0.00    -0.270 OA
ATOM      7  N   UNL     1     -10.217  -9.894  17.520  0.00  0.00    -0.305 N 
ATOM     18  C   UNL     1      -9.993  -8.631  16.989  0.00  0.00    +0.245 C 
ATOM     33  H   UNL     1     -11.139 -10.314  17.481  0.00  0.00    +0.149 HD
BRANCH  18  21
ATOM      5  O   UNL     1     -11.836  -5.361  13.913  0.00  0.00    -0.485 OA
ATOM      6  O   UNL     1     -14.502  -6.191  14.629  0.00  0.00    -0.485 OA
ATOM     21  C   UNL     1     -11.169  -7.969  16.365  0.00  0.00    +0.040 A 
ATOM     26  C   UNL     1     -10.980  -6.971  15.409  0.00  0.00    +0.062 A 
ATOM     27  C   UNL     1     -12.459  -8.345  16.740  0.00  0.00    +0.017 A 
ATOM     28  C   UNL     1     -12.085  -6.348  14.830  0.00  0.00    +0.163 A 
ATOM     29  C   UNL     1     -13.565  -7.731  16.152  0.00  0.00    +0.050 A 
ATOM     30  C   UNL     1     -13.377  -6.742  15.185  0.00  0.00    +0.162 A 
ATOM     31  C   UNL     1     -12.999  -4.570  13.651  0.00  0.00    +0.270 C 
ATOM     32  C   UNL     1     -14.205  -5.463  13.435  0.00  0.00    +0.270 C 
ENDBRANCH  18  21
ENDBRANCH  11   7
BRANCH  12   1
ATOM      1  O   UNL     1      -9.672 -10.303  20.549  0.00  0.00    -0.387 OA
ATOM     34  H   UNL     1     -10.488 -10.438  21.061  0.00  0.00    +0.210 HD
ENDBRANCH  12   1
BRANCH  14   2
ATOM      2  O   UNL     1      -7.417 -11.830  20.205  0.00  0.00    -0.389 OA
ATOM     35  H   UNL     1      -7.509 -11.614  21.149  0.00  0.00    +0.210 HD
ENDBRANCH  14   2
TORSDOF 6
ENDMDL
MODEL 8
REMARK VINA RESULT:      -7.1     19.609     22.943
REMARK  Name = 75536090
REMARK  6 active torsions:
REMARK  status: ('A' for Active; 'I' for Inactive)
REMARK    1  A    between atoms: O_1  and  C_12
REMARK    2  A    between atoms: O_2  and  C_14
REMARK    3  A    between atoms: N_7  and  C_11
REMARK    4  A    between atoms: N_9  and  C_20
REMARK    5  A    between atoms: C_10  and  C_15
REMARK    6  A    between atoms: C_18  and  C_21
REMARK                            x       y       z     vdW  Elec       q    Type
REMARK                         _______ _______ _______ _____ _____    ______ ____
ROOT
ATOM     10  C   UNL     1      -3.450 -10.548  14.838  0.00  0.00    +0.046 C 
ATOM     11  C   UNL     1      -3.632 -11.262  13.479  0.00  0.00    +0.112 C 
ATOM     12  C   UNL     1      -2.200 -11.578  13.049  0.00  0.00    +0.164 C 
ATOM     13  C   UNL     1      -2.071 -11.007  15.376  0.00  0.00    +0.044 C 
ATOM     14  C   UNL     1      -1.535 -12.005  14.352  0.00  0.00    +0.145 C 
ENDROOT
BRANCH  10  15
ATOM      8  N   UNL     1      -5.696 -12.237  17.386  0.00  0.00    -0.240 NA
ATOM     15  C   UNL     1      -4.603 -10.786  15.791  0.00  0.00    -0.024 A 
ATOM     16  C   UNL     1      -5.604  -9.836  15.957  0.00  0.00    +0.009 A 
ATOM     17  C   UNL     1      -4.694 -11.959  16.521  0.00  0.00    +0.116 A 
ATOM     19  C   UNL     1      -6.651 -10.085  16.838  0.00  0.00    +0.044 A 
ATOM     20  C   UNL     1      -6.651 -11.289  17.521  0.00  0.00    +0.121 A 
BRANCH  20   9
ATOM      4  O   UNL     1      -9.734 -11.798  20.336  0.00  0.00    -0.377 OA
ATOM      9  N   UNL     1      -7.711 -11.525  18.403  0.00  0.00    -0.311 N 
ATOM     22  C   UNL     1      -8.700 -10.455  18.601  0.00  0.00    +0.134 C 
ATOM     23  C   UNL     1      -7.526 -12.423  19.548  0.00  0.00    +0.134 C 
ATOM     24  C   UNL     1      -9.993 -11.045  19.151  0.00  0.00    +0.178 C 
ATOM     25  C   UNL     1      -8.882 -12.906  20.049  0.00  0.00    +0.178 C 
ENDBRANCH  20   9
ENDBRANCH  10  15
BRANCH  11   7
ATOM      3  O   UNL     1      -6.396 -11.426  12.719  0.00  0.00    -0.270 OA
ATOM      7  N   UNL     1      -4.311 -10.430  12.517  0.00  0.00    -0.305 N 
ATOM     18  C   UNL     1      -5.657 -10.585  12.214  0.00  0.00    +0.245 C 
ATOM     33  H   UNL     1      -3.753  -9.730  12.042  0.00  0.00    +0.149 HD
BRANCH  18  21
ATOM      5  O   UNL     1      -9.452  -8.616   9.917  0.00  0.00    -0.485 OA
ATOM      6  O   UNL     1      -7.656  -7.040   8.305  0.00  0.00    -0.485 OA
ATOM     21  C   UNL     1      -6.202  -9.665  11.182  0.00  0.00    +0.040 A 
ATOM     26  C   UNL     1      -7.582  -9.540  11.018  0.00  0.00    +0.062 A 
ATOM     27  C   UNL     1      -5.332  -8.930  10.376  0.00  0.00    +0.017 A 
ATOM     28  C   UNL     1      -8.090  -8.681  10.044  0.00  0.00    +0.163 A 
ATOM     29  C   UNL     1      -5.839  -8.060   9.410  0.00  0.00    +0.050 A 
ATOM     30  C   UNL     1      -7.219  -7.925   9.255  0.00  0.00    +0.162 A 
ATOM     31  C   UNL     1      -9.845  -7.992   8.691  0.00  0.00    +0.270 C 
ATOM     32  C   UNL     1      -9.042  -6.725   8.466  0.00  0.00    +0.270 C 
ENDBRANCH  18  21
ENDBRANCH  11   7
BRANCH  12   1
ATOM      1  O   UNL     1      -2.145 -12.611  12.083  0.00  0.00    -0.387 OA
ATOM     34  H   UNL     1      -1.301 -12.523  11.610  0.00  0.00    +0.210 HD
ENDBRANCH  12   1
BRANCH  14   2
ATOM      2  O   UNL     1      -1.949 -13.315  14.730  0.00  0.00    -0.389 OA
ATOM     35  H   UNL     1      -1.147 -13.849  14.861  0.00  0.00    +0.210 HD
ENDBRANCH  14   2
TORSDOF 6
ENDMDL
MODEL 9
REMARK VINA RESULT:      -6.8     30.331     34.295
REMARK  Name = 75536090
REMARK  6 active torsions:
REMARK  status: ('A' for Active; 'I' for Inactive)
REMARK    1  A    between atoms: O_1  and  C_12
REMARK    2  A    between atoms: O_2  and  C_14
REMARK    3  A    between atoms: N_7  and  C_11
REMARK    4  A    between atoms: N_9  and  C_20
REMARK    5  A    between atoms: C_10  and  C_15
REMARK    6  A    between atoms: C_18  and  C_21
REMARK                            x       y       z     vdW  Elec       q    Type
REMARK                         _______ _______ _______ _____ _____    ______ ____
ROOT
ATOM     10  C   UNL     1      10.382   8.479   4.702  0.00  0.00    +0.046 C 
ATOM     11  C   UNL     1      10.458   6.941   4.836  0.00  0.00    +0.112 C 
ATOM     12  C   UNL     1      11.399   6.733   6.022  0.00  0.00    +0.164 C 
ATOM     13  C   UNL     1      10.757   9.044   6.096  0.00  0.00    +0.044 C 
ATOM     14  C   UNL     1      10.976   7.828   6.994  0.00  0.00    +0.145 C 
ENDROOT
BRANCH  10  15
ATOM      8  N   UNL     1       6.906   9.995   4.603  0.00  0.00    -0.240 NA
ATOM     15  C   UNL     1       9.048   8.962   4.171  0.00  0.00    -0.024 A 
ATOM     16  C   UNL     1       8.722   8.831   2.826  0.00  0.00    +0.009 A 
ATOM     17  C   UNL     1       8.114   9.545   5.011  0.00  0.00    +0.116 A 
ATOM     19  C   UNL     1       7.488   9.282   2.368  0.00  0.00    +0.044 A 
ATOM     20  C   UNL     1       6.624   9.850   3.289  0.00  0.00    +0.121 A 
BRANCH  20   9
ATOM      4  O   UNL     1       3.044  11.367   1.687  0.00  0.00    -0.377 OA
ATOM      9  N   UNL     1       5.387  10.298   2.814  0.00  0.00    -0.311 N 
ATOM     22  C   UNL     1       5.034  10.007   1.417  0.00  0.00    +0.134 C 
ATOM     23  C   UNL     1       4.787  11.517   3.368  0.00  0.00    +0.134 C 
ATOM     24  C   UNL     1       3.523  10.099   1.239  0.00  0.00    +0.178 C 
ATOM     25  C   UNL     1       3.290  11.529   3.084  0.00  0.00    +0.178 C 
ENDBRANCH  20   9
ENDBRANCH  10  15
BRANCH  11   7
ATOM      3  O   UNL     1      10.200   4.176   4.103  0.00  0.00    -0.270 OA
ATOM      7  N   UNL     1      10.958   6.318   3.636  0.00  0.00    -0.305 N 
ATOM     18  C   UNL     1      10.785   4.967   3.367  0.00  0.00    +0.245 C 
ATOM     33  H   UNL     1      11.474   6.909   2.994  0.00  0.00    +0.149 HD
BRANCH  18  21
ATOM      5  O   UNL     1      10.396   4.016  -1.376  0.00  0.00    -0.485 OA
ATOM      6  O   UNL     1      13.134   3.119  -1.419  0.00  0.00    -0.485 OA
ATOM     21  C   UNL     1      11.383   4.473   2.100  0.00  0.00    +0.040 A 
ATOM     26  C   UNL     1      10.629   4.477   0.926  0.00  0.00    +0.062 A 
ATOM     27  C   UNL     1      12.696   4.003   2.087  0.00  0.00    +0.017 A 
ATOM     28  C   UNL     1      11.191   4.007  -0.261  0.00  0.00    +0.163 A 
ATOM     29  C   UNL     1      13.264   3.545   0.898  0.00  0.00    +0.050 A 
ATOM     30  C   UNL     1      12.515   3.561  -0.280  0.00  0.00    +0.162 A 
ATOM     31  C   UNL     1      10.938   3.210  -2.426  0.00  0.00    +0.270 C 
ATOM     32  C   UNL     1      12.417   3.497  -2.597  0.00  0.00    +0.270 C 
ENDBRANCH  18  21
ENDBRANCH  11   7
BRANCH  12   1
ATOM      1  O   UNL     1      11.256   5.450   6.602  0.00  0.00    -0.387 OA
ATOM     34  H   UNL     1      11.490   5.528   7.542  0.00  0.00    +0.210 HD
ENDBRANCH  12   1
BRANCH  14   2
ATOM      2  O   UNL     1       9.743   7.499   7.627  0.00  0.00    -0.389 OA
ATOM     35  H   UNL     1       9.689   8.017   8.448  0.00  0.00    +0.210 HD
ENDBRANCH  14   2
TORSDOF 6
ENDMDL
MODEL 10
REMARK VINA RESULT:      -6.8     19.326     21.711
REMARK  Name = 75536090
REMARK  6 active torsions:
REMARK  status: ('A' for Active; 'I' for Inactive)
REMARK    1  A    between atoms: O_1  and  C_12
REMARK    2  A    between atoms: O_2  and  C_14
REMARK    3  A    between atoms: N_7  and  C_11
REMARK    4  A    between atoms: N_9  and  C_20
REMARK    5  A    between atoms: C_10  and  C_15
REMARK    6  A    between atoms: C_18  and  C_21
REMARK                            x       y       z     vdW  Elec       q    Type
REMARK                         _______ _______ _______ _____ _____    ______ ____
ROOT
ATOM     10  C   UNL     1      -8.677  -9.210   8.383  0.00  0.00    +0.046 C 
ATOM     11  C   UNL     1      -7.180  -8.939   8.655  0.00  0.00    +0.112 C 
ATOM     12  C   UNL     1      -6.471  -9.688   7.527  0.00  0.00    +0.164 C 
ATOM     13  C   UNL     1      -8.776  -9.555   6.875  0.00  0.00    +0.044 C 
ATOM     14  C   UNL     1      -7.360  -9.414   6.320  0.00  0.00    +0.145 C 
ENDROOT
BRANCH  10  15
ATOM      8  N   UNL     1     -11.497  -7.331  10.088  0.00  0.00    -0.240 NA
ATOM     15  C   UNL     1      -9.574  -8.073   8.824  0.00  0.00    -0.024 A 
ATOM     16  C   UNL     1      -9.340  -6.769   8.402  0.00  0.00    +0.009 A 
ATOM     17  C   UNL     1     -10.656  -8.300   9.659  0.00  0.00    +0.116 A 
ATOM     19  C   UNL     1     -10.182  -5.746   8.822  0.00  0.00    +0.044 A 
ATOM     20  C   UNL     1     -11.237  -6.077   9.657  0.00  0.00    +0.121 A 
BRANCH  20   9
ATOM      4  O   UNL     1     -13.927  -3.144  11.015  0.00  0.00    -0.377 OA
ATOM      9  N   UNL     1     -12.077  -5.037  10.070  0.00  0.00    -0.311 N 
ATOM     22  C   UNL     1     -12.214  -4.788  11.512  0.00  0.00    +0.134 C 
ATOM     23  C   UNL     1     -13.244  -4.673   9.260  0.00  0.00    +0.134 C 
ATOM     24  C   UNL     1     -12.720  -3.369  11.743  0.00  0.00    +0.178 C 
ATOM     25  C   UNL     1     -13.695  -3.260   9.612  0.00  0.00    +0.178 C 
ENDBRANCH  20   9
ENDBRANCH  10  15
BRANCH  11   7
ATOM      3  O   UNL     1      -4.898  -8.061  10.163  0.00  0.00    -0.270 OA
ATOM      7  N   UNL     1      -6.772  -9.412   9.955  0.00  0.00    -0.305 N 
ATOM     18  C   UNL     1      -5.648  -8.926  10.609  0.00  0.00    +0.245 C 
ATOM     33  H   UNL     1      -7.333 -10.147  10.371  0.00  0.00    +0.149 HD
BRANCH  18  21
ATOM      5  O   UNL     1      -2.573 -11.219  13.582  0.00  0.00    -0.485 OA
ATOM      6  O   UNL     1      -4.565 -11.185  15.665  0.00  0.00    -0.485 OA
ATOM     21  C   UNL     1      -5.348  -9.536  11.930  0.00  0.00    +0.040 A 
ATOM     26  C   UNL     1      -4.092 -10.093  12.171  0.00  0.00    +0.062 A 
ATOM     27  C   UNL     1      -6.325  -9.553  12.926  0.00  0.00    +0.017 A 
ATOM     28  C   UNL     1      -3.816 -10.670  13.411  0.00  0.00    +0.163 A 
ATOM     29  C   UNL     1      -6.046 -10.118  14.170  0.00  0.00    +0.050 A 
ATOM     30  C   UNL     1      -4.785 -10.664  14.417  0.00  0.00    +0.162 A 
ATOM     31  C   UNL     1      -2.518 -12.070  14.730  0.00  0.00    +0.270 C 
ATOM     32  C   UNL     1      -3.172 -11.392  15.918  0.00  0.00    +0.270 C 
ENDBRANCH  18  21
ENDBRANCH  11   7
BRANCH  12   1
ATOM      1  O   UNL     1      -5.155  -9.213   7.312  0.00  0.00    -0.387 OA
ATOM     34  H   UNL     1      -4.550  -9.963   7.441  0.00  0.00    +0.210 HD
ENDBRANCH  12   1
BRANCH  14   2
ATOM      2  O   UNL     1      -7.184  -8.081   5.849  0.00  0.00    -0.389 OA
ATOM     35  H   UNL     1      -7.338  -8.088   4.889  0.00  0.00    +0.210 HD
ENDBRANCH  14   2
TORSDOF 6
ENDMDL
