MODEL 1
REMARK VINA RESULT:      -7.0      0.000      0.000
REMARK  Name = 75368669
REMARK  4 active torsions:
REMARK  status: ('A' for Active; 'I' for Inactive)
REMARK    1  A    between atoms: N_4  and  C_10
REMARK    2  A    between atoms: N_5  and  C_16
REMARK    3  A    between atoms: N_6  and  C_25
REMARK    4  A    between atoms: C_16  and  C_19
REMARK                            x       y       z     vdW  Elec       q    Type
REMARK                         _______ _______ _______ _____ _____    ______ ____
ROOT
ATOM      2  O   UNL     1      16.574   9.705  21.405  0.00  0.00    -0.252 OA
ATOM      3  N   UNL     1      18.055   7.881  21.429  0.00  0.00    -0.278 N 
ATOM      4  N   UNL     1      16.032   7.599  20.494  0.00  0.00    -0.280 N 
ATOM      5  N   UNL     1      20.464   6.452  21.172  0.00  0.00    -0.295 NA
ATOM      7  C   UNL     1      18.003   6.474  21.092  0.00  0.00    +0.109 C 
ATOM      8  C   UNL     1      16.731   6.346  20.258  0.00  0.00    +0.133 C 
ATOM      9  C   UNL     1      19.286   6.052  20.375  0.00  0.00    +0.109 C 
ATOM     11  C   UNL     1      19.233   8.412  22.081  0.00  0.00    +0.125 C 
ATOM     12  C   UNL     1      16.851   8.542  21.147  0.00  0.00    +0.305 C 
ATOM     13  C   UNL     1      20.494   7.916  21.368  0.00  0.00    +0.104 C 
ENDROOT
BRANCH   4  10
ATOM      1  O   UNL     1      12.320   6.843  18.723  0.00  0.00    -0.380 OA
ATOM     10  C   UNL     1      14.713   7.848  19.969  0.00  0.00    +0.082 C 
ATOM     14  C   UNL     1      13.659   7.052  20.740  0.00  0.00    +0.050 C 
ATOM     15  C   UNL     1      14.641   7.518  18.478  0.00  0.00    +0.050 C 
ATOM     17  C   UNL     1      12.286   7.218  20.100  0.00  0.00    +0.161 C 
ATOM     18  C   UNL     1      13.213   7.660  17.965  0.00  0.00    +0.161 C 
ENDBRANCH   4  10
BRANCH   5  16
ATOM     16  C   UNL     1      21.695   5.999  20.524  0.00  0.00    +0.121 C 
BRANCH  16  19
ATOM      6  N   UNL     1      22.730   3.303  22.804  0.00  0.00    -0.349 N 
ATOM     19  C   UNL     1      22.335   4.860  21.272  0.00  0.00    -0.008 A 
ATOM     20  C   UNL     1      23.513   4.157  20.898  0.00  0.00    +0.004 A 
ATOM     21  C   UNL     1      21.876   4.312  22.449  0.00  0.00    +0.091 A 
ATOM     22  C   UNL     1      23.740   3.185  21.875  0.00  0.00    +0.049 A 
ATOM     23  C   UNL     1      24.412   4.253  19.817  0.00  0.00    +0.010 A 
ATOM     24  C   UNL     1      24.824   2.302  21.826  0.00  0.00    +0.026 A 
ATOM     25  C   UNL     1      22.579   2.486  23.990  0.00  0.00    +0.149 C 
ATOM     26  C   UNL     1      25.502   3.377  19.755  0.00  0.00    +0.001 A 
ATOM     27  C   UNL     1      25.702   2.417  20.745  0.00  0.00    +0.002 A 
ENDBRANCH  16  19
ENDBRANCH   5  16
TORSDOF 3
ENDMDL
MODEL 2
REMARK VINA RESULT:      -6.9     33.060     35.807
REMARK  Name = 75368669
REMARK  4 active torsions:
REMARK  status: ('A' for Active; 'I' for Inactive)
REMARK    1  A    between atoms: N_4  and  C_10
REMARK    2  A    between atoms: N_5  and  C_16
REMARK    3  A    between atoms: N_6  and  C_25
REMARK    4  A    between atoms: C_16  and  C_19
REMARK                            x       y       z     vdW  Elec       q    Type
REMARK                         _______ _______ _______ _____ _____    ______ ____
ROOT
ATOM      2  O   UNL     1     -17.479   3.813  21.785  0.00  0.00    -0.252 OA
ATOM      3  N   UNL     1     -16.827   3.027  23.901  0.00  0.00    -0.278 N 
ATOM      4  N   UNL     1     -15.517   4.536  22.876  0.00  0.00    -0.280 N 
ATOM      5  N   UNL     1     -17.048   2.247  26.594  0.00  0.00    -0.295 NA
ATOM      7  C   UNL     1     -15.672   3.153  24.765  0.00  0.00    +0.109 C 
ATOM      8  C   UNL     1     -14.908   4.338  24.181  0.00  0.00    +0.133 C 
ATOM      9  C   UNL     1     -16.112   3.327  26.219  0.00  0.00    +0.109 C 
ATOM     11  C   UNL     1     -17.881   2.101  24.257  0.00  0.00    +0.125 C 
ATOM     12  C   UNL     1     -16.704   3.791  22.732  0.00  0.00    +0.305 C 
ATOM     13  C   UNL     1     -18.249   2.268  25.734  0.00  0.00    +0.104 C 
ENDROOT
BRANCH   4  10
ATOM      1  O   UNL     1     -13.501   7.905  21.434  0.00  0.00    -0.380 OA
ATOM     10  C   UNL     1     -15.011   5.505  21.936  0.00  0.00    +0.082 C 
ATOM     14  C   UNL     1     -13.482   5.530  21.946  0.00  0.00    +0.050 C 
ATOM     15  C   UNL     1     -15.565   6.900  22.228  0.00  0.00    +0.050 C 
ATOM     17  C   UNL     1     -12.956   6.643  21.049  0.00  0.00    +0.161 C 
ATOM     18  C   UNL     1     -14.924   7.936  21.313  0.00  0.00    +0.161 C 
ENDBRANCH   4  10
BRANCH   5  16
ATOM     16  C   UNL     1     -17.428   2.369  28.001  0.00  0.00    +0.121 C 
BRANCH  16  19
ATOM      6  N   UNL     1     -14.640   0.950  29.939  0.00  0.00    -0.349 N 
ATOM     19  C   UNL     1     -16.281   2.045  28.922  0.00  0.00    -0.008 A 
ATOM     20  C   UNL     1     -15.696   2.914  29.884  0.00  0.00    +0.004 A 
ATOM     21  C   UNL     1     -15.611   0.845  28.979  0.00  0.00    +0.091 A 
ATOM     22  C   UNL     1     -14.668   2.203  30.508  0.00  0.00    +0.049 A 
ATOM     23  C   UNL     1     -15.942   4.242  30.286  0.00  0.00    +0.010 A 
ATOM     24  C   UNL     1     -13.872   2.755  31.517  0.00  0.00    +0.026 A 
ATOM     25  C   UNL     1     -13.723  -0.113  30.291  0.00  0.00    +0.149 C 
ATOM     26  C   UNL     1     -15.153   4.808  31.295  0.00  0.00    +0.001 A 
ATOM     27  C   UNL     1     -14.134   4.074  31.899  0.00  0.00    +0.002 A 
ENDBRANCH  16  19
ENDBRANCH   5  16
TORSDOF 3
ENDMDL
MODEL 3
REMARK VINA RESULT:      -6.7     29.110     31.126
REMARK  Name = 75368669
REMARK  4 active torsions:
REMARK  status: ('A' for Active; 'I' for Inactive)
REMARK    1  A    between atoms: N_4  and  C_10
REMARK    2  A    between atoms: N_5  and  C_16
REMARK    3  A    between atoms: N_6  and  C_25
REMARK    4  A    between atoms: C_16  and  C_19
REMARK                            x       y       z     vdW  Elec       q    Type
REMARK                         _______ _______ _______ _____ _____    ______ ____
ROOT
ATOM      2  O   UNL     1      -5.824 -10.262  18.893  0.00  0.00    -0.252 OA
ATOM      3  N   UNL     1      -5.245 -10.919  16.713  0.00  0.00    -0.278 N 
ATOM      4  N   UNL     1      -7.275 -10.020  17.050  0.00  0.00    -0.280 N 
ATOM      5  N   UNL     1      -3.686 -11.232  14.393  0.00  0.00    -0.295 NA
ATOM      7  C   UNL     1      -5.909 -11.031  15.432  0.00  0.00    +0.109 C 
ATOM      8  C   UNL     1      -7.187 -10.216  15.613  0.00  0.00    +0.133 C 
ATOM      9  C   UNL     1      -4.990 -10.542  14.312  0.00  0.00    +0.109 C 
ATOM     11  C   UNL     1      -3.899 -11.432  16.862  0.00  0.00    +0.125 C 
ATOM     12  C   UNL     1      -6.083 -10.389  17.704  0.00  0.00    +0.305 C 
ATOM     13  C   UNL     1      -3.029 -10.969  15.690  0.00  0.00    +0.104 C 
ENDROOT
BRANCH   4  10
ATOM      1  O   UNL     1     -11.250  -8.907  17.719  0.00  0.00    -0.380 OA
ATOM     10  C   UNL     1      -8.411  -9.381  17.666  0.00  0.00    +0.082 C 
ATOM     14  C   UNL     1      -9.406 -10.418  18.186  0.00  0.00    +0.050 C 
ATOM     15  C   UNL     1      -9.102  -8.426  16.692  0.00  0.00    +0.050 C 
ATOM     17  C   UNL     1     -10.662  -9.739  18.718  0.00  0.00    +0.161 C 
ATOM     18  C   UNL     1     -10.374  -7.857  17.309  0.00  0.00    +0.161 C 
ENDBRANCH   4  10
BRANCH   5  16
ATOM     16  C   UNL     1      -2.820 -10.816  13.290  0.00  0.00    +0.121 C 
BRANCH  16  19
ATOM      6  N   UNL     1      -3.812 -12.850  10.389  0.00  0.00    -0.349 N 
ATOM     19  C   UNL     1      -3.270 -11.396  11.975  0.00  0.00    -0.008 A 
ATOM     20  C   UNL     1      -3.666 -10.667  10.820  0.00  0.00    +0.004 A 
ATOM     21  C   UNL     1      -3.370 -12.736  11.680  0.00  0.00    +0.091 A 
ATOM     22  C   UNL     1      -4.002 -11.602   9.839  0.00  0.00    +0.049 A 
ATOM     23  C   UNL     1      -3.773  -9.296  10.513  0.00  0.00    +0.010 A 
ATOM     24  C   UNL     1      -4.440 -11.235   8.563  0.00  0.00    +0.026 A 
ATOM     25  C   UNL     1      -4.043 -14.110   9.715  0.00  0.00    +0.149 C 
ATOM     26  C   UNL     1      -4.210  -8.913   9.239  0.00  0.00    +0.001 A 
ATOM     27  C   UNL     1      -4.538  -9.869   8.281  0.00  0.00    +0.002 A 
ENDBRANCH  16  19
ENDBRANCH   5  16
TORSDOF 3
ENDMDL
MODEL 4
REMARK VINA RESULT:      -6.6     31.231     34.345
REMARK  Name = 75368669
REMARK  4 active torsions:
REMARK  status: ('A' for Active; 'I' for Inactive)
REMARK    1  A    between atoms: N_4  and  C_10
REMARK    2  A    between atoms: N_5  and  C_16
REMARK    3  A    between atoms: N_6  and  C_25
REMARK    4  A    between atoms: C_16  and  C_19
REMARK                            x       y       z     vdW  Elec       q    Type
REMARK                         _______ _______ _______ _____ _____    ______ ____
ROOT
ATOM      2  O   UNL     1     -18.407   4.610  22.139  0.00  0.00    -0.252 OA
ATOM      3  N   UNL     1     -16.214   5.401  22.432  0.00  0.00    -0.278 N 
ATOM      4  N   UNL     1     -16.858   3.593  23.598  0.00  0.00    -0.280 N 
ATOM      5  N   UNL     1     -13.673   6.402  21.760  0.00  0.00    -0.295 NA
ATOM      7  C   UNL     1     -15.094   5.112  23.302  0.00  0.00    +0.109 C 
ATOM      8  C   UNL     1     -15.449   3.759  23.914  0.00  0.00    +0.133 C 
ATOM      9  C   UNL     1     -13.786   5.134  22.510  0.00  0.00    +0.109 C 
ATOM     11  C   UNL     1     -16.146   6.541  21.542  0.00  0.00    +0.125 C 
ATOM     12  C   UNL     1     -17.302   4.547  22.660  0.00  0.00    +0.305 C 
ATOM     13  C   UNL     1     -14.798   6.558  20.815  0.00  0.00    +0.104 C 
ENDROOT
BRANCH   4  10
ATOM      1  O   UNL     1     -17.811  -0.341  24.649  0.00  0.00    -0.380 OA
ATOM     10  C   UNL     1     -17.626   2.478  24.093  0.00  0.00    +0.082 C 
ATOM     14  C   UNL     1     -16.937   1.832  25.296  0.00  0.00    +0.050 C 
ATOM     15  C   UNL     1     -17.861   1.439  22.996  0.00  0.00    +0.050 C 
ATOM     17  C   UNL     1     -17.684   0.578  25.734  0.00  0.00    +0.161 C 
ATOM     18  C   UNL     1     -18.558   0.208  23.563  0.00  0.00    +0.161 C 
ENDBRANCH   4  10
BRANCH   5  16
ATOM     16  C   UNL     1     -12.397   6.459  21.046  0.00  0.00    +0.121 C 
BRANCH  16  19
ATOM      6  N   UNL     1     -11.978  10.053  20.374  0.00  0.00    -0.349 N 
ATOM     19  C   UNL     1     -12.110   7.842  20.524  0.00  0.00    -0.008 A 
ATOM     20  C   UNL     1     -11.503   8.168  19.279  0.00  0.00    +0.004 A 
ATOM     21  C   UNL     1     -12.390   9.022  21.175  0.00  0.00    +0.091 A 
ATOM     22  C   UNL     1     -11.431   9.561  19.210  0.00  0.00    +0.049 A 
ATOM     23  C   UNL     1     -11.006   7.410  18.201  0.00  0.00    +0.010 A 
ATOM     24  C   UNL     1     -10.886  10.236  18.113  0.00  0.00    +0.026 A 
ATOM     25  C   UNL     1     -12.104  11.453  20.718  0.00  0.00    +0.149 C 
ATOM     26  C   UNL     1     -10.458   8.071  17.096  0.00  0.00    +0.001 A 
ATOM     27  C   UNL     1     -10.400   9.463  17.055  0.00  0.00    +0.002 A 
ENDBRANCH  16  19
ENDBRANCH   5  16
TORSDOF 3
ENDMDL
MODEL 5
REMARK VINA RESULT:      -6.4     28.698     31.429
REMARK  Name = 75368669
REMARK  4 active torsions:
REMARK  status: ('A' for Active; 'I' for Inactive)
REMARK    1  A    between atoms: N_4  and  C_10
REMARK    2  A    between atoms: N_5  and  C_16
REMARK    3  A    between atoms: N_6  and  C_25
REMARK    4  A    between atoms: C_16  and  C_19
REMARK                            x       y       z     vdW  Elec       q    Type
REMARK                         _______ _______ _______ _____ _____    ______ ____
ROOT
ATOM      2  O   UNL     1      -1.930 -10.736  15.586  0.00  0.00    -0.252 OA
ATOM      3  N   UNL     1      -2.998 -10.747  13.493  0.00  0.00    -0.278 N 
ATOM      4  N   UNL     1      -4.269 -10.563  15.336  0.00  0.00    -0.280 N 
ATOM      5  N   UNL     1      -3.494 -10.124  10.796  0.00  0.00    -0.295 NA
ATOM      7  C   UNL     1      -4.360 -10.788  13.002  0.00  0.00    +0.109 C 
ATOM      8  C   UNL     1      -5.199 -10.434  14.227  0.00  0.00    +0.133 C 
ATOM      9  C   UNL     1      -4.526  -9.840  11.814  0.00  0.00    +0.109 C 
ATOM     11  C   UNL     1      -1.903 -10.866  12.555  0.00  0.00    +0.125 C 
ATOM     12  C   UNL     1      -2.938 -10.693  14.893  0.00  0.00    +0.305 C 
ATOM     13  C   UNL     1      -2.138  -9.945  11.355  0.00  0.00    +0.104 C 
ENDROOT
BRANCH   4  10
ATOM      1  O   UNL     1      -6.395 -11.258  18.870  0.00  0.00    -0.380 OA
ATOM     10  C   UNL     1      -4.690 -10.418  16.707  0.00  0.00    +0.082 C 
ATOM     14  C   UNL     1      -4.443 -11.705  17.494  0.00  0.00    +0.050 C 
ATOM     15  C   UNL     1      -6.163 -10.018  16.793  0.00  0.00    +0.050 C 
ATOM     17  C   UNL     1      -5.007 -11.591  18.905  0.00  0.00    +0.161 C 
ATOM     18  C   UNL     1      -6.630  -9.996  18.244  0.00  0.00    +0.161 C 
ENDBRANCH   4  10
BRANCH   5  16
ATOM     16  C   UNL     1      -3.681  -9.262   9.628  0.00  0.00    +0.121 C 
BRANCH  16  19
ATOM      6  N   UNL     1      -5.897 -10.967   7.236  0.00  0.00    -0.349 N 
ATOM     19  C   UNL     1      -4.782  -9.765   8.731  0.00  0.00    -0.008 A 
ATOM     20  C   UNL     1      -6.095  -9.231   8.623  0.00  0.00    +0.004 A 
ATOM     21  C   UNL     1      -4.690 -10.831   7.866  0.00  0.00    +0.091 A 
ATOM     22  C   UNL     1      -6.776 -10.003   7.679  0.00  0.00    +0.049 A 
ATOM     23  C   UNL     1      -6.775  -8.162   9.240  0.00  0.00    +0.010 A 
ATOM     24  C   UNL     1      -8.105  -9.759   7.319  0.00  0.00    +0.026 A 
ATOM     25  C   UNL     1      -6.192 -11.983   6.249  0.00  0.00    +0.149 C 
ATOM     26  C   UNL     1      -8.106  -7.905   8.889  0.00  0.00    +0.001 A 
ATOM     27  C   UNL     1      -8.758  -8.693   7.943  0.00  0.00    +0.002 A 
ENDBRANCH  16  19
ENDBRANCH   5  16
TORSDOF 3
ENDMDL
MODEL 6
REMARK VINA RESULT:      -6.4     28.585     30.919
REMARK  Name = 75368669
REMARK  4 active torsions:
REMARK  status: ('A' for Active; 'I' for Inactive)
REMARK    1  A    between atoms: N_4  and  C_10
REMARK    2  A    between atoms: N_5  and  C_16
REMARK    3  A    between atoms: N_6  and  C_25
REMARK    4  A    between atoms: C_16  and  C_19
REMARK                            x       y       z     vdW  Elec       q    Type
REMARK                         _______ _______ _______ _____ _____    ______ ____
ROOT
ATOM      2  O   UNL     1      -5.292 -10.397  18.948  0.00  0.00    -0.252 OA
ATOM      3  N   UNL     1      -4.692 -10.919  16.737  0.00  0.00    -0.278 N 
ATOM      4  N   UNL     1      -6.781 -10.196  17.131  0.00  0.00    -0.280 N 
ATOM      5  N   UNL     1      -3.144 -11.016  14.391  0.00  0.00    -0.295 NA
ATOM      7  C   UNL     1      -5.362 -11.030  15.459  0.00  0.00    +0.109 C 
ATOM      8  C   UNL     1      -6.698 -10.326  15.686  0.00  0.00    +0.133 C 
ATOM      9  C   UNL     1      -4.498 -10.427  14.351  0.00  0.00    +0.109 C 
ATOM     11  C   UNL     1      -3.309 -11.331  16.851  0.00  0.00    +0.125 C 
ATOM     12  C   UNL     1      -5.556 -10.496  17.758  0.00  0.00    +0.305 C 
ATOM     13  C   UNL     1      -2.493 -10.754  15.691  0.00  0.00    +0.104 C 
ENDROOT
BRANCH   4  10
ATOM      1  O   UNL     1     -10.825  -9.501  17.940  0.00  0.00    -0.380 OA
ATOM     10  C   UNL     1      -7.955  -9.672  17.784  0.00  0.00    +0.082 C 
ATOM     14  C   UNL     1      -8.815 -10.802  18.351  0.00  0.00    +0.050 C 
ATOM     15  C   UNL     1      -8.779  -8.808  16.828  0.00  0.00    +0.050 C 
ATOM     17  C   UNL     1     -10.116 -10.253  18.924  0.00  0.00    +0.161 C 
ATOM     18  C   UNL     1     -10.081  -8.369  17.488  0.00  0.00    +0.161 C 
ENDBRANCH   4  10
BRANCH   5  16
ATOM     16  C   UNL     1      -2.327 -10.490  13.298  0.00  0.00    +0.121 C 
BRANCH  16  19
ATOM      6  N   UNL     1      -3.866 -10.424   9.956  0.00  0.00    -0.349 N 
ATOM     19  C   UNL     1      -2.956 -10.749  11.953  0.00  0.00    -0.008 A 
ATOM     20  C   UNL     1      -3.258 -12.019  11.391  0.00  0.00    +0.004 A 
ATOM     21  C   UNL     1      -3.341  -9.787  11.048  0.00  0.00    +0.091 A 
ATOM     22  C   UNL     1      -3.828 -11.789  10.137  0.00  0.00    +0.049 A 
ATOM     23  C   UNL     1      -3.101 -13.350  11.828  0.00  0.00    +0.010 A 
ATOM     24  C   UNL     1      -4.250 -12.824   9.296  0.00  0.00    +0.026 A 
ATOM     25  C   UNL     1      -4.382  -9.745   8.786  0.00  0.00    +0.149 C 
ATOM     26  C   UNL     1      -3.519 -14.396  10.998  0.00  0.00    +0.001 A 
ATOM     27  C   UNL     1      -4.084 -14.134   9.751  0.00  0.00    +0.002 A 
ENDBRANCH  16  19
ENDBRANCH   5  16
TORSDOF 3
ENDMDL
MODEL 7
REMARK VINA RESULT:      -6.3     28.511     31.204
REMARK  Name = 75368669
REMARK  4 active torsions:
REMARK  status: ('A' for Active; 'I' for Inactive)
REMARK    1  A    between atoms: N_4  and  C_10
REMARK    2  A    between atoms: N_5  and  C_16
REMARK    3  A    between atoms: N_6  and  C_25
REMARK    4  A    between atoms: C_16  and  C_19
REMARK                            x       y       z     vdW  Elec       q    Type
REMARK                         _______ _______ _______ _____ _____    ______ ____
ROOT
ATOM      2  O   UNL     1      -1.870 -11.008  15.896  0.00  0.00    -0.252 OA
ATOM      3  N   UNL     1      -2.853 -10.877  13.766  0.00  0.00    -0.278 N 
ATOM      4  N   UNL     1      -4.191 -10.752  15.565  0.00  0.00    -0.280 N 
ATOM      5  N   UNL     1      -3.221 -10.098  11.089  0.00  0.00    -0.295 NA
ATOM      7  C   UNL     1      -4.194 -10.851  13.221  0.00  0.00    +0.109 C 
ATOM      8  C   UNL     1      -5.072 -10.536  14.430  0.00  0.00    +0.133 C 
ATOM      9  C   UNL     1      -4.285  -9.838  12.080  0.00  0.00    +0.109 C 
ATOM     11  C   UNL     1      -1.723 -10.979  12.867  0.00  0.00    +0.125 C 
ATOM     12  C   UNL     1      -2.847 -10.898  15.168  0.00  0.00    +0.305 C 
ATOM     13  C   UNL     1      -1.884  -9.990  11.709  0.00  0.00    +0.104 C 
ENDROOT
BRANCH   4  10
ATOM      1  O   UNL     1      -6.457 -11.588  18.979  0.00  0.00    -0.380 OA
ATOM     10  C   UNL     1      -4.663 -10.666  16.925  0.00  0.00    +0.082 C 
ATOM     14  C   UNL     1      -4.457 -11.991  17.659  0.00  0.00    +0.050 C 
ATOM     15  C   UNL     1      -6.136 -10.257  16.973  0.00  0.00    +0.050 C 
ATOM     17  C   UNL     1      -5.074 -11.936  19.051  0.00  0.00    +0.161 C 
ATOM     18  C   UNL     1      -6.658 -10.297  18.404  0.00  0.00    +0.161 C 
ENDBRANCH   4  10
BRANCH   5  16
ATOM     16  C   UNL     1      -3.336  -9.172   9.963  0.00  0.00    +0.121 C 
BRANCH  16  19
ATOM      6  N   UNL     1      -6.698  -8.906   8.490  0.00  0.00    -0.349 N 
ATOM     19  C   UNL     1      -4.653  -9.320   9.247  0.00  0.00    -0.008 A 
ATOM     20  C   UNL     1      -5.061 -10.421   8.444  0.00  0.00    +0.004 A 
ATOM     21  C   UNL     1      -5.680  -8.404   9.256  0.00  0.00    +0.091 A 
ATOM     22  C   UNL     1      -6.347 -10.137   7.981  0.00  0.00    +0.049 A 
ATOM     23  C   UNL     1      -4.458 -11.637   8.065  0.00  0.00    +0.010 A 
ATOM     24  C   UNL     1      -7.063 -11.010   7.155  0.00  0.00    +0.026 A 
ATOM     25  C   UNL     1      -7.955  -8.227   8.258  0.00  0.00    +0.149 C 
ATOM     26  C   UNL     1      -5.163 -12.521   7.239  0.00  0.00    +0.001 A 
ATOM     27  C   UNL     1      -6.445 -12.209   6.793  0.00  0.00    +0.002 A 
ENDBRANCH  16  19
ENDBRANCH   5  16
TORSDOF 3
ENDMDL
MODEL 8
REMARK VINA RESULT:      -6.3     29.823     34.411
REMARK  Name = 75368669
REMARK  4 active torsions:
REMARK  status: ('A' for Active; 'I' for Inactive)
REMARK    1  A    between atoms: N_4  and  C_10
REMARK    2  A    between atoms: N_5  and  C_16
REMARK    3  A    between atoms: N_6  and  C_25
REMARK    4  A    between atoms: C_16  and  C_19
REMARK                            x       y       z     vdW  Elec       q    Type
REMARK                         _______ _______ _______ _____ _____    ______ ____
ROOT
ATOM      2  O   UNL     1      -8.323 -11.741  14.666  0.00  0.00    -0.252 OA
ATOM      3  N   UNL     1      -9.498  -9.944  15.621  0.00  0.00    -0.278 N 
ATOM      4  N   UNL     1      -7.589 -10.608  16.600  0.00  0.00    -0.280 N 
ATOM      5  N   UNL     1     -10.953  -7.541  15.769  0.00  0.00    -0.295 NA
ATOM      7  C   UNL     1      -9.408  -9.142  16.823  0.00  0.00    +0.109 C 
ATOM      8  C   UNL     1      -8.006  -9.436  17.352  0.00  0.00    +0.133 C 
ATOM      9  C   UNL     1      -9.677  -7.672  16.503  0.00  0.00    +0.109 C 
ATOM     11  C   UNL     1     -10.642  -9.786  14.748  0.00  0.00    +0.125 C 
ATOM     12  C   UNL     1      -8.457 -10.877  15.523  0.00  0.00    +0.305 C 
ATOM     13  C   UNL     1     -10.912  -8.300  14.502  0.00  0.00    +0.104 C 
ENDROOT
BRANCH   4  10
ATOM      1  O   UNL     1      -3.986 -11.562  18.497  0.00  0.00    -0.380 OA
ATOM     10  C   UNL     1      -6.347 -11.287  16.872  0.00  0.00    +0.082 C 
ATOM     14  C   UNL     1      -6.374 -11.942  18.253  0.00  0.00    +0.050 C 
ATOM     15  C   UNL     1      -5.159 -10.331  16.761  0.00  0.00    +0.050 C 
ATOM     17  C   UNL     1      -5.015 -12.547  18.588  0.00  0.00    +0.161 C 
ATOM     18  C   UNL     1      -3.869 -11.027  17.177  0.00  0.00    +0.161 C 
ENDBRANCH   4  10
BRANCH   5  16
ATOM     16  C   UNL     1     -11.251  -6.133  15.510  0.00  0.00    +0.121 C 
BRANCH  16  19
ATOM      6  N   UNL     1     -14.779  -6.153  14.465  0.00  0.00    -0.349 N 
ATOM     19  C   UNL     1     -12.609  -5.953  14.884  0.00  0.00    -0.008 A 
ATOM     20  C   UNL     1     -12.928  -5.113  13.782  0.00  0.00    +0.004 A 
ATOM     21  C   UNL     1     -13.767  -6.580  15.283  0.00  0.00    +0.091 A 
ATOM     22  C   UNL     1     -14.296  -5.256  13.539  0.00  0.00    +0.049 A 
ATOM     23  C   UNL     1     -12.182  -4.240  12.964  0.00  0.00    +0.010 A 
ATOM     24  C   UNL     1     -14.958  -4.568  12.516  0.00  0.00    +0.026 A 
ATOM     25  C   UNL     1     -16.154  -6.591  14.573  0.00  0.00    +0.149 C 
ATOM     26  C   UNL     1     -12.831  -3.546  11.936  0.00  0.00    +0.001 A 
ATOM     27  C   UNL     1     -14.198  -3.709  11.718  0.00  0.00    +0.002 A 
ENDBRANCH  16  19
ENDBRANCH   5  16
TORSDOF 3
ENDMDL
MODEL 9
REMARK VINA RESULT:      -6.2     32.355     35.895
REMARK  Name = 75368669
REMARK  4 active torsions:
REMARK  status: ('A' for Active; 'I' for Inactive)
REMARK    1  A    between atoms: N_4  and  C_10
REMARK    2  A    between atoms: N_5  and  C_16
REMARK    3  A    between atoms: N_6  and  C_25
REMARK    4  A    between atoms: C_16  and  C_19
REMARK                            x       y       z     vdW  Elec       q    Type
REMARK                         _______ _______ _______ _____ _____    ______ ____
ROOT
ATOM      2  O   UNL     1     -14.523  10.039  34.556  0.00  0.00    -0.252 OA
ATOM      3  N   UNL     1     -14.841   8.137  33.214  0.00  0.00    -0.278 N 
ATOM      4  N   UNL     1     -12.762   8.962  33.416  0.00  0.00    -0.280 N 
ATOM      5  N   UNL     1     -15.795   5.613  32.422  0.00  0.00    -0.295 NA
ATOM      7  C   UNL     1     -14.043   7.337  32.309  0.00  0.00    +0.109 C 
ATOM      8  C   UNL     1     -12.608   7.752  32.626  0.00  0.00    +0.133 C 
ATOM      9  C   UNL     1     -14.340   5.851  32.509  0.00  0.00    +0.109 C 
ATOM     11  C   UNL     1     -16.262   7.884  33.318  0.00  0.00    +0.125 C 
ATOM     12  C   UNL     1     -14.098   9.161  33.818  0.00  0.00    +0.305 C 
ATOM     13  C   UNL     1     -16.518   6.381  33.457  0.00  0.00    +0.104 C 
ENDROOT
BRANCH   4  10
ATOM      1  O   UNL     1      -8.847   9.879  34.566  0.00  0.00    -0.380 OA
ATOM     10  C   UNL     1     -11.629   9.748  33.838  0.00  0.00    +0.082 C 
ATOM     14  C   UNL     1     -10.506   9.688  32.802  0.00  0.00    +0.050 C 
ATOM     15  C   UNL     1     -11.116   9.289  35.203  0.00  0.00    +0.050 C 
ATOM     17  C   UNL     1      -9.265  10.412  33.310  0.00  0.00    +0.161 C 
ATOM     18  C   UNL     1      -9.843  10.038  35.578  0.00  0.00    +0.161 C 
ENDBRANCH   4  10
BRANCH   5  16
ATOM     16  C   UNL     1     -16.087   4.185  32.553  0.00  0.00    +0.121 C 
BRANCH  16  19
ATOM      6  N   UNL     1     -15.876   2.998  29.076  0.00  0.00    -0.349 N 
ATOM     19  C   UNL     1     -15.907   3.455  31.248  0.00  0.00    -0.008 A 
ATOM     20  C   UNL     1     -15.443   2.121  31.081  0.00  0.00    +0.004 A 
ATOM     21  C   UNL     1     -16.164   3.969  29.998  0.00  0.00    +0.091 A 
ATOM     22  C   UNL     1     -15.432   1.858  29.710  0.00  0.00    +0.049 A 
ATOM     23  C   UNL     1     -15.029   1.107  31.968  0.00  0.00    +0.010 A 
ATOM     24  C   UNL     1     -15.027   0.629  29.178  0.00  0.00    +0.026 A 
ATOM     25  C   UNL     1     -16.020   3.163  27.646  0.00  0.00    +0.149 C 
ATOM     26  C   UNL     1     -14.622  -0.129  31.451  0.00  0.00    +0.001 A 
ATOM     27  C   UNL     1     -14.622  -0.361  30.077  0.00  0.00    +0.002 A 
ENDBRANCH  16  19
ENDBRANCH   5  16
TORSDOF 3
ENDMDL
MODEL 10
REMARK VINA RESULT:      -6.2     17.962     22.236
REMARK  Name = 75368669
REMARK  4 active torsions:
REMARK  status: ('A' for Active; 'I' for Inactive)
REMARK    1  A    between atoms: N_4  and  C_10
REMARK    2  A    between atoms: N_5  and  C_16
REMARK    3  A    between atoms: N_6  and  C_25
REMARK    4  A    between atoms: C_16  and  C_19
REMARK                            x       y       z     vdW  Elec       q    Type
REMARK                         _______ _______ _______ _____ _____    ______ ____
ROOT
ATOM      2  O   UNL     1      13.419   4.383  -1.885  0.00  0.00    -0.252 OA
ATOM      3  N   UNL     1      12.105   4.977  -0.030  0.00  0.00    -0.278 N 
ATOM      4  N   UNL     1      11.100   4.787  -2.030  0.00  0.00    -0.280 N 
ATOM      5  N   UNL     1      11.097   4.931   2.595  0.00  0.00    -0.295 NA
ATOM      7  C   UNL     1      10.742   5.405   0.206  0.00  0.00    +0.109 C 
ATOM      8  C   UNL     1      10.021   5.055  -1.094  0.00  0.00    +0.133 C 
ATOM      9  C   UNL     1      10.180   4.726   1.455  0.00  0.00    +0.109 C 
ATOM     11  C   UNL     1      13.054   4.996   1.063  0.00  0.00    +0.125 C 
ATOM     12  C   UNL     1      12.346   4.683  -1.379  0.00  0.00    +0.305 C 
ATOM     13  C   UNL     1      12.430   4.361   2.309  0.00  0.00    +0.104 C 
ENDROOT
BRANCH   4  10
ATOM      1  O   UNL     1       9.017   3.746  -5.503  0.00  0.00    -0.380 OA
ATOM     10  C   UNL     1      10.853   4.519  -3.424  0.00  0.00    +0.082 C 
ATOM     14  C   UNL     1       9.800   5.475  -3.986  0.00  0.00    +0.050 C 
ATOM     15  C   UNL     1      10.420   3.068  -3.639  0.00  0.00    +0.050 C 
ATOM     17  C   UNL     1       9.447   5.104  -5.422  0.00  0.00    +0.161 C 
ATOM     18  C   UNL     1      10.036   2.832  -5.095  0.00  0.00    +0.161 C 
ENDBRANCH   4  10
BRANCH   5  16
ATOM     16  C   UNL     1      10.539   4.337   3.810  0.00  0.00    +0.121 C 
BRANCH  16  19
ATOM      6  N   UNL     1       9.379   7.317   5.630  0.00  0.00    -0.349 N 
ATOM     19  C   UNL     1      10.077   5.387   4.786  0.00  0.00    -0.008 A 
ATOM     20  C   UNL     1       9.898   5.221   6.187  0.00  0.00    +0.004 A 
ATOM     21  C   UNL     1       9.749   6.686   4.473  0.00  0.00    +0.091 A 
ATOM     22  C   UNL     1       9.459   6.446   6.693  0.00  0.00    +0.049 A 
ATOM     23  C   UNL     1      10.067   4.142   7.077  0.00  0.00    +0.010 A 
ATOM     24  C   UNL     1       9.181   6.648   8.049  0.00  0.00    +0.026 A 
ATOM     25  C   UNL     1       8.963   8.702   5.707  0.00  0.00    +0.149 C 
ATOM     26  C   UNL     1       9.793   4.328   8.437  0.00  0.00    +0.001 A 
ATOM     27  C   UNL     1       9.356   5.563   8.913  0.00  0.00    +0.002 A 
ENDBRANCH  16  19
ENDBRANCH   5  16
TORSDOF 3
ENDMDL
