MODEL 1
REMARK VINA RESULT:      -7.8      0.000      0.000
REMARK  Name = 7128114
REMARK  8 active torsions:
REMARK  status: ('A' for Active; 'I' for Inactive)
REMARK    1  A    between atoms: N_6  and  C_13
REMARK    2  A    between atoms: N_7  and  C_17
REMARK    3  A    between atoms: N_8  and  C_26
REMARK    4  A    between atoms: C_14  and  C_20
REMARK    5  A    between atoms: C_25  and  C_28
REMARK    6  A    between atoms: C_26  and  C_27
REMARK    7  A    between atoms: C_26  and  C_30
REMARK    8  A    between atoms: C_27  and  C_29
REMARK                            x       y       z     vdW  Elec       q    Type
REMARK                         _______ _______ _______ _____ _____    ______ ____
ROOT
ATOM      3  O   UNL     1      -4.897  -8.224  10.723  0.00  0.00    -0.268 OA
ATOM      5  N   UNL     1      -6.574  -9.691  11.406  0.00  0.00    -0.283 N 
ATOM     13  C   UNL     1      -7.469 -10.279  13.521  0.00  0.00    +0.105 C 
ATOM     14  C   UNL     1      -6.247  -9.676  12.827  0.00  0.00    +0.182 C 
ATOM     15  C   UNL     1      -8.062 -11.203  12.456  0.00  0.00    +0.043 C 
ATOM     16  C   UNL     1      -7.776 -10.481  11.146  0.00  0.00    +0.111 C 
ATOM     25  C   UNL     1      -5.909  -8.884  10.491  0.00  0.00    +0.267 C 
ENDROOT
BRANCH  13   6
ATOM      2  O   UNL     1      -8.500  -9.776  16.158  0.00  0.00    -0.253 OA
ATOM      6  N   UNL     1      -8.412  -9.253  13.899  0.00  0.00    -0.294 N 
ATOM      7  N   UNL     1      -9.762  -8.026  15.300  0.00  0.00    -0.297 N 
ATOM     24  C   UNL     1      -8.859  -9.083  15.208  0.00  0.00    +0.300 C 
ATOM     41  H   UNL     1      -8.820  -8.674  13.171  0.00  0.00    +0.151 HD
ATOM     42  H   UNL     1     -10.043  -7.566  14.440  0.00  0.00    +0.151 HD
BRANCH   7  17
ATOM     17  C   UNL     1     -10.385  -7.624  16.540  0.00  0.00    +0.074 C 
ATOM     18  C   UNL     1     -11.471  -8.620  16.959  0.00  0.00    +0.022 C 
ATOM     19  C   UNL     1     -10.944  -6.200  16.441  0.00  0.00    +0.022 C 
ATOM     21  C   UNL     1     -12.714  -8.537  16.072  0.00  0.00    +0.002 C 
ATOM     22  C   UNL     1     -12.187  -6.122  15.554  0.00  0.00    +0.002 C 
ATOM     23  C   UNL     1     -13.259  -7.114  15.997  0.00  0.00    +0.000 C 
ENDBRANCH   7  17
ENDBRANCH  13   6
BRANCH  25  28
ATOM      9  N   UNL     1      -7.457  -7.913   8.940  0.00  0.00    -0.247 NA
ATOM     12  N   UNL     1      -6.504  -9.550   6.871  0.00  0.00    -0.259 NA
ATOM     28  C   UNL     1      -6.467  -8.806   9.135  0.00  0.00    +0.144 A 
ATOM     32  C   UNL     1      -5.999  -9.610   8.119  0.00  0.00    +0.143 A 
ATOM     36  C   UNL     1      -7.961  -7.852   7.691  0.00  0.00    +0.131 A 
ATOM     38  C   UNL     1      -7.494  -8.655   6.676  0.00  0.00    +0.130 A 
ENDBRANCH  25  28
BRANCH  14  20
ATOM      1  O   UNL     1      -4.696 -11.355  12.135  0.00  0.00    -0.274 OA
ATOM      8  N   UNL     1      -4.393 -10.323  14.200  0.00  0.00    -0.302 N 
ATOM     20  C   UNL     1      -5.034 -10.542  12.992  0.00  0.00    +0.236 C 
ATOM     43  H   UNL     1      -4.706  -9.555  14.786  0.00  0.00    +0.150 HD
BRANCH   8  26
ATOM     26  C   UNL     1      -3.212 -11.046  14.611  0.00  0.00    +0.163 C 
BRANCH  26  30
ATOM      4  O   UNL     1      -1.658 -10.127  12.984  0.00  0.00    -0.274 OA
ATOM     11  N   UNL     1      -1.380  -9.582  15.198  0.00  0.00    -0.328 N 
ATOM     30  C   UNL     1      -2.008 -10.233  14.158  0.00  0.00    +0.231 C 
ATOM     45  H   UNL     1      -0.571  -8.993  15.031  0.00  0.00    +0.145 HD
ATOM     46  H   UNL     1      -1.695  -9.661  16.160  0.00  0.00    +0.145 HD
ENDBRANCH  26  30
BRANCH  26  27
ATOM     27  C   UNL     1      -3.166 -11.271  16.128  0.00  0.00    +0.069 C 
BRANCH  27  29
ATOM     10  N   UNL     1      -5.831 -13.680  16.908  0.00  0.00    -0.360 N 
ATOM     29  C   UNL     1      -4.338 -12.060  16.640  0.00  0.00    -0.020 A 
ATOM     31  C   UNL     1      -5.240 -11.668  17.667  0.00  0.00    +0.003 A 
ATOM     33  C   UNL     1      -4.727 -13.302  16.193  0.00  0.00    +0.087 A 
ATOM     34  C   UNL     1      -6.167 -12.701  17.816  0.00  0.00    +0.047 A 
ATOM     35  C   UNL     1      -5.358 -10.528  18.488  0.00  0.00    +0.010 A 
ATOM     37  C   UNL     1      -7.210 -12.653  18.748  0.00  0.00    +0.026 A 
ATOM     39  C   UNL     1      -6.396 -10.466  19.425  0.00  0.00    +0.001 A 
ATOM     40  C   UNL     1      -7.307 -11.512  19.550  0.00  0.00    +0.002 A 
ATOM     44  H   UNL     1      -6.328 -14.552  16.788  0.00  0.00    +0.165 HD
ENDBRANCH  27  29
ENDBRANCH  26  27
ENDBRANCH   8  26
ENDBRANCH  14  20
TORSDOF 8
ENDMDL
MODEL 2
REMARK VINA RESULT:      -7.3     27.717     31.276
REMARK  Name = 7128114
REMARK  8 active torsions:
REMARK  status: ('A' for Active; 'I' for Inactive)
REMARK    1  A    between atoms: N_6  and  C_13
REMARK    2  A    between atoms: N_7  and  C_17
REMARK    3  A    between atoms: N_8  and  C_26
REMARK    4  A    between atoms: C_14  and  C_20
REMARK    5  A    between atoms: C_25  and  C_28
REMARK    6  A    between atoms: C_26  and  C_27
REMARK    7  A    between atoms: C_26  and  C_30
REMARK    8  A    between atoms: C_27  and  C_29
REMARK                            x       y       z     vdW  Elec       q    Type
REMARK                         _______ _______ _______ _____ _____    ______ ____
ROOT
ATOM      3  O   UNL     1      16.397   6.436  21.649  0.00  0.00    -0.268 OA
ATOM      5  N   UNL     1      17.212   8.588  21.286  0.00  0.00    -0.283 N 
ATOM     13  C   UNL     1      16.337  10.756  21.679  0.00  0.00    +0.105 C 
ATOM     14  C   UNL     1      15.950   9.288  21.493  0.00  0.00    +0.182 C 
ATOM     15  C   UNL     1      17.640  10.883  20.888  0.00  0.00    +0.043 C 
ATOM     16  C   UNL     1      18.312   9.528  21.073  0.00  0.00    +0.111 C 
ATOM     25  C   UNL     1      17.330   7.216  21.471  0.00  0.00    +0.267 C 
ENDROOT
BRANCH  13   6
ATOM      2  O   UNL     1      14.371  11.735  23.536  0.00  0.00    -0.253 OA
ATOM      6  N   UNL     1      16.545  11.068  23.073  0.00  0.00    -0.294 N 
ATOM      7  N   UNL     1      15.995  11.762  25.195  0.00  0.00    -0.297 N 
ATOM     24  C   UNL     1      15.529  11.540  23.901  0.00  0.00    +0.300 C 
ATOM     41  H   UNL     1      17.486  11.005  23.450  0.00  0.00    +0.151 HD
ATOM     42  H   UNL     1      16.987  11.637  25.371  0.00  0.00    +0.151 HD
BRANCH   7  17
ATOM     17  C   UNL     1      15.155  12.253  26.264  0.00  0.00    +0.074 C 
ATOM     18  C   UNL     1      15.197  13.782  26.340  0.00  0.00    +0.022 C 
ATOM     19  C   UNL     1      15.544  11.619  27.605  0.00  0.00    +0.022 C 
ATOM     21  C   UNL     1      16.531  14.306  26.873  0.00  0.00    +0.002 C 
ATOM     22  C   UNL     1      16.878  12.147  28.135  0.00  0.00    +0.002 C 
ATOM     23  C   UNL     1      16.891  13.670  28.212  0.00  0.00    +0.000 C 
ENDBRANCH   7  17
ENDBRANCH  13   6
BRANCH  25  28
ATOM      9  N   UNL     1      19.402   6.783  22.596  0.00  0.00    -0.247 NA
ATOM     12  N   UNL     1      20.437   5.504  20.325  0.00  0.00    -0.259 NA
ATOM     28  C   UNL     1      18.686   6.652  21.462  0.00  0.00    +0.144 A 
ATOM     32  C   UNL     1      19.194   6.024  20.347  0.00  0.00    +0.143 A 
ATOM     36  C   UNL     1      20.645   6.262  22.574  0.00  0.00    +0.131 A 
ATOM     38  C   UNL     1      21.154   5.634  21.460  0.00  0.00    +0.130 A 
ENDBRANCH  25  28
BRANCH  14  20
ATOM      1  O   UNL     1      15.660   9.063  19.134  0.00  0.00    -0.274 OA
ATOM      8  N   UNL     1      13.790   8.946  20.516  0.00  0.00    -0.302 N 
ATOM     20  C   UNL     1      15.141   9.082  20.247  0.00  0.00    +0.236 C 
ATOM     43  H   UNL     1      13.489   8.878  21.483  0.00  0.00    +0.150 HD
BRANCH   8  26
ATOM     26  C   UNL     1      12.795   8.760  19.485  0.00  0.00    +0.163 C 
BRANCH  26  30
ATOM      4  O   UNL     1      13.017   6.410  20.068  0.00  0.00    -0.274 OA
ATOM     11  N   UNL     1      12.067   6.956  18.049  0.00  0.00    -0.328 N 
ATOM     30  C   UNL     1      12.667   7.261  19.253  0.00  0.00    +0.231 C 
ATOM     45  H   UNL     1      11.908   5.992  17.776  0.00  0.00    +0.145 HD
ATOM     46  H   UNL     1      11.762   7.670  17.395  0.00  0.00    +0.145 HD
ENDBRANCH  26  30
BRANCH  26  27
ATOM     27  C   UNL     1      11.437   9.359  19.873  0.00  0.00    +0.069 C 
BRANCH  27  29
ATOM     10  N   UNL     1      11.031   9.096  23.517  0.00  0.00    -0.360 N 
ATOM     29  C   UNL     1      11.276   9.539  21.356  0.00  0.00    -0.020 A 
ATOM     31  C   UNL     1      11.217  10.774  22.059  0.00  0.00    +0.003 A 
ATOM     33  C   UNL     1      11.159   8.525  22.280  0.00  0.00    +0.087 A 
ATOM     34  C   UNL     1      11.063  10.468  23.413  0.00  0.00    +0.047 A 
ATOM     35  C   UNL     1      11.280  12.128  21.672  0.00  0.00    +0.010 A 
ATOM     37  C   UNL     1      10.969  11.452  24.404  0.00  0.00    +0.026 A 
ATOM     39  C   UNL     1      11.187  13.123  22.653  0.00  0.00    +0.001 A 
ATOM     40  C   UNL     1      11.033  12.788  23.996  0.00  0.00    +0.002 A 
ATOM     44  H   UNL     1      10.929   8.584  24.383  0.00  0.00    +0.165 HD
ENDBRANCH  27  29
ENDBRANCH  26  27
ENDBRANCH   8  26
ENDBRANCH  14  20
TORSDOF 8
ENDMDL
MODEL 3
REMARK VINA RESULT:      -7.3     24.516     27.975
REMARK  Name = 7128114
REMARK  8 active torsions:
REMARK  status: ('A' for Active; 'I' for Inactive)
REMARK    1  A    between atoms: N_6  and  C_13
REMARK    2  A    between atoms: N_7  and  C_17
REMARK    3  A    between atoms: N_8  and  C_26
REMARK    4  A    between atoms: C_14  and  C_20
REMARK    5  A    between atoms: C_25  and  C_28
REMARK    6  A    between atoms: C_26  and  C_27
REMARK    7  A    between atoms: C_26  and  C_30
REMARK    8  A    between atoms: C_27  and  C_29
REMARK                            x       y       z     vdW  Elec       q    Type
REMARK                         _______ _______ _______ _____ _____    ______ ____
ROOT
ATOM      3  O   UNL     1      11.241   3.656   3.244  0.00  0.00    -0.268 OA
ATOM      5  N   UNL     1      11.335   5.981   3.115  0.00  0.00    -0.283 N 
ATOM     13  C   UNL     1      12.047   7.673   4.615  0.00  0.00    +0.105 C 
ATOM     14  C   UNL     1      11.571   6.222   4.535  0.00  0.00    +0.182 C 
ATOM     15  C   UNL     1      11.391   8.331   3.400  0.00  0.00    +0.043 C 
ATOM     16  C   UNL     1      11.378   7.226   2.351  0.00  0.00    +0.111 C 
ATOM     25  C   UNL     1      11.277   4.696   2.589  0.00  0.00    +0.267 C 
ENDROOT
BRANCH  13   6
ATOM      2  O   UNL     1      13.737   9.609   5.906  0.00  0.00    -0.253 OA
ATOM      6  N   UNL     1      13.487   7.755   4.533  0.00  0.00    -0.294 N 
ATOM      7  N   UNL     1      15.590   8.587   4.949  0.00  0.00    -0.297 N 
ATOM     24  C   UNL     1      14.226   8.732   5.195  0.00  0.00    +0.300 C 
ATOM     41  H   UNL     1      13.976   7.116   3.914  0.00  0.00    +0.151 HD
ATOM     42  H   UNL     1      15.879   7.872   4.290  0.00  0.00    +0.151 HD
BRANCH   7  17
ATOM     17  C   UNL     1      16.592   9.464   5.510  0.00  0.00    +0.074 C 
ATOM     18  C   UNL     1      16.869  10.650   4.581  0.00  0.00    +0.022 C 
ATOM     19  C   UNL     1      17.880   8.696   5.830  0.00  0.00    +0.022 C 
ATOM     21  C   UNL     1      17.637  10.242   3.324  0.00  0.00    +0.002 C 
ATOM     22  C   UNL     1      18.646   8.290   4.570  0.00  0.00    +0.002 C 
ATOM     23  C   UNL     1      18.919   9.489   3.667  0.00  0.00    +0.000 C 
ENDBRANCH   7  17
ENDBRANCH  13   6
BRANCH  25  28
ATOM      9  N   UNL     1      12.452   4.335   0.532  0.00  0.00    -0.247 NA
ATOM     12  N   UNL     1      10.076   4.580  -0.939  0.00  0.00    -0.259 NA
ATOM     28  C   UNL     1      11.266   4.571   1.126  0.00  0.00    +0.144 A 
ATOM     32  C   UNL     1      10.099   4.691   0.404  0.00  0.00    +0.143 A 
ATOM     36  C   UNL     1      12.428   4.222  -0.812  0.00  0.00    +0.131 A 
ATOM     38  C   UNL     1      11.263   4.343  -1.534  0.00  0.00    +0.130 A 
ENDBRANCH  25  28
BRANCH  14  20
ATOM      1  O   UNL     1       9.217   5.833   4.593  0.00  0.00    -0.274 OA
ATOM      8  N   UNL     1      10.359   6.136   6.599  0.00  0.00    -0.302 N 
ATOM     20  C   UNL     1      10.252   6.033   5.222  0.00  0.00    +0.236 C 
ATOM     43  H   UNL     1      11.283   6.204   7.013  0.00  0.00    +0.150 HD
BRANCH   8  26
ATOM     26  C   UNL     1       9.229   6.015   7.490  0.00  0.00    +0.163 C 
BRANCH  26  30
ATOM      4  O   UNL     1       9.208   4.994   9.696  0.00  0.00    -0.274 OA
ATOM     11  N   UNL     1      10.341   3.930   8.004  0.00  0.00    -0.328 N 
ATOM     30  C   UNL     1       9.587   4.960   8.527  0.00  0.00    +0.231 C 
ATOM     45  H   UNL     1      10.635   3.153   8.586  0.00  0.00    +0.145 HD
ATOM     46  H   UNL     1      10.627   3.905   7.030  0.00  0.00    +0.145 HD
ENDBRANCH  26  30
BRANCH  26  27
ATOM     27  C   UNL     1       8.884   7.344   8.175  0.00  0.00    +0.069 C 
BRANCH  27  29
ATOM     10  N   UNL     1      10.843  10.217   6.984  0.00  0.00    -0.360 N 
ATOM     29  C   UNL     1       9.485   8.535   7.483  0.00  0.00    -0.020 A 
ATOM     31  C   UNL     1       8.980   9.185   6.323  0.00  0.00    +0.003 A 
ATOM     33  C   UNL     1      10.632   9.192   7.867  0.00  0.00    +0.087 A 
ATOM     34  C   UNL     1       9.851  10.236   6.031  0.00  0.00    +0.047 A 
ATOM     35  C   UNL     1       7.862   8.978   5.490  0.00  0.00    +0.010 A 
ATOM     37  C   UNL     1       9.659  11.096   4.943  0.00  0.00    +0.026 A 
ATOM     39  C   UNL     1       7.658   9.830   4.398  0.00  0.00    +0.001 A 
ATOM     40  C   UNL     1       8.543  10.872   4.131  0.00  0.00    +0.002 A 
ATOM     44  H   UNL     1      11.617  10.866   7.026  0.00  0.00    +0.165 HD
ENDBRANCH  27  29
ENDBRANCH  26  27
ENDBRANCH   8  26
ENDBRANCH  14  20
TORSDOF 8
ENDMDL
MODEL 4
REMARK VINA RESULT:      -7.1     25.296     28.931
REMARK  Name = 7128114
REMARK  8 active torsions:
REMARK  status: ('A' for Active; 'I' for Inactive)
REMARK    1  A    between atoms: N_6  and  C_13
REMARK    2  A    between atoms: N_7  and  C_17
REMARK    3  A    between atoms: N_8  and  C_26
REMARK    4  A    between atoms: C_14  and  C_20
REMARK    5  A    between atoms: C_25  and  C_28
REMARK    6  A    between atoms: C_26  and  C_27
REMARK    7  A    between atoms: C_26  and  C_30
REMARK    8  A    between atoms: C_27  and  C_29
REMARK                            x       y       z     vdW  Elec       q    Type
REMARK                         _______ _______ _______ _____ _____    ______ ____
ROOT
ATOM      3  O   UNL     1      11.798  11.367   5.413  0.00  0.00    -0.268 OA
ATOM      5  N   UNL     1      12.351   9.195   6.051  0.00  0.00    -0.283 N 
ATOM     13  C   UNL     1      13.913   7.603   5.248  0.00  0.00    +0.105 C 
ATOM     14  C   UNL     1      13.132   8.860   4.866  0.00  0.00    +0.182 C 
ATOM     15  C   UNL     1      13.024   6.939   6.302  0.00  0.00    +0.043 C 
ATOM     16  C   UNL     1      12.388   8.114   7.034  0.00  0.00    +0.111 C 
ATOM     25  C   UNL     1      11.824  10.465   6.249  0.00  0.00    +0.267 C 
ENDROOT
BRANCH  13   6
ATOM      2  O   UNL     1      16.256   8.391   3.780  0.00  0.00    -0.253 OA
ATOM      6  N   UNL     1      15.205   7.939   5.799  0.00  0.00    -0.294 N 
ATOM      7  N   UNL     1      17.413   8.581   5.784  0.00  0.00    -0.297 N 
ATOM     24  C   UNL     1      16.289   8.311   5.007  0.00  0.00    +0.300 C 
ATOM     41  H   UNL     1      15.350   7.835   6.798  0.00  0.00    +0.151 HD
ATOM     42  H   UNL     1      17.350   8.415   6.784  0.00  0.00    +0.151 HD
BRANCH   7  17
ATOM     17  C   UNL     1      18.681   8.990   5.225  0.00  0.00    +0.074 C 
ATOM     18  C   UNL     1      19.847   8.301   5.942  0.00  0.00    +0.022 C 
ATOM     19  C   UNL     1      18.832  10.516   5.258  0.00  0.00    +0.022 C 
ATOM     21  C   UNL     1      20.066   8.840   7.356  0.00  0.00    +0.002 C 
ATOM     22  C   UNL     1      19.052  11.050   6.675  0.00  0.00    +0.002 C 
ATOM     23  C   UNL     1      20.224  10.357   7.363  0.00  0.00    +0.000 C 
ENDBRANCH   7  17
ENDBRANCH  13   6
BRANCH  25  28
ATOM      9  N   UNL     1       9.943  10.507   7.734  0.00  0.00    -0.247 NA
ATOM     12  N   UNL     1      11.526  11.540   9.806  0.00  0.00    -0.259 NA
ATOM     28  C   UNL     1      11.257  10.758   7.571  0.00  0.00    +0.144 A 
ATOM     32  C   UNL     1      12.034  11.266   8.589  0.00  0.00    +0.143 A 
ATOM     36  C   UNL     1       9.435  10.780   8.953  0.00  0.00    +0.131 A 
ATOM     38  C   UNL     1      10.211  11.288   9.970  0.00  0.00    +0.130 A 
ENDBRANCH  25  28
BRANCH  14  20
ATOM      1  O   UNL     1      11.795   9.460   2.980  0.00  0.00    -0.274 OA
ATOM      8  N   UNL     1      11.686   7.280   3.792  0.00  0.00    -0.302 N 
ATOM     20  C   UNL     1      12.144   8.587   3.771  0.00  0.00    +0.236 C 
ATOM     43  H   UNL     1      12.121   6.622   4.430  0.00  0.00    +0.150 HD
BRANCH   8  26
ATOM     26  C   UNL     1      10.711   6.770   2.856  0.00  0.00    +0.163 C 
BRANCH  26  30
ATOM      4  O   UNL     1      11.262   5.731   0.728  0.00  0.00    -0.274 OA
ATOM     11  N   UNL     1      12.351   5.009   2.618  0.00  0.00    -0.328 N 
ATOM     30  C   UNL     1      11.436   5.790   1.944  0.00  0.00    +0.231 C 
ATOM     45  H   UNL     1      12.913   4.323   2.125  0.00  0.00    +0.145 HD
ATOM     46  H   UNL     1      12.500   5.085   3.620  0.00  0.00    +0.145 HD
ENDBRANCH  26  30
BRANCH  26  27
ATOM     27  C   UNL     1       9.537   6.078   3.560  0.00  0.00    +0.069 C 
BRANCH  27  29
ATOM     10  N   UNL     1       8.447   8.176   6.375  0.00  0.00    -0.360 N 
ATOM     29  C   UNL     1       9.180   6.716   4.873  0.00  0.00    -0.020 A 
ATOM     31  C   UNL     1       9.358   6.151   6.166  0.00  0.00    +0.003 A 
ATOM     33  C   UNL     1       8.618   7.962   5.033  0.00  0.00    +0.087 A 
ATOM     34  C   UNL     1       8.890   7.086   7.090  0.00  0.00    +0.047 A 
ATOM     35  C   UNL     1       9.874   4.928   6.640  0.00  0.00    +0.010 A 
ATOM     37  C   UNL     1       8.912   6.860   8.471  0.00  0.00    +0.026 A 
ATOM     39  C   UNL     1       9.902   4.688   8.019  0.00  0.00    +0.001 A 
ATOM     40  C   UNL     1       9.429   5.641   8.919  0.00  0.00    +0.002 A 
ATOM     44  H   UNL     1       8.052   9.013   6.781  0.00  0.00    +0.165 HD
ENDBRANCH  27  29
ENDBRANCH  26  27
ENDBRANCH   8  26
ENDBRANCH  14  20
TORSDOF 8
ENDMDL
MODEL 5
REMARK VINA RESULT:      -6.8     25.541     29.105
REMARK  Name = 7128114
REMARK  8 active torsions:
REMARK  status: ('A' for Active; 'I' for Inactive)
REMARK    1  A    between atoms: N_6  and  C_13
REMARK    2  A    between atoms: N_7  and  C_17
REMARK    3  A    between atoms: N_8  and  C_26
REMARK    4  A    between atoms: C_14  and  C_20
REMARK    5  A    between atoms: C_25  and  C_28
REMARK    6  A    between atoms: C_26  and  C_27
REMARK    7  A    between atoms: C_26  and  C_30
REMARK    8  A    between atoms: C_27  and  C_29
REMARK                            x       y       z     vdW  Elec       q    Type
REMARK                         _______ _______ _______ _____ _____    ______ ____
ROOT
ATOM      3  O   UNL     1      12.702   4.463   2.364  0.00  0.00    -0.268 OA
ATOM      5  N   UNL     1      13.672   6.535   1.924  0.00  0.00    -0.283 N 
ATOM     13  C   UNL     1      14.948   8.052   3.226  0.00  0.00    +0.105 C 
ATOM     14  C   UNL     1      13.959   6.889   3.310  0.00  0.00    +0.182 C 
ATOM     15  C   UNL     1      14.611   8.709   1.886  0.00  0.00    +0.043 C 
ATOM     16  C   UNL     1      14.197   7.540   1.001  0.00  0.00    +0.111 C 
ATOM     25  C   UNL     1      13.141   5.300   1.577  0.00  0.00    +0.267 C 
ENDROOT
BRANCH  13   6
ATOM      2  O   UNL     1      17.326   9.660   3.384  0.00  0.00    -0.253 OA
ATOM      6  N   UNL     1      16.312   7.578   3.241  0.00  0.00    -0.294 N 
ATOM      7  N   UNL     1      18.606   7.723   3.316  0.00  0.00    -0.297 N 
ATOM     24  C   UNL     1      17.408   8.435   3.319  0.00  0.00    +0.300 C 
ATOM     41  H   UNL     1      16.483   6.584   3.121  0.00  0.00    +0.151 HD
ATOM     42  H   UNL     1      18.560   6.718   3.187  0.00  0.00    +0.151 HD
BRANCH   7  17
ATOM     17  C   UNL     1      19.902   8.358   3.389  0.00  0.00    +0.074 C 
ATOM     18  C   UNL     1      21.027   7.319   3.349  0.00  0.00    +0.022 C 
ATOM     19  C   UNL     1      20.011   9.248   4.632  0.00  0.00    +0.022 C 
ATOM     21  C   UNL     1      21.124   6.511   4.644  0.00  0.00    +0.002 C 
ATOM     22  C   UNL     1      20.109   8.436   5.925  0.00  0.00    +0.002 C 
ATOM     23  C   UNL     1      21.242   7.417   5.866  0.00  0.00    +0.000 C 
ENDBRANCH   7  17
ENDBRANCH  13   6
BRANCH  25  28
ATOM      9  N   UNL     1      12.039   5.393  -0.549  0.00  0.00    -0.247 NA
ATOM     12  N   UNL     1      14.101   3.919  -1.750  0.00  0.00    -0.259 NA
ATOM     28  C   UNL     1      13.108   4.962   0.149  0.00  0.00    +0.144 A 
ATOM     32  C   UNL     1      14.121   4.238  -0.441  0.00  0.00    +0.143 A 
ATOM     36  C   UNL     1      12.021   5.075  -1.860  0.00  0.00    +0.131 A 
ATOM     38  C   UNL     1      13.032   4.352  -2.449  0.00  0.00    +0.130 A 
ENDBRANCH  25  28
BRANCH  14  20
ATOM      1  O   UNL     1      12.581   7.719   5.075  0.00  0.00    -0.274 OA
ATOM      8  N   UNL     1      11.596   7.170   3.038  0.00  0.00    -0.302 N 
ATOM     20  C   UNL     1      12.655   7.314   3.918  0.00  0.00    +0.236 C 
ATOM     43  H   UNL     1      11.792   6.921   2.074  0.00  0.00    +0.150 HD
BRANCH   8  26
ATOM     26  C   UNL     1      10.231   7.489   3.387  0.00  0.00    +0.163 C 
BRANCH  26  30
ATOM      4  O   UNL     1       8.353   8.226   2.030  0.00  0.00    -0.274 OA
ATOM     11  N   UNL     1      10.230   7.430   0.970  0.00  0.00    -0.328 N 
ATOM     30  C   UNL     1       9.484   7.746   2.086  0.00  0.00    +0.231 C 
ATOM     45  H   UNL     1       9.855   7.567   0.038  0.00  0.00    +0.145 HD
ATOM     46  H   UNL     1      11.172   7.055   1.032  0.00  0.00    +0.145 HD
ENDBRANCH  26  30
BRANCH  26  27
ATOM     27  C   UNL     1       9.555   6.363   4.180  0.00  0.00    +0.069 C 
BRANCH  27  29
ATOM     10  N   UNL     1       8.671   7.913   7.393  0.00  0.00    -0.360 N 
ATOM     29  C   UNL     1       9.261   6.740   5.604  0.00  0.00    -0.020 A 
ATOM     31  C   UNL     1       9.386   5.902   6.746  0.00  0.00    +0.003 A 
ATOM     33  C   UNL     1       8.819   7.971   6.033  0.00  0.00    +0.087 A 
ATOM     34  C   UNL     1       9.010   6.662   7.855  0.00  0.00    +0.047 A 
ATOM     35  C   UNL     1       9.785   4.565   6.944  0.00  0.00    +0.010 A 
ATOM     37  C   UNL     1       9.011   6.150   9.158  0.00  0.00    +0.026 A 
ATOM     39  C   UNL     1       9.792   4.039   8.241  0.00  0.00    +0.001 A 
ATOM     40  C   UNL     1       9.412   4.821   9.330  0.00  0.00    +0.002 A 
ATOM     44  H   UNL     1       8.357   8.679   7.974  0.00  0.00    +0.165 HD
ENDBRANCH  27  29
ENDBRANCH  26  27
ENDBRANCH   8  26
ENDBRANCH  14  20
TORSDOF 8
ENDMDL
MODEL 6
REMARK VINA RESULT:      -6.7      3.086      7.023
REMARK  Name = 7128114
REMARK  8 active torsions:
REMARK  status: ('A' for Active; 'I' for Inactive)
REMARK    1  A    between atoms: N_6  and  C_13
REMARK    2  A    between atoms: N_7  and  C_17
REMARK    3  A    between atoms: N_8  and  C_26
REMARK    4  A    between atoms: C_14  and  C_20
REMARK    5  A    between atoms: C_25  and  C_28
REMARK    6  A    between atoms: C_26  and  C_27
REMARK    7  A    between atoms: C_26  and  C_30
REMARK    8  A    between atoms: C_27  and  C_29
REMARK                            x       y       z     vdW  Elec       q    Type
REMARK                         _______ _______ _______ _____ _____    ______ ____
ROOT
ATOM      3  O   UNL     1      -6.664 -13.193  14.971  0.00  0.00    -0.268 OA
ATOM      5  N   UNL     1      -6.172 -12.497  17.140  0.00  0.00    -0.283 N 
ATOM     13  C   UNL     1      -6.800 -10.612  18.433  0.00  0.00    +0.105 C 
ATOM     14  C   UNL     1      -6.676 -11.134  17.002  0.00  0.00    +0.182 C 
ATOM     15  C   UNL     1      -5.737 -11.405  19.195  0.00  0.00    +0.043 C 
ATOM     16  C   UNL     1      -5.735 -12.765  18.509  0.00  0.00    +0.111 C 
ATOM     25  C   UNL     1      -6.296 -13.432  16.120  0.00  0.00    +0.267 C 
ENDROOT
BRANCH  13   6
ATOM      2  O   UNL     1      -9.230  -9.233  17.750  0.00  0.00    -0.253 OA
ATOM      6  N   UNL     1      -8.117 -10.865  18.968  0.00  0.00    -0.294 N 
ATOM      7  N   UNL     1     -10.383 -10.587  19.244  0.00  0.00    -0.297 N 
ATOM     24  C   UNL     1      -9.243 -10.143  18.577  0.00  0.00    +0.300 C 
ATOM     41  H   UNL     1      -8.217 -11.552  19.710  0.00  0.00    +0.151 HD
ATOM     42  H   UNL     1     -10.268 -11.297  19.960  0.00  0.00    +0.151 HD
BRANCH   7  17
ATOM     17  C   UNL     1     -11.694 -10.016  19.032  0.00  0.00    +0.074 C 
ATOM     18  C   UNL     1     -12.483  -9.947  20.344  0.00  0.00    +0.022 C 
ATOM     19  C   UNL     1     -12.466 -10.793  17.960  0.00  0.00    +0.022 C 
ATOM     21  C   UNL     1     -12.937 -11.324  20.827  0.00  0.00    +0.002 C 
ATOM     22  C   UNL     1     -12.919 -12.169  18.448  0.00  0.00    +0.002 C 
ATOM     23  C   UNL     1     -13.712 -12.073  19.748  0.00  0.00    +0.000 C 
ENDBRANCH   7  17
ENDBRANCH  13   6
BRANCH  25  28
ATOM      9  N   UNL     1      -4.658 -15.142  16.488  0.00  0.00    -0.247 NA
ATOM     12  N   UNL     1      -6.663 -17.040  16.986  0.00  0.00    -0.259 NA
ATOM     28  C   UNL     1      -5.967 -14.825  16.444  0.00  0.00    +0.144 A 
ATOM     32  C   UNL     1      -6.952 -15.757  16.689  0.00  0.00    +0.143 A 
ATOM     36  C   UNL     1      -4.369 -16.425  16.787  0.00  0.00    +0.131 A 
ATOM     38  C   UNL     1      -5.353 -17.356  17.031  0.00  0.00    +0.130 A 
ENDBRANCH  25  28
BRANCH  14  20
ATOM      1  O   UNL     1      -5.771  -9.183  15.967  0.00  0.00    -0.274 OA
ATOM      8  N   UNL     1      -4.585 -11.182  15.834  0.00  0.00    -0.302 N 
ATOM     20  C   UNL     1      -5.642 -10.377  16.223  0.00  0.00    +0.236 C 
ATOM     43  H   UNL     1      -4.538 -12.131  16.189  0.00  0.00    +0.150 HD
BRANCH   8  26
ATOM     26  C   UNL     1      -3.469 -10.698  15.053  0.00  0.00    +0.163 C 
BRANCH  26  30
ATOM      4  O   UNL     1      -1.144 -10.290  15.634  0.00  0.00    -0.274 OA
ATOM     11  N   UNL     1      -2.497 -11.325  17.176  0.00  0.00    -0.328 N 
ATOM     30  C   UNL     1      -2.240 -10.751  15.949  0.00  0.00    +0.231 C 
ATOM     45  H   UNL     1      -1.766 -11.410  17.875  0.00  0.00    +0.145 HD
ATOM     46  H   UNL     1      -3.413 -11.681  17.431  0.00  0.00    +0.145 HD
ENDBRANCH  26  30
BRANCH  26  27
ATOM     27  C   UNL     1      -3.244 -11.530  13.784  0.00  0.00    +0.069 C 
BRANCH  27  29
ATOM     10  N   UNL     1      -2.222  -9.612  10.819  0.00  0.00    -0.360 N 
ATOM     29  C   UNL     1      -3.106 -10.689  12.547  0.00  0.00    -0.020 A 
ATOM     31  C   UNL     1      -4.159 -10.048  11.837  0.00  0.00    +0.003 A 
ATOM     33  C   UNL     1      -1.927 -10.403  11.898  0.00  0.00    +0.087 A 
ATOM     34  C   UNL     1      -3.578  -9.379  10.758  0.00  0.00    +0.047 A 
ATOM     35  C   UNL     1      -5.556  -9.972  12.009  0.00  0.00    +0.010 A 
ATOM     37  C   UNL     1      -4.326  -8.636   9.837  0.00  0.00    +0.026 A 
ATOM     39  C   UNL     1      -6.317  -9.232  11.096  0.00  0.00    +0.001 A 
ATOM     40  C   UNL     1      -5.709  -8.574  10.029  0.00  0.00    +0.002 A 
ATOM     44  H   UNL     1      -1.543  -9.251  10.163  0.00  0.00    +0.165 HD
ENDBRANCH  27  29
ENDBRANCH  26  27
ENDBRANCH   8  26
ENDBRANCH  14  20
TORSDOF 8
ENDMDL
MODEL 7
REMARK VINA RESULT:      -6.7     25.707     29.219
REMARK  Name = 7128114
REMARK  8 active torsions:
REMARK  status: ('A' for Active; 'I' for Inactive)
REMARK    1  A    between atoms: N_6  and  C_13
REMARK    2  A    between atoms: N_7  and  C_17
REMARK    3  A    between atoms: N_8  and  C_26
REMARK    4  A    between atoms: C_14  and  C_20
REMARK    5  A    between atoms: C_25  and  C_28
REMARK    6  A    between atoms: C_26  and  C_27
REMARK    7  A    between atoms: C_26  and  C_30
REMARK    8  A    between atoms: C_27  and  C_29
REMARK                            x       y       z     vdW  Elec       q    Type
REMARK                         _______ _______ _______ _____ _____    ______ ____
ROOT
ATOM      3  O   UNL     1      16.241  10.662   4.371  0.00  0.00    -0.268 OA
ATOM      5  N   UNL     1      15.218   8.873   5.457  0.00  0.00    -0.283 N 
ATOM     13  C   UNL     1      13.060   7.901   5.327  0.00  0.00    +0.105 C 
ATOM     14  C   UNL     1      13.853   9.175   5.039  0.00  0.00    +0.182 C 
ATOM     15  C   UNL     1      13.823   7.261   6.488  0.00  0.00    +0.043 C 
ATOM     16  C   UNL     1      15.277   7.621   6.210  0.00  0.00    +0.111 C 
ATOM     25  C   UNL     1      16.305   9.610   5.004  0.00  0.00    +0.267 C 
ENDROOT
BRANCH  13   6
ATOM      2  O   UNL     1      11.227   5.739   4.840  0.00  0.00    -0.253 OA
ATOM      6  N   UNL     1      13.040   7.027   4.177  0.00  0.00    -0.294 N 
ATOM      7  N   UNL     1      12.311   5.311   2.831  0.00  0.00    -0.297 N 
ATOM     24  C   UNL     1      12.110   6.000   4.025  0.00  0.00    +0.300 C 
ATOM     41  H   UNL     1      13.775   7.120   3.483  0.00  0.00    +0.151 HD
ATOM     42  H   UNL     1      13.115   5.564   2.266  0.00  0.00    +0.151 HD
BRANCH   7  17
ATOM     17  C   UNL     1      11.491   4.196   2.415  0.00  0.00    +0.074 C 
ATOM     18  C   UNL     1      12.346   3.079   1.808  0.00  0.00    +0.022 C 
ATOM     19  C   UNL     1      10.397   4.650   1.442  0.00  0.00    +0.022 C 
ATOM     21  C   UNL     1      12.900   3.449   0.431  0.00  0.00    +0.002 C 
ATOM     22  C   UNL     1      10.955   5.018   0.066  0.00  0.00    +0.002 C 
ATOM     23  C   UNL     1      11.792   3.887  -0.522  0.00  0.00    +0.000 C 
ENDBRANCH   7  17
ENDBRANCH  13   6
BRANCH  25  28
ATOM      9  N   UNL     1      18.202   9.473   6.462  0.00  0.00    -0.247 NA
ATOM     12  N   UNL     1      19.518   7.746   4.687  0.00  0.00    -0.259 NA
ATOM     28  C   UNL     1      17.643   9.083   5.300  0.00  0.00    +0.144 A 
ATOM     32  C   UNL     1      18.289   8.235   4.428  0.00  0.00    +0.143 A 
ATOM     36  C   UNL     1      19.431   8.983   6.721  0.00  0.00    +0.131 A 
ATOM     38  C   UNL     1      20.077   8.135   5.850  0.00  0.00    +0.130 A 
ENDBRANCH  25  28
BRANCH  14  20
ATOM      1  O   UNL     1      14.054  10.726   6.843  0.00  0.00    -0.274 OA
ATOM      8  N   UNL     1      12.163  10.812   5.486  0.00  0.00    -0.302 N 
ATOM     20  C   UNL     1      13.392  10.319   5.891  0.00  0.00    +0.236 C 
ATOM     43  H   UNL     1      11.757  10.462   4.625  0.00  0.00    +0.150 HD
BRANCH   8  26
ATOM     26  C   UNL     1      11.489  11.900   6.157  0.00  0.00    +0.163 C 
BRANCH  26  30
ATOM      4  O   UNL     1      11.738  13.299   4.184  0.00  0.00    -0.274 OA
ATOM     11  N   UNL     1      12.233  14.199   6.239  0.00  0.00    -0.328 N 
ATOM     30  C   UNL     1      11.839  13.176   5.404  0.00  0.00    +0.231 C 
ATOM     45  H   UNL     1      12.481  15.109   5.866  0.00  0.00    +0.145 HD
ATOM     46  H   UNL     1      12.290  14.089   7.247  0.00  0.00    +0.145 HD
ENDBRANCH  26  30
BRANCH  26  27
ATOM     27  C   UNL     1       9.968  11.704   6.199  0.00  0.00    +0.069 C 
BRANCH  27  29
ATOM     10  N   UNL     1       9.173   8.674   8.123  0.00  0.00    -0.360 N 
ATOM     29  C   UNL     1       9.565  10.358   6.731  0.00  0.00    -0.020 A 
ATOM     31  C   UNL     1       9.051   9.267   5.977  0.00  0.00    +0.003 A 
ATOM     33  C   UNL     1       9.628   9.963   8.048  0.00  0.00    +0.087 A 
ATOM     34  C   UNL     1       8.813   8.224   6.873  0.00  0.00    +0.047 A 
ATOM     35  C   UNL     1       8.763   9.067   4.612  0.00  0.00    +0.010 A 
ATOM     37  C   UNL     1       8.300   6.985   6.472  0.00  0.00    +0.026 A 
ATOM     39  C   UNL     1       8.250   7.833   4.196  0.00  0.00    +0.001 A 
ATOM     40  C   UNL     1       8.024   6.809   5.113  0.00  0.00    +0.002 A 
ATOM     44  H   UNL     1       9.110   8.131   8.974  0.00  0.00    +0.165 HD
ENDBRANCH  27  29
ENDBRANCH  26  27
ENDBRANCH   8  26
ENDBRANCH  14  20
TORSDOF 8
ENDMDL
MODEL 8
REMARK VINA RESULT:      -6.7     19.253     21.869
REMARK  Name = 7128114
REMARK  8 active torsions:
REMARK  status: ('A' for Active; 'I' for Inactive)
REMARK    1  A    between atoms: N_6  and  C_13
REMARK    2  A    between atoms: N_7  and  C_17
REMARK    3  A    between atoms: N_8  and  C_26
REMARK    4  A    between atoms: C_14  and  C_20
REMARK    5  A    between atoms: C_25  and  C_28
REMARK    6  A    between atoms: C_26  and  C_27
REMARK    7  A    between atoms: C_26  and  C_30
REMARK    8  A    between atoms: C_27  and  C_29
REMARK                            x       y       z     vdW  Elec       q    Type
REMARK                         _______ _______ _______ _____ _____    ______ ____
ROOT
ATOM      3  O   UNL     1     -15.131   8.183  23.362  0.00  0.00    -0.268 OA
ATOM      5  N   UNL     1     -16.501   6.376  23.898  0.00  0.00    -0.283 N 
ATOM     13  C   UNL     1     -16.075   4.111  24.453  0.00  0.00    +0.105 C 
ATOM     14  C   UNL     1     -15.480   5.342  23.769  0.00  0.00    +0.182 C 
ATOM     15  C   UNL     1     -17.584   4.307  24.289  0.00  0.00    +0.043 C 
ATOM     16  C   UNL     1     -17.765   5.817  24.373  0.00  0.00    +0.111 C 
ATOM     25  C   UNL     1     -16.200   7.725  23.763  0.00  0.00    +0.267 C 
ENDROOT
BRANCH  13   6
ATOM      2  O   UNL     1     -16.724   2.032  26.331  0.00  0.00    -0.253 OA
ATOM      6  N   UNL     1     -15.708   4.062  25.849  0.00  0.00    -0.294 N 
ATOM      7  N   UNL     1     -15.591   3.209  27.981  0.00  0.00    -0.297 N 
ATOM     24  C   UNL     1     -16.069   3.010  26.688  0.00  0.00    +0.300 C 
ATOM     41  H   UNL     1     -15.225   4.858  26.253  0.00  0.00    +0.151 HD
ATOM     42  H   UNL     1     -15.122   4.086  28.184  0.00  0.00    +0.151 HD
BRANCH   7  17
ATOM     17  C   UNL     1     -15.817   2.274  29.060  0.00  0.00    +0.074 C 
ATOM     18  C   UNL     1     -16.831   2.827  30.065  0.00  0.00    +0.022 C 
ATOM     19  C   UNL     1     -14.500   1.898  29.748  0.00  0.00    +0.022 C 
ATOM     21  C   UNL     1     -16.260   3.971  30.904  0.00  0.00    +0.002 C 
ATOM     22  C   UNL     1     -13.932   3.044  30.587  0.00  0.00    +0.002 C 
ATOM     23  C   UNL     1     -14.956   3.571  31.588  0.00  0.00    +0.000 C 
ENDBRANCH   7  17
ENDBRANCH  13   6
BRANCH  25  28
ATOM      9  N   UNL     1     -18.116   9.039  23.172  0.00  0.00    -0.247 NA
ATOM     12  N   UNL     1     -18.276  10.083  25.771  0.00  0.00    -0.259 NA
ATOM     28  C   UNL     1     -17.244   8.687  24.138  0.00  0.00    +0.144 A 
ATOM     32  C   UNL     1     -17.323   9.199  25.414  0.00  0.00    +0.143 A 
ATOM     36  C   UNL     1     -19.069   9.923  23.530  0.00  0.00    +0.131 A 
ATOM     38  C   UNL     1     -19.148  10.435  24.805  0.00  0.00    +0.130 A 
ENDBRANCH  25  28
BRANCH  14  20
ATOM      1  O   UNL     1     -14.451   4.328  21.868  0.00  0.00    -0.274 OA
ATOM      8  N   UNL     1     -16.127   5.910  21.533  0.00  0.00    -0.302 N 
ATOM     20  C   UNL     1     -15.287   5.119  22.298  0.00  0.00    +0.236 C 
ATOM     43  H   UNL     1     -16.846   6.453  22.001  0.00  0.00    +0.150 HD
BRANCH   8  26
ATOM     26  C   UNL     1     -16.122   5.901  20.089  0.00  0.00    +0.163 C 
BRANCH  26  30
ATOM      4  O   UNL     1     -17.331   4.328  18.683  0.00  0.00    -0.274 OA
ATOM     11  N   UNL     1     -18.431   5.286  20.459  0.00  0.00    -0.328 N 
ATOM     30  C   UNL     1     -17.336   5.098  19.642  0.00  0.00    +0.231 C 
ATOM     45  H   UNL     1     -19.303   4.798  20.281  0.00  0.00    +0.145 HD
ATOM     46  H   UNL     1     -18.413   5.908  21.261  0.00  0.00    +0.145 HD
ENDBRANCH  26  30
BRANCH  26  27
ATOM     27  C   UNL     1     -16.168   7.316  19.498  0.00  0.00    +0.069 C 
BRANCH  27  29
ATOM     10  N   UNL     1     -13.517   8.332  17.163  0.00  0.00    -0.360 N 
ATOM     29  C   UNL     1     -14.909   7.689  18.767  0.00  0.00    -0.020 A 
ATOM     31  C   UNL     1     -13.592   7.706  19.303  0.00  0.00    +0.003 A 
ATOM     33  C   UNL     1     -14.831   8.079  17.450  0.00  0.00    +0.087 A 
ATOM     34  C   UNL     1     -12.737   8.112  18.277  0.00  0.00    +0.047 A 
ATOM     35  C   UNL     1     -13.042   7.413  20.567  0.00  0.00    +0.010 A 
ATOM     37  C   UNL     1     -11.354   8.242  18.451  0.00  0.00    +0.026 A 
ATOM     39  C   UNL     1     -11.661   7.538  20.757  0.00  0.00    +0.001 A 
ATOM     40  C   UNL     1     -10.832   7.945  19.713  0.00  0.00    +0.002 A 
ATOM     44  H   UNL     1     -13.168   8.636  16.265  0.00  0.00    +0.165 HD
ENDBRANCH  27  29
ENDBRANCH  26  27
ENDBRANCH   8  26
ENDBRANCH  14  20
TORSDOF 8
ENDMDL
MODEL 9
REMARK VINA RESULT:      -6.6     24.574     28.229
REMARK  Name = 7128114
REMARK  8 active torsions:
REMARK  status: ('A' for Active; 'I' for Inactive)
REMARK    1  A    between atoms: N_6  and  C_13
REMARK    2  A    between atoms: N_7  and  C_17
REMARK    3  A    between atoms: N_8  and  C_26
REMARK    4  A    between atoms: C_14  and  C_20
REMARK    5  A    between atoms: C_25  and  C_28
REMARK    6  A    between atoms: C_26  and  C_27
REMARK    7  A    between atoms: C_26  and  C_30
REMARK    8  A    between atoms: C_27  and  C_29
REMARK                            x       y       z     vdW  Elec       q    Type
REMARK                         _______ _______ _______ _____ _____    ______ ____
ROOT
ATOM      3  O   UNL     1      10.721   4.980   3.498  0.00  0.00    -0.268 OA
ATOM      5  N   UNL     1      10.841   7.221   2.873  0.00  0.00    -0.283 N 
ATOM     13  C   UNL     1      10.953   8.330   0.781  0.00  0.00    +0.105 C 
ATOM     14  C   UNL     1      11.199   6.991   1.477  0.00  0.00    +0.182 C 
ATOM     15  C   UNL     1      11.157   9.355   1.897  0.00  0.00    +0.043 C 
ATOM     16  C   UNL     1      10.644   8.644   3.143  0.00  0.00    +0.111 C 
ATOM     25  C   UNL     1      10.550   6.174   3.738  0.00  0.00    +0.267 C 
ENDROOT
BRANCH  13   6
ATOM      2  O   UNL     1      10.209   8.636  -1.980  0.00  0.00    -0.253 OA
ATOM      6  N   UNL     1       9.612   8.403   0.250  0.00  0.00    -0.294 N 
ATOM      7  N   UNL     1       7.974   8.597  -1.353  0.00  0.00    -0.297 N 
ATOM     24  C   UNL     1       9.345   8.553  -1.109  0.00  0.00    +0.300 C 
ATOM     41  H   UNL     1       8.831   8.414   0.900  0.00  0.00    +0.151 HD
ATOM     42  H   UNL     1       7.349   8.592  -0.552  0.00  0.00    +0.151 HD
BRANCH   7  17
ATOM     17  C   UNL     1       7.410   8.746  -2.675  0.00  0.00    +0.074 C 
ATOM     18  C   UNL     1       5.954   9.216  -2.603  0.00  0.00    +0.022 C 
ATOM     19  C   UNL     1       7.536   7.446  -3.477  0.00  0.00    +0.022 C 
ATOM     21  C   UNL     1       5.010   8.122  -2.103  0.00  0.00    +0.002 C 
ATOM     22  C   UNL     1       6.590   6.355  -2.974  0.00  0.00    +0.002 C 
ATOM     23  C   UNL     1       5.145   6.842  -2.922  0.00  0.00    +0.000 C 
ENDBRANCH   7  17
ENDBRANCH  13   6
BRANCH  25  28
ATOM      9  N   UNL     1       8.655   6.761   5.084  0.00  0.00    -0.247 NA
ATOM     12  N   UNL     1      10.260   6.923   7.378  0.00  0.00    -0.259 NA
ATOM     28  C   UNL     1       9.981   6.522   5.046  0.00  0.00    +0.144 A 
ATOM     32  C   UNL     1      10.769   6.602   6.173  0.00  0.00    +0.143 A 
ATOM     36  C   UNL     1       8.146   7.081   6.291  0.00  0.00    +0.131 A 
ATOM     38  C   UNL     1       8.933   7.161   7.417  0.00  0.00    +0.130 A 
ENDBRANCH  25  28
BRANCH  14  20
ATOM      1  O   UNL     1      13.514   7.368   1.922  0.00  0.00    -0.274 OA
ATOM      8  N   UNL     1      12.873   5.386   0.881  0.00  0.00    -0.302 N 
ATOM     20  C   UNL     1      12.651   6.620   1.468  0.00  0.00    +0.236 C 
ATOM     43  H   UNL     1      12.074   4.814   0.631  0.00  0.00    +0.150 HD
BRANCH   8  26
ATOM     26  C   UNL     1      14.189   4.810   0.727  0.00  0.00    +0.163 C 
BRANCH  26  30
ATOM      4  O   UNL     1      13.287   2.765   1.682  0.00  0.00    -0.274 OA
ATOM     11  N   UNL     1      15.451   3.350   2.184  0.00  0.00    -0.328 N 
ATOM     30  C   UNL     1      14.228   3.549   1.579  0.00  0.00    +0.231 C 
ATOM     45  H   UNL     1      15.616   2.538   2.769  0.00  0.00    +0.145 HD
ATOM     46  H   UNL     1      16.227   3.995   2.071  0.00  0.00    +0.145 HD
ENDBRANCH  26  30
BRANCH  26  27
ATOM     27  C   UNL     1      14.511   4.478  -0.736  0.00  0.00    +0.069 C 
BRANCH  27  29
ATOM     10  N   UNL     1      12.119   6.076  -3.025  0.00  0.00    -0.360 N 
ATOM     29  C   UNL     1      13.413   4.871  -1.683  0.00  0.00    -0.020 A 
ATOM     31  C   UNL     1      12.393   4.023  -2.196  0.00  0.00    +0.003 A 
ATOM     33  C   UNL     1      13.219   6.127  -2.211  0.00  0.00    +0.087 A 
ATOM     34  C   UNL     1      11.595   4.803  -3.035  0.00  0.00    +0.047 A 
ATOM     35  C   UNL     1      12.070   2.661  -2.027  0.00  0.00    +0.010 A 
ATOM     37  C   UNL     1      10.485   4.288  -3.716  0.00  0.00    +0.026 A 
ATOM     39  C   UNL     1      10.963   2.133  -2.702  0.00  0.00    +0.001 A 
ATOM     40  C   UNL     1      10.184   2.936  -3.532  0.00  0.00    +0.002 A 
ATOM     44  H   UNL     1      11.747   6.859  -3.544  0.00  0.00    +0.165 HD
ENDBRANCH  27  29
ENDBRANCH  26  27
ENDBRANCH   8  26
ENDBRANCH  14  20
TORSDOF 8
ENDMDL
MODEL 10
REMARK VINA RESULT:      -6.6     25.261     28.821
REMARK  Name = 7128114
REMARK  8 active torsions:
REMARK  status: ('A' for Active; 'I' for Inactive)
REMARK    1  A    between atoms: N_6  and  C_13
REMARK    2  A    between atoms: N_7  and  C_17
REMARK    3  A    between atoms: N_8  and  C_26
REMARK    4  A    between atoms: C_14  and  C_20
REMARK    5  A    between atoms: C_25  and  C_28
REMARK    6  A    between atoms: C_26  and  C_27
REMARK    7  A    between atoms: C_26  and  C_30
REMARK    8  A    between atoms: C_27  and  C_29
REMARK                            x       y       z     vdW  Elec       q    Type
REMARK                         _______ _______ _______ _____ _____    ______ ____
ROOT
ATOM      3  O   UNL     1      13.347  11.761   4.969  0.00  0.00    -0.268 OA
ATOM      5  N   UNL     1      13.691   9.634   5.856  0.00  0.00    -0.283 N 
ATOM     13  C   UNL     1      12.783   7.498   5.376  0.00  0.00    +0.105 C 
ATOM     14  C   UNL     1      12.535   8.999   5.234  0.00  0.00    +0.182 C 
ATOM     15  C   UNL     1      13.650   7.398   6.633  0.00  0.00    +0.043 C 
ATOM     16  C   UNL     1      14.498   8.662   6.591  0.00  0.00    +0.111 C 
ATOM     25  C   UNL     1      14.036  10.953   5.589  0.00  0.00    +0.267 C 
ENDROOT
BRANCH  13   6
ATOM      2  O   UNL     1      11.669   5.865   3.287  0.00  0.00    -0.253 OA
ATOM      6  N   UNL     1      13.480   6.973   4.225  0.00  0.00    -0.294 N 
ATOM      7  N   UNL     1      13.751   5.812   2.259  0.00  0.00    -0.297 N 
ATOM     24  C   UNL     1      12.856   6.186   3.259  0.00  0.00    +0.300 C 
ATOM     41  H   UNL     1      14.481   7.126   4.151  0.00  0.00    +0.151 HD
ATOM     42  H   UNL     1      14.725   6.072   2.371  0.00  0.00    +0.151 HD
BRANCH   7  17
ATOM     17  C   UNL     1      13.375   4.993   1.128  0.00  0.00    +0.074 C 
ATOM     18  C   UNL     1      13.939   3.575   1.263  0.00  0.00    +0.022 C 
ATOM     19  C   UNL     1      13.811   5.642  -0.191  0.00  0.00    +0.022 C 
ATOM     21  C   UNL     1      15.453   3.525   1.055  0.00  0.00    +0.002 C 
ATOM     22  C   UNL     1      15.326   5.589  -0.395  0.00  0.00    +0.002 C 
ATOM     23  C   UNL     1      15.861   4.166  -0.268  0.00  0.00    +0.000 C 
ENDBRANCH   7  17
ENDBRANCH  13   6
BRANCH  25  28
ATOM      9  N   UNL     1      16.355  11.418   5.199  0.00  0.00    -0.247 NA
ATOM     12  N   UNL     1      16.695  12.260   7.853  0.00  0.00    -0.259 NA
ATOM     28  C   UNL     1      15.338  11.419   6.084  0.00  0.00    +0.144 A 
ATOM     32  C   UNL     1      15.505  11.833   7.387  0.00  0.00    +0.143 A 
ATOM     36  C   UNL     1      17.545  11.847   5.666  0.00  0.00    +0.131 A 
ATOM     38  C   UNL     1      17.712  12.260   6.968  0.00  0.00    +0.130 A 
ENDBRANCH  25  28
BRANCH  14  20
ATOM      1  O   UNL     1      11.361   9.528   7.244  0.00  0.00    -0.274 OA
ATOM      8  N   UNL     1      10.243   9.695   5.209  0.00  0.00    -0.302 N 
ATOM     20  C   UNL     1      11.336   9.439   6.019  0.00  0.00    +0.236 C 
ATOM     43  H   UNL     1      10.369   9.683   4.202  0.00  0.00    +0.150 HD
BRANCH   8  26
ATOM     26  C   UNL     1       8.958  10.111   5.723  0.00  0.00    +0.163 C 
BRANCH  26  30
ATOM      4  O   UNL     1       8.101  12.382   5.589  0.00  0.00    -0.274 OA
ATOM     11  N   UNL     1       8.923  11.403   3.680  0.00  0.00    -0.328 N 
ATOM     30  C   UNL     1       8.594  11.410   5.018  0.00  0.00    +0.231 C 
ATOM     45  H   UNL     1       8.746  12.214   3.096  0.00  0.00    +0.145 HD
ATOM     46  H   UNL     1       9.350  10.601   3.227  0.00  0.00    +0.145 HD
ENDBRANCH  26  30
BRANCH  26  27
ATOM     27  C   UNL     1       7.870   9.054   5.494  0.00  0.00    +0.069 C 
BRANCH  27  29
ATOM     10  N   UNL     1       9.110   5.682   4.716  0.00  0.00    -0.360 N 
ATOM     29  C   UNL     1       8.410   7.652   5.460  0.00  0.00    -0.020 A 
ATOM     31  C   UNL     1       8.809   6.871   6.579  0.00  0.00    +0.003 A 
ATOM     33  C   UNL     1       8.607   6.895   4.328  0.00  0.00    +0.087 A 
ATOM     34  C   UNL     1       9.245   5.639   6.085  0.00  0.00    +0.047 A 
ATOM     35  C   UNL     1       8.843   7.093   7.971  0.00  0.00    +0.010 A 
ATOM     37  C   UNL     1       9.714   4.615   6.916  0.00  0.00    +0.026 A 
ATOM     39  C   UNL     1       9.309   6.077   8.813  0.00  0.00    +0.001 A 
ATOM     40  C   UNL     1       9.736   4.858   8.292  0.00  0.00    +0.002 A 
ATOM     44  H   UNL     1       9.350   4.927   4.088  0.00  0.00    +0.165 HD
ENDBRANCH  27  29
ENDBRANCH  26  27
ENDBRANCH   8  26
ENDBRANCH  14  20
TORSDOF 8
ENDMDL
