MODEL 1
REMARK VINA RESULT:      -7.6      0.000      0.000
REMARK  Name = 40777163
REMARK  7 active torsions:
REMARK  status: ('A' for Active; 'I' for Inactive)
REMARK    1  A    between atoms: N_6  and  C_16
REMARK    2  A    between atoms: C_10  and  C_17
REMARK    3  A    between atoms: C_11  and  C_16
REMARK    4  A    between atoms: C_18  and  C_20
REMARK    5  A    between atoms: C_24  and  C_26
REMARK    6  A    between atoms: C_25  and  C_27
REMARK    7  A    between atoms: C_32  and  C_33
REMARK                            x       y       z     vdW  Elec       q    Type
REMARK                         _______ _______ _______ _____ _____    ______ ____
ROOT
ATOM      5  N   UNL     1      11.090   8.547  21.162  0.00  0.00    -0.297 NA
ATOM      9  C   UNL     1      12.815   6.637  20.769  0.00  0.00    +0.002 C 
ATOM     10  C   UNL     1      13.432   7.754  21.656  0.00  0.00    +0.055 C 
ATOM     11  C   UNL     1      11.175   8.230  19.713  0.00  0.00    +0.074 C 
ATOM     12  C   UNL     1      12.336   7.251  19.437  0.00  0.00    +0.024 C 
ATOM     13  C   UNL     1      11.561   6.123  21.509  0.00  0.00    +0.019 C 
ATOM     14  C   UNL     1      12.426   8.939  21.677  0.00  0.00    +0.094 C 
ATOM     15  C   UNL     1      10.662   7.318  21.872  0.00  0.00    +0.085 C 
ENDROOT
BRANCH  10  17
ATOM      7  N   UNL     1      15.025   9.515  21.067  0.00  0.00    -0.237 NA
ATOM      8  N   UNL     1      17.379   9.080  20.799  0.00  0.00    -0.232 NA
ATOM     17  C   UNL     1      14.853   8.208  21.353  0.00  0.00    +0.050 A 
ATOM     19  C   UNL     1      15.882   7.288  21.380  0.00  0.00    +0.052 A 
ATOM     24  C   UNL     1      17.136   7.786  21.093  0.00  0.00    +0.075 A 
ATOM     25  C   UNL     1      16.295   9.877  20.803  0.00  0.00    +0.127 A 
ATOM     27  C   UNL     1      16.523  11.316  20.481  0.00  0.00    +0.088 C 
BRANCH  24  26
ATOM     26  C   UNL     1      18.296   6.926  21.087  0.00  0.00    +0.000 A 
ATOM     28  C   UNL     1      19.276   7.069  22.069  0.00  0.00    +0.010 A 
ATOM     29  C   UNL     1      18.437   5.952  20.098  0.00  0.00    +0.010 A 
ATOM     30  C   UNL     1      20.396   6.239  22.064  0.00  0.00    +0.013 A 
ATOM     31  C   UNL     1      19.557   5.122  20.092  0.00  0.00    +0.013 A 
ATOM     32  C   UNL     1      20.537   5.265  21.075  0.00  0.00    +0.055 A 
BRANCH  32  33
ATOM      1  F   UNL     1      21.443   3.065  20.826  0.00  0.00    -0.166 F 
ATOM      2  F   UNL     1      22.404   4.389  22.259  0.00  0.00    -0.166 F 
ATOM      3  F   UNL     1      22.662   4.716  20.124  0.00  0.00    -0.166 F 
ATOM     33  C   UNL     1      21.735   4.377  21.069  0.00  0.00    +0.417 C 
ENDBRANCH  32  33
ENDBRANCH  24  26
ENDBRANCH  10  17
BRANCH  11  16
ATOM     16  C   UNL     1      11.271   9.487  18.846  0.00  0.00    +0.123 C 
BRANCH  16   6
ATOM      4  O   UNL     1      13.311  11.500  18.667  0.00  0.00    -0.276 OA
ATOM      6  N   UNL     1      12.441   9.453  18.024  0.00  0.00    -0.314 N 
ATOM     20  C   UNL     1      13.394  10.471  17.988  0.00  0.00    +0.216 C 
ATOM     34  H   UNL     1      12.580   8.639  17.429  0.00  0.00    +0.149 HD
BRANCH  20  18
ATOM     18  C   UNL     1      14.557  10.203  17.014  0.00  0.00    +0.075 C 
ATOM     21  C   UNL     1      14.213   9.543  15.663  0.00  0.00    +0.013 C 
ATOM     22  C   UNL     1      15.097  11.400  16.206  0.00  0.00    +0.013 C 
ATOM     23  C   UNL     1      15.326  10.413  15.042  0.00  0.00    +0.001 C 
ENDBRANCH  20  18
ENDBRANCH  16   6
ENDBRANCH  11  16
TORSDOF 6
ENDMDL
MODEL 2
REMARK VINA RESULT:      -7.5     15.319     18.678
REMARK  Name = 40777163
REMARK  7 active torsions:
REMARK  status: ('A' for Active; 'I' for Inactive)
REMARK    1  A    between atoms: N_6  and  C_16
REMARK    2  A    between atoms: C_10  and  C_17
REMARK    3  A    between atoms: C_11  and  C_16
REMARK    4  A    between atoms: C_18  and  C_20
REMARK    5  A    between atoms: C_24  and  C_26
REMARK    6  A    between atoms: C_25  and  C_27
REMARK    7  A    between atoms: C_32  and  C_33
REMARK                            x       y       z     vdW  Elec       q    Type
REMARK                         _______ _______ _______ _____ _____    ______ ____
ROOT
ATOM      5  N   UNL     1       9.905   7.121   7.728  0.00  0.00    -0.297 NA
ATOM      9  C   UNL     1       9.971   5.165   6.010  0.00  0.00    +0.002 C 
ATOM     10  C   UNL     1      11.224   6.070   5.852  0.00  0.00    +0.055 C 
ATOM     11  C   UNL     1       8.609   7.035   7.005  0.00  0.00    +0.074 C 
ATOM     12  C   UNL     1       8.699   6.022   5.844  0.00  0.00    +0.024 C 
ATOM     13  C   UNL     1       9.980   4.643   7.463  0.00  0.00    +0.019 C 
ATOM     14  C   UNL     1      11.015   7.315   6.761  0.00  0.00    +0.094 C 
ATOM     15  C   UNL     1      10.121   5.832   8.428  0.00  0.00    +0.085 C 
ENDROOT
BRANCH  10  17
ATOM      7  N   UNL     1      12.128   7.704   4.272  0.00  0.00    -0.237 NA
ATOM      8  N   UNL     1      12.460   7.188   1.941  0.00  0.00    -0.232 NA
ATOM     17  C   UNL     1      11.662   6.450   4.445  0.00  0.00    +0.050 A 
ATOM     19  C   UNL     1      11.566   5.521   3.428  0.00  0.00    +0.052 A 
ATOM     24  C   UNL     1      11.984   5.950   2.186  0.00  0.00    +0.075 A 
ATOM     25  C   UNL     1      12.503   8.002   3.013  0.00  0.00    +0.127 A 
ATOM     27  C   UNL     1      13.022   9.381   2.782  0.00  0.00    +0.088 C 
BRANCH  24  26
ATOM     26  C   UNL     1      11.933   5.074   1.039  0.00  0.00    +0.000 A 
ATOM     28  C   UNL     1      10.879   5.175   0.130  0.00  0.00    +0.010 A 
ATOM     29  C   UNL     1      12.936   4.125   0.841  0.00  0.00    +0.010 A 
ATOM     30  C   UNL     1      10.830   4.329  -0.977  0.00  0.00    +0.013 A 
ATOM     31  C   UNL     1      12.886   3.278  -0.266  0.00  0.00    +0.013 A 
ATOM     32  C   UNL     1      11.833   3.380  -1.175  0.00  0.00    +0.055 A 
BRANCH  32  33
ATOM      1  F   UNL     1      12.080   1.175  -2.068  0.00  0.00    -0.166 F 
ATOM      2  F   UNL     1      12.654   2.842  -3.341  0.00  0.00    -0.166 F 
ATOM      3  F   UNL     1      10.553   2.430  -2.958  0.00  0.00    -0.166 F 
ATOM     33  C   UNL     1      11.780   2.475  -2.359  0.00  0.00    +0.417 C 
ENDBRANCH  32  33
ENDBRANCH  24  26
ENDBRANCH  10  17
BRANCH  11  16
ATOM     16  C   UNL     1       8.114   8.404   6.531  0.00  0.00    +0.123 C 
BRANCH  16   6
ATOM      4  O   UNL     1       9.662  10.026   4.738  0.00  0.00    -0.276 OA
ATOM      6  N   UNL     1       8.012   8.443   5.105  0.00  0.00    -0.314 N 
ATOM     20  C   UNL     1       8.801   9.260   4.294  0.00  0.00    +0.216 C 
ATOM     34  H   UNL     1       7.320   7.845   4.662  0.00  0.00    +0.149 HD
BRANCH  20  18
ATOM     18  C   UNL     1       8.492   9.129   2.790  0.00  0.00    +0.075 C 
ATOM     21  C   UNL     1       9.458   9.819   1.805  0.00  0.00    +0.013 C 
ATOM     22  C   UNL     1       8.862   7.798   2.103  0.00  0.00    +0.013 C 
ATOM     23  C   UNL     1       9.212   8.630   0.851  0.00  0.00    +0.001 C 
ENDBRANCH  20  18
ENDBRANCH  16   6
ENDBRANCH  11  16
TORSDOF 6
ENDMDL
MODEL 3
REMARK VINA RESULT:      -7.4     26.483     29.684
REMARK  Name = 40777163
REMARK  7 active torsions:
REMARK  status: ('A' for Active; 'I' for Inactive)
REMARK    1  A    between atoms: N_6  and  C_16
REMARK    2  A    between atoms: C_10  and  C_17
REMARK    3  A    between atoms: C_11  and  C_16
REMARK    4  A    between atoms: C_18  and  C_20
REMARK    5  A    between atoms: C_24  and  C_26
REMARK    6  A    between atoms: C_25  and  C_27
REMARK    7  A    between atoms: C_32  and  C_33
REMARK                            x       y       z     vdW  Elec       q    Type
REMARK                         _______ _______ _______ _____ _____    ______ ____
ROOT
ATOM      5  N   UNL     1      -7.564 -11.610  17.781  0.00  0.00    -0.297 NA
ATOM      9  C   UNL     1      -5.069 -11.448  18.511  0.00  0.00    +0.002 C 
ATOM     10  C   UNL     1      -5.341 -10.524  17.292  0.00  0.00    +0.055 C 
ATOM     11  C   UNL     1      -6.987 -12.972  17.921  0.00  0.00    +0.074 C 
ATOM     12  C   UNL     1      -5.462 -12.897  18.150  0.00  0.00    +0.024 C 
ATOM     13  C   UNL     1      -6.020 -10.989  19.637  0.00  0.00    +0.019 C 
ATOM     14  C   UNL     1      -6.782 -10.825  16.792  0.00  0.00    +0.094 C 
ATOM     15  C   UNL     1      -7.459 -10.934  19.096  0.00  0.00    +0.085 C 
ENDROOT
BRANCH  10  17
ATOM      7  N   UNL     1      -3.023 -10.502  16.507  0.00  0.00    -0.237 NA
ATOM      8  N   UNL     1      -2.461 -10.501  14.164  0.00  0.00    -0.232 NA
ATOM     17  C   UNL     1      -4.326 -10.517  16.157  0.00  0.00    +0.050 A 
ATOM     19  C   UNL     1      -4.768 -10.523  14.849  0.00  0.00    +0.052 A 
ATOM     24  C   UNL     1      -3.781 -10.515  13.886  0.00  0.00    +0.075 A 
ATOM     25  C   UNL     1      -2.157 -10.494  15.476  0.00  0.00    +0.127 A 
ATOM     27  C   UNL     1      -0.707 -10.476  15.824  0.00  0.00    +0.088 C 
BRANCH  24  26
ATOM     26  C   UNL     1      -4.112 -10.520  12.480  0.00  0.00    +0.000 A 
ATOM     28  C   UNL     1      -5.431 -10.725  12.075  0.00  0.00    +0.010 A 
ATOM     29  C   UNL     1      -3.113 -10.320  11.527  0.00  0.00    +0.010 A 
ATOM     30  C   UNL     1      -5.751 -10.729  10.718  0.00  0.00    +0.013 A 
ATOM     31  C   UNL     1      -3.433 -10.325  10.170  0.00  0.00    +0.013 A 
ATOM     32  C   UNL     1      -4.751 -10.530   9.765  0.00  0.00    +0.055 A 
BRANCH  32  33
ATOM      1  F   UNL     1      -4.878  -9.336   7.696  0.00  0.00    -0.166 F 
ATOM      2  F   UNL     1      -6.406 -10.833   8.084  0.00  0.00    -0.166 F 
ATOM      3  F   UNL     1      -4.379 -11.444   7.586  0.00  0.00    -0.166 F 
ATOM     33  C   UNL     1      -5.094 -10.535   8.313  0.00  0.00    +0.417 C 
ENDBRANCH  32  33
ENDBRANCH  24  26
ENDBRANCH  10  17
BRANCH  11  16
ATOM     16  C   UNL     1      -7.342 -13.881  16.742  0.00  0.00    +0.123 C 
BRANCH  16   6
ATOM      4  O   UNL     1      -6.768 -13.455  13.962  0.00  0.00    -0.276 OA
ATOM      6  N   UNL     1      -6.166 -14.287  16.037  0.00  0.00    -0.314 N 
ATOM     20  C   UNL     1      -5.953 -14.044  14.680  0.00  0.00    +0.216 C 
ATOM     34  H   UNL     1      -5.448 -14.784  16.558  0.00  0.00    +0.149 HD
BRANCH  20  18
ATOM     18  C   UNL     1      -4.613 -14.590  14.152  0.00  0.00    +0.075 C 
ATOM     21  C   UNL     1      -4.166 -14.136  12.747  0.00  0.00    +0.013 C 
ATOM     22  C   UNL     1      -3.321 -13.940  14.689  0.00  0.00    +0.013 C 
ATOM     23  C   UNL     1      -2.720 -14.155  13.284  0.00  0.00    +0.001 C 
ENDBRANCH  20  18
ENDBRANCH  16   6
ENDBRANCH  11  16
TORSDOF 6
ENDMDL
MODEL 4
REMARK VINA RESULT:      -7.4      2.349      4.255
REMARK  Name = 40777163
REMARK  7 active torsions:
REMARK  status: ('A' for Active; 'I' for Inactive)
REMARK    1  A    between atoms: N_6  and  C_16
REMARK    2  A    between atoms: C_10  and  C_17
REMARK    3  A    between atoms: C_11  and  C_16
REMARK    4  A    between atoms: C_18  and  C_20
REMARK    5  A    between atoms: C_24  and  C_26
REMARK    6  A    between atoms: C_25  and  C_27
REMARK    7  A    between atoms: C_32  and  C_33
REMARK                            x       y       z     vdW  Elec       q    Type
REMARK                         _______ _______ _______ _____ _____    ______ ____
ROOT
ATOM      5  N   UNL     1      13.043   6.945  19.773  0.00  0.00    -0.297 NA
ATOM      9  C   UNL     1      14.582   8.859  18.906  0.00  0.00    +0.002 C 
ATOM     10  C   UNL     1      15.432   7.636  19.348  0.00  0.00    +0.055 C 
ATOM     11  C   UNL     1      12.679   8.227  20.431  0.00  0.00    +0.074 C 
ATOM     12  C   UNL     1      13.708   9.326  20.089  0.00  0.00    +0.024 C 
ATOM     13  C   UNL     1      13.624   8.361  17.804  0.00  0.00    +0.019 C 
ATOM     14  C   UNL     1      14.470   6.625  20.035  0.00  0.00    +0.094 C 
ATOM     15  C   UNL     1      12.869   7.120  18.311  0.00  0.00    +0.085 C 
ENDROOT
BRANCH  10  17
ATOM      7  N   UNL     1      16.815   9.122  20.713  0.00  0.00    -0.237 NA
ATOM      8  N   UNL     1      18.912   8.411  21.663  0.00  0.00    -0.232 NA
ATOM     17  C   UNL     1      16.685   7.892  20.174  0.00  0.00    +0.050 A 
ATOM     19  C   UNL     1      17.614   6.884  20.331  0.00  0.00    +0.052 A 
ATOM     24  C   UNL     1      18.718   7.204  21.094  0.00  0.00    +0.075 A 
ATOM     25  C   UNL     1      17.937   9.310  21.434  0.00  0.00    +0.127 A 
ATOM     27  C   UNL     1      18.116  10.659  22.045  0.00  0.00    +0.088 C 
BRANCH  24  26
ATOM     26  C   UNL     1      19.764   6.237  21.333  0.00  0.00    +0.000 A 
ATOM     28  C   UNL     1      20.590   6.364  22.450  0.00  0.00    +0.010 A 
ATOM     29  C   UNL     1      19.949   5.176  20.445  0.00  0.00    +0.010 A 
ATOM     30  C   UNL     1      21.599   5.430  22.681  0.00  0.00    +0.013 A 
ATOM     31  C   UNL     1      20.959   4.243  20.676  0.00  0.00    +0.013 A 
ATOM     32  C   UNL     1      21.784   4.370  21.794  0.00  0.00    +0.055 A 
BRANCH  32  33
ATOM      1  F   UNL     1      24.048   3.931  22.429  0.00  0.00    -0.166 F 
ATOM      2  F   UNL     1      23.156   2.628  20.934  0.00  0.00    -0.166 F 
ATOM      3  F   UNL     1      22.560   2.468  23.019  0.00  0.00    -0.166 F 
ATOM     33  C   UNL     1      22.864   3.371  22.041  0.00  0.00    +0.417 C 
ENDBRANCH  32  33
ENDBRANCH  24  26
ENDBRANCH  10  17
BRANCH  11  16
ATOM     16  C   UNL     1      12.490   8.073  21.942  0.00  0.00    +0.123 C 
BRANCH  16   6
ATOM      4  O   UNL     1      10.242   9.711  22.654  0.00  0.00    -0.276 OA
ATOM      6  N   UNL     1      12.528   9.346  22.593  0.00  0.00    -0.314 N 
ATOM     20  C   UNL     1      11.390  10.089  22.910  0.00  0.00    +0.216 C 
ATOM     34  H   UNL     1      13.438   9.729  22.834  0.00  0.00    +0.149 HD
BRANCH  20  18
ATOM     18  C   UNL     1      11.695  11.432  23.600  0.00  0.00    +0.075 C 
ATOM     21  C   UNL     1      10.971  12.685  23.066  0.00  0.00    +0.013 C 
ATOM     22  C   UNL     1      11.009  11.706  24.954  0.00  0.00    +0.013 C 
ATOM     23  C   UNL     1      10.924  13.186  24.525  0.00  0.00    +0.001 C 
ENDBRANCH  20  18
ENDBRANCH  16   6
ENDBRANCH  11  16
TORSDOF 6
ENDMDL
MODEL 5
REMARK VINA RESULT:      -7.3      2.203      3.389
REMARK  Name = 40777163
REMARK  7 active torsions:
REMARK  status: ('A' for Active; 'I' for Inactive)
REMARK    1  A    between atoms: N_6  and  C_16
REMARK    2  A    between atoms: C_10  and  C_17
REMARK    3  A    between atoms: C_11  and  C_16
REMARK    4  A    between atoms: C_18  and  C_20
REMARK    5  A    between atoms: C_24  and  C_26
REMARK    6  A    between atoms: C_25  and  C_27
REMARK    7  A    between atoms: C_32  and  C_33
REMARK                            x       y       z     vdW  Elec       q    Type
REMARK                         _______ _______ _______ _____ _____    ______ ____
ROOT
ATOM      5  N   UNL     1      13.165  12.157  23.303  0.00  0.00    -0.297 NA
ATOM      9  C   UNL     1      11.531  10.671  21.923  0.00  0.00    +0.002 C 
ATOM     10  C   UNL     1      12.794   9.861  22.326  0.00  0.00    +0.055 C 
ATOM     11  C   UNL     1      12.759  12.866  22.062  0.00  0.00    +0.074 C 
ATOM     12  C   UNL     1      11.960  11.926  21.134  0.00  0.00    +0.024 C 
ATOM     13  C   UNL     1      10.880  11.161  23.234  0.00  0.00    +0.019 C 
ATOM     14  C   UNL     1      13.802  10.860  22.963  0.00  0.00    +0.094 C 
ATOM     15  C   UNL     1      11.939  11.878  24.089  0.00  0.00    +0.085 C 
ENDROOT
BRANCH  10  17
ATOM      7  N   UNL     1      12.686   8.636  20.211  0.00  0.00    -0.237 NA
ATOM      8  N   UNL     1      14.562   7.391  19.351  0.00  0.00    -0.232 NA
ATOM     17  C   UNL     1      13.446   8.977  21.272  0.00  0.00    +0.050 A 
ATOM     19  C   UNL     1      14.754   8.569  21.441  0.00  0.00    +0.052 A 
ATOM     24  C   UNL     1      15.264   7.770  20.438  0.00  0.00    +0.075 A 
ATOM     25  C   UNL     1      13.298   7.852  19.302  0.00  0.00    +0.127 A 
ATOM     27  C   UNL     1      12.488   7.452  18.116  0.00  0.00    +0.088 C 
BRANCH  24  26
ATOM     26  C   UNL     1      16.620   7.276  20.497  0.00  0.00    +0.000 A 
ATOM     28  C   UNL     1      17.534   7.849  21.381  0.00  0.00    +0.010 A 
ATOM     29  C   UNL     1      17.016   6.226  19.668  0.00  0.00    +0.010 A 
ATOM     30  C   UNL     1      18.842   7.372  21.438  0.00  0.00    +0.013 A 
ATOM     31  C   UNL     1      18.325   5.749  19.725  0.00  0.00    +0.013 A 
ATOM     32  C   UNL     1      19.239   6.322  20.609  0.00  0.00    +0.055 A 
BRANCH  32  33
ATOM      1  F   UNL     1      21.063   5.526  21.936  0.00  0.00    -0.166 F 
ATOM      2  F   UNL     1      21.545   6.704  20.173  0.00  0.00    -0.166 F 
ATOM      3  F   UNL     1      20.833   4.660  19.962  0.00  0.00    -0.166 F 
ATOM     33  C   UNL     1      20.639   5.812  20.670  0.00  0.00    +0.417 C 
ENDBRANCH  32  33
ENDBRANCH  24  26
ENDBRANCH  10  17
BRANCH  11  16
ATOM     16  C   UNL     1      13.947  13.505  21.340  0.00  0.00    +0.123 C 
BRANCH  16   6
ATOM      4  O   UNL     1      16.257  11.880  20.822  0.00  0.00    -0.276 OA
ATOM      6  N   UNL     1      14.249  12.802  20.131  0.00  0.00    -0.314 N 
ATOM     20  C   UNL     1      15.395  12.028  19.950  0.00  0.00    +0.216 C 
ATOM     34  H   UNL     1      13.589  12.878  19.361  0.00  0.00    +0.149 HD
BRANCH  20  18
ATOM     18  C   UNL     1      15.496  11.380  18.556  0.00  0.00    +0.075 C 
ATOM     21  C   UNL     1      14.175  11.037  17.836  0.00  0.00    +0.013 C 
ATOM     22  C   UNL     1      15.815  12.307  17.364  0.00  0.00    +0.013 C 
ATOM     23  C   UNL     1      14.884  11.413  16.518  0.00  0.00    +0.001 C 
ENDBRANCH  20  18
ENDBRANCH  16   6
ENDBRANCH  11  16
TORSDOF 6
ENDMDL
MODEL 6
REMARK VINA RESULT:      -7.2      4.635      7.128
REMARK  Name = 40777163
REMARK  7 active torsions:
REMARK  status: ('A' for Active; 'I' for Inactive)
REMARK    1  A    between atoms: N_6  and  C_16
REMARK    2  A    between atoms: C_10  and  C_17
REMARK    3  A    between atoms: C_11  and  C_16
REMARK    4  A    between atoms: C_18  and  C_20
REMARK    5  A    between atoms: C_24  and  C_26
REMARK    6  A    between atoms: C_25  and  C_27
REMARK    7  A    between atoms: C_32  and  C_33
REMARK                            x       y       z     vdW  Elec       q    Type
REMARK                         _______ _______ _______ _____ _____    ______ ____
ROOT
ATOM      5  N   UNL     1      11.677  11.902  25.339  0.00  0.00    -0.297 NA
ATOM      9  C   UNL     1      11.187  12.576  22.871  0.00  0.00    +0.002 C 
ATOM     10  C   UNL     1      10.811  11.088  23.114  0.00  0.00    +0.055 C 
ATOM     11  C   UNL     1      12.865  12.573  24.750  0.00  0.00    +0.074 C 
ATOM     12  C   UNL     1      12.671  12.793  23.234  0.00  0.00    +0.024 C 
ATOM     13  C   UNL     1      10.351  13.413  23.863  0.00  0.00    +0.019 C 
ATOM     14  C   UNL     1      11.316  10.707  24.535  0.00  0.00    +0.094 C 
ATOM     15  C   UNL     1      10.543  12.855  25.284  0.00  0.00    +0.085 C 
ENDROOT
BRANCH  10  17
ATOM      7  N   UNL     1      10.887   8.780  22.306  0.00  0.00    -0.237 NA
ATOM      8  N   UNL     1      11.926   8.185  20.214  0.00  0.00    -0.232 NA
ATOM     17  C   UNL     1      11.219  10.064  22.063  0.00  0.00    +0.050 A 
ATOM     19  C   UNL     1      11.896  10.481  20.934  0.00  0.00    +0.052 A 
ATOM     24  C   UNL     1      12.227   9.487  20.036  0.00  0.00    +0.075 A 
ATOM     25  C   UNL     1      11.267   7.905  21.354  0.00  0.00    +0.127 A 
ATOM     27  C   UNL     1      10.918   6.474  21.589  0.00  0.00    +0.088 C 
BRANCH  24  26
ATOM     26  C   UNL     1      12.938   9.793  18.816  0.00  0.00    +0.000 A 
ATOM     28  C   UNL     1      13.232  11.118  18.493  0.00  0.00    +0.010 A 
ATOM     29  C   UNL     1      13.329   8.763  17.961  0.00  0.00    +0.010 A 
ATOM     30  C   UNL     1      13.918  11.412  17.316  0.00  0.00    +0.013 A 
ATOM     31  C   UNL     1      14.014   9.058  16.783  0.00  0.00    +0.013 A 
ATOM     32  C   UNL     1      14.309  10.382  16.460  0.00  0.00    +0.055 A 
BRANCH  32  33
ATOM      1  F   UNL     1      16.196  11.400  15.400  0.00  0.00    -0.166 F 
ATOM      2  F   UNL     1      14.301  11.450  14.335  0.00  0.00    -0.166 F 
ATOM      3  F   UNL     1      15.418   9.591  14.494  0.00  0.00    -0.166 F 
ATOM     33  C   UNL     1      15.042  10.698  15.200  0.00  0.00    +0.417 C 
ENDBRANCH  32  33
ENDBRANCH  24  26
ENDBRANCH  10  17
BRANCH  11  16
ATOM     16  C   UNL     1      14.166  11.828  25.057  0.00  0.00    +0.123 C 
BRANCH  16   6
ATOM      4  O   UNL     1      14.525   9.776  23.081  0.00  0.00    -0.276 OA
ATOM      6  N   UNL     1      15.051  11.864  23.934  0.00  0.00    -0.314 N 
ATOM     20  C   UNL     1      15.174  10.825  23.010  0.00  0.00    +0.216 C 
ATOM     34  H   UNL     1      15.626  12.693  23.808  0.00  0.00    +0.149 HD
BRANCH  20  18
ATOM     18  C   UNL     1      16.203  11.099  21.896  0.00  0.00    +0.075 C 
ATOM     21  C   UNL     1      16.260  10.101  20.722  0.00  0.00    +0.013 C 
ATOM     22  C   UNL     1      15.851  12.185  20.858  0.00  0.00    +0.013 C 
ATOM     23  C   UNL     1      16.572  11.308  19.812  0.00  0.00    +0.001 C 
ENDBRANCH  20  18
ENDBRANCH  16   6
ENDBRANCH  11  16
TORSDOF 6
ENDMDL
MODEL 7
REMARK VINA RESULT:      -7.2     28.267     29.725
REMARK  Name = 40777163
REMARK  7 active torsions:
REMARK  status: ('A' for Active; 'I' for Inactive)
REMARK    1  A    between atoms: N_6  and  C_16
REMARK    2  A    between atoms: C_10  and  C_17
REMARK    3  A    between atoms: C_11  and  C_16
REMARK    4  A    between atoms: C_18  and  C_20
REMARK    5  A    between atoms: C_24  and  C_26
REMARK    6  A    between atoms: C_25  and  C_27
REMARK    7  A    between atoms: C_32  and  C_33
REMARK                            x       y       z     vdW  Elec       q    Type
REMARK                         _______ _______ _______ _____ _____    ______ ____
ROOT
ATOM      5  N   UNL     1      -5.711 -10.573   9.543  0.00  0.00    -0.297 NA
ATOM      9  C   UNL     1      -3.803  -9.618  11.035  0.00  0.00    +0.002 C 
ATOM     10  C   UNL     1      -3.706 -11.167  10.953  0.00  0.00    +0.055 C 
ATOM     11  C   UNL     1      -6.274  -9.636  10.550  0.00  0.00    +0.074 C 
ATOM     12  C   UNL     1      -5.194  -9.222  11.572  0.00  0.00    +0.024 C 
ATOM     13  C   UNL     1      -3.707  -9.090   9.588  0.00  0.00    +0.019 C 
ATOM     14  C   UNL     1      -4.982 -11.674  10.222  0.00  0.00    +0.094 C 
ATOM     15  C   UNL     1      -4.742  -9.819   8.713  0.00  0.00    +0.085 C 
ENDROOT
BRANCH  10  17
ATOM      7  N   UNL     1      -2.583 -12.982  12.148  0.00  0.00    -0.237 NA
ATOM      8  N   UNL     1      -2.905 -13.359  14.507  0.00  0.00    -0.232 NA
ATOM     17  C   UNL     1      -3.432 -11.938  12.237  0.00  0.00    +0.050 A 
ATOM     19  C   UNL     1      -4.049 -11.549  13.409  0.00  0.00    +0.052 A 
ATOM     24  C   UNL     1      -3.744 -12.304  14.523  0.00  0.00    +0.075 A 
ATOM     25  C   UNL     1      -2.368 -13.639  13.304  0.00  0.00    +0.127 A 
ATOM     27  C   UNL     1      -1.435 -14.801  13.245  0.00  0.00    +0.088 C 
BRANCH  24  26
ATOM     26  C   UNL     1      -4.325 -12.000  15.810  0.00  0.00    +0.000 A 
ATOM     28  C   UNL     1      -4.306 -10.692  16.293  0.00  0.00    +0.010 A 
ATOM     29  C   UNL     1      -4.904 -13.017  16.571  0.00  0.00    +0.010 A 
ATOM     30  C   UNL     1      -4.867 -10.399  17.535  0.00  0.00    +0.013 A 
ATOM     31  C   UNL     1      -5.465 -12.724  17.813  0.00  0.00    +0.013 A 
ATOM     32  C   UNL     1      -5.446 -11.415  18.296  0.00  0.00    +0.055 A 
BRANCH  32  33
ATOM      1  F   UNL     1      -7.218 -11.759  19.865  0.00  0.00    -0.166 F 
ATOM      2  F   UNL     1      -6.332  -9.776  19.773  0.00  0.00    -0.166 F 
ATOM      3  F   UNL     1      -5.237 -11.422  20.679  0.00  0.00    -0.166 F 
ATOM     33  C   UNL     1      -6.046 -11.102  19.625  0.00  0.00    +0.417 C 
ENDBRANCH  32  33
ENDBRANCH  24  26
ENDBRANCH  10  17
BRANCH  11  16
ATOM     16  C   UNL     1      -7.522 -10.199  11.235  0.00  0.00    +0.123 C 
BRANCH  16   6
ATOM      4  O   UNL     1      -9.509  -9.596  13.218  0.00  0.00    -0.276 OA
ATOM      6  N   UNL     1      -7.354 -10.230  12.655  0.00  0.00    -0.314 N 
ATOM     20  C   UNL     1      -8.369  -9.924  13.562  0.00  0.00    +0.216 C 
ATOM     34  H   UNL     1      -6.441 -10.487  13.019  0.00  0.00    +0.149 HD
BRANCH  20  18
ATOM     18  C   UNL     1      -7.936 -10.021  15.038  0.00  0.00    +0.075 C 
ATOM     21  C   UNL     1      -8.714  -9.170  16.063  0.00  0.00    +0.013 C 
ATOM     22  C   UNL     1      -8.396 -11.261  15.832  0.00  0.00    +0.013 C 
ATOM     23  C   UNL     1      -8.522 -10.333  17.059  0.00  0.00    +0.001 C 
ENDBRANCH  20  18
ENDBRANCH  16   6
ENDBRANCH  11  16
TORSDOF 6
ENDMDL
MODEL 8
REMARK VINA RESULT:      -7.2     27.645     29.929
REMARK  Name = 40777163
REMARK  7 active torsions:
REMARK  status: ('A' for Active; 'I' for Inactive)
REMARK    1  A    between atoms: N_6  and  C_16
REMARK    2  A    between atoms: C_10  and  C_17
REMARK    3  A    between atoms: C_11  and  C_16
REMARK    4  A    between atoms: C_18  and  C_20
REMARK    5  A    between atoms: C_24  and  C_26
REMARK    6  A    between atoms: C_25  and  C_27
REMARK    7  A    between atoms: C_32  and  C_33
REMARK                            x       y       z     vdW  Elec       q    Type
REMARK                         _______ _______ _______ _____ _____    ______ ____
ROOT
ATOM      5  N   UNL     1      -6.093 -12.564  18.219  0.00  0.00    -0.297 NA
ATOM      9  C   UNL     1      -6.410 -10.003  17.873  0.00  0.00    +0.002 C 
ATOM     10  C   UNL     1      -7.613 -10.785  17.277  0.00  0.00    +0.055 C 
ATOM     11  C   UNL     1      -4.863 -11.975  17.628  0.00  0.00    +0.074 C 
ATOM     12  C   UNL     1      -5.103 -10.505  17.225  0.00  0.00    +0.024 C 
ATOM     13  C   UNL     1      -6.342 -10.367  19.372  0.00  0.00    +0.019 C 
ATOM     14  C   UNL     1      -7.259 -12.299  17.339  0.00  0.00    +0.094 C 
ATOM     15  C   UNL     1      -6.336 -11.898  19.521  0.00  0.00    +0.085 C 
ENDROOT
BRANCH  10  17
ATOM      7  N   UNL     1      -9.438 -10.045  15.825  0.00  0.00    -0.237 NA
ATOM      8  N   UNL     1      -9.117  -9.618  13.475  0.00  0.00    -0.232 NA
ATOM     17  C   UNL     1      -8.131 -10.370  15.907  0.00  0.00    +0.050 A 
ATOM     19  C   UNL     1      -7.266 -10.344  14.831  0.00  0.00    +0.052 A 
ATOM     24  C   UNL     1      -7.821  -9.957  13.629  0.00  0.00    +0.075 A 
ATOM     25  C   UNL     1      -9.858  -9.685  14.597  0.00  0.00    +0.127 A 
ATOM     27  C   UNL     1     -11.299  -9.320  14.468  0.00  0.00    +0.088 C 
BRANCH  24  26
ATOM     26  C   UNL     1      -7.022  -9.890  12.427  0.00  0.00    +0.000 A 
ATOM     28  C   UNL     1      -6.227  -8.771  12.179  0.00  0.00    +0.010 A 
ATOM     29  C   UNL     1      -7.046 -10.945  11.514  0.00  0.00    +0.010 A 
ATOM     30  C   UNL     1      -5.456  -8.707  11.019  0.00  0.00    +0.013 A 
ATOM     31  C   UNL     1      -6.276 -10.880  10.354  0.00  0.00    +0.013 A 
ATOM     32  C   UNL     1      -5.481  -9.762  10.106  0.00  0.00    +0.055 A 
BRANCH  32  33
ATOM      1  F   UNL     1      -3.629  -8.795   8.940  0.00  0.00    -0.166 F 
ATOM      2  F   UNL     1      -5.384  -9.326   7.771  0.00  0.00    -0.166 F 
ATOM      3  F   UNL     1      -4.067 -10.879   8.533  0.00  0.00    -0.166 F 
ATOM     33  C   UNL     1      -4.656  -9.692   8.865  0.00  0.00    +0.417 C 
ENDBRANCH  32  33
ENDBRANCH  24  26
ENDBRANCH  10  17
BRANCH  11  16
ATOM     16  C   UNL     1      -4.322 -12.806  16.463  0.00  0.00    +0.123 C 
BRANCH  16   6
ATOM      4  O   UNL     1      -3.949 -13.681  13.754  0.00  0.00    -0.276 OA
ATOM      6  N   UNL     1      -4.071 -11.981  15.322  0.00  0.00    -0.314 N 
ATOM     20  C   UNL     1      -3.899 -12.478  14.029  0.00  0.00    +0.216 C 
ATOM     34  H   UNL     1      -4.009 -10.977  15.466  0.00  0.00    +0.149 HD
BRANCH  20  18
ATOM     18  C   UNL     1      -3.630 -11.388  12.973  0.00  0.00    +0.075 C 
ATOM     21  C   UNL     1      -2.430 -10.450  13.213  0.00  0.00    +0.013 C 
ATOM     22  C   UNL     1      -2.934 -11.822  11.667  0.00  0.00    +0.013 C 
ATOM     23  C   UNL     1      -2.220 -10.454  11.684  0.00  0.00    +0.001 C 
ENDBRANCH  20  18
ENDBRANCH  16   6
ENDBRANCH  11  16
TORSDOF 6
ENDMDL
MODEL 9
REMARK VINA RESULT:      -7.2     13.918     17.772
REMARK  Name = 40777163
REMARK  7 active torsions:
REMARK  status: ('A' for Active; 'I' for Inactive)
REMARK    1  A    between atoms: N_6  and  C_16
REMARK    2  A    between atoms: C_10  and  C_17
REMARK    3  A    between atoms: C_11  and  C_16
REMARK    4  A    between atoms: C_18  and  C_20
REMARK    5  A    between atoms: C_24  and  C_26
REMARK    6  A    between atoms: C_25  and  C_27
REMARK    7  A    between atoms: C_32  and  C_33
REMARK                            x       y       z     vdW  Elec       q    Type
REMARK                         _______ _______ _______ _____ _____    ______ ____
ROOT
ATOM      5  N   UNL     1      12.942   7.240  -0.160  0.00  0.00    -0.297 NA
ATOM      9  C   UNL     1      11.795   5.355   1.224  0.00  0.00    +0.002 C 
ATOM     10  C   UNL     1      10.796   6.513   0.949  0.00  0.00    +0.055 C 
ATOM     11  C   UNL     1      13.790   6.878   1.005  0.00  0.00    +0.074 C 
ATOM     12  C   UNL     1      13.037   5.915   1.949  0.00  0.00    +0.024 C 
ATOM     13  C   UNL     1      12.268   4.839  -0.151  0.00  0.00    +0.019 C 
ATOM     14  C   UNL     1      11.600   7.677   0.302  0.00  0.00    +0.094 C 
ATOM     15  C   UNL     1      12.771   6.025  -0.992  0.00  0.00    +0.085 C 
ENDROOT
BRANCH  10  17
ATOM      7  N   UNL     1       9.027   7.964   1.815  0.00  0.00    -0.237 NA
ATOM      8  N   UNL     1       8.308   7.881   4.113  0.00  0.00    -0.232 NA
ATOM     17  C   UNL     1       9.915   6.988   2.096  0.00  0.00    +0.050 A 
ATOM     19  C   UNL     1      10.057   6.418   3.345  0.00  0.00    +0.052 A 
ATOM     24  C   UNL     1       9.218   6.909   4.324  0.00  0.00    +0.075 A 
ATOM     25  C   UNL     1       8.267   8.358   2.855  0.00  0.00    +0.127 A 
ATOM     27  C   UNL     1       7.274   9.437   2.583  0.00  0.00    +0.088 C 
BRANCH  24  26
ATOM     26  C   UNL     1       9.269   6.396   5.673  0.00  0.00    +0.000 A 
ATOM     28  C   UNL     1       8.840   7.189   6.738  0.00  0.00    +0.010 A 
ATOM     29  C   UNL     1       9.749   5.108   5.912  0.00  0.00    +0.010 A 
ATOM     30  C   UNL     1       8.889   6.694   8.040  0.00  0.00    +0.013 A 
ATOM     31  C   UNL     1       9.798   4.613   7.215  0.00  0.00    +0.013 A 
ATOM     32  C   UNL     1       9.369   5.406   8.279  0.00  0.00    +0.055 A 
BRANCH  32  33
ATOM      1  F   UNL     1       8.307   5.164  10.409  0.00  0.00    -0.166 F 
ATOM      2  F   UNL     1      10.471   5.380  10.386  0.00  0.00    -0.166 F 
ATOM      3  F   UNL     1       9.551   3.519   9.737  0.00  0.00    -0.166 F 
ATOM     33  C   UNL     1       9.421   4.877   9.673  0.00  0.00    +0.417 C 
ENDBRANCH  32  33
ENDBRANCH  24  26
ENDBRANCH  10  17
BRANCH  11  16
ATOM     16  C   UNL     1      14.317   8.108   1.747  0.00  0.00    +0.123 C 
BRANCH  16   6
ATOM      4  O   UNL     1      15.982   8.506   4.052  0.00  0.00    -0.276 OA
ATOM      6  N   UNL     1      13.904   8.094   3.116  0.00  0.00    -0.314 N 
ATOM     20  C   UNL     1      14.773   8.297   4.190  0.00  0.00    +0.216 C 
ATOM     34  H   UNL     1      12.922   7.922   3.315  0.00  0.00    +0.149 HD
BRANCH  20  18
ATOM     18  C   UNL     1      14.088   8.223   5.568  0.00  0.00    +0.075 C 
ATOM     21  C   UNL     1      12.697   7.558   5.634  0.00  0.00    +0.013 C 
ATOM     22  C   UNL     1      14.573   7.132   6.545  0.00  0.00    +0.013 C 
ATOM     23  C   UNL     1      13.109   7.014   7.019  0.00  0.00    +0.001 C 
ENDBRANCH  20  18
ENDBRANCH  16   6
ENDBRANCH  11  16
TORSDOF 6
ENDMDL
MODEL 10
REMARK VINA RESULT:      -7.1     28.116     31.102
REMARK  Name = 40777163
REMARK  7 active torsions:
REMARK  status: ('A' for Active; 'I' for Inactive)
REMARK    1  A    between atoms: N_6  and  C_16
REMARK    2  A    between atoms: C_10  and  C_17
REMARK    3  A    between atoms: C_11  and  C_16
REMARK    4  A    between atoms: C_18  and  C_20
REMARK    5  A    between atoms: C_24  and  C_26
REMARK    6  A    between atoms: C_25  and  C_27
REMARK    7  A    between atoms: C_32  and  C_33
REMARK                            x       y       z     vdW  Elec       q    Type
REMARK                         _______ _______ _______ _____ _____    ______ ____
ROOT
ATOM      5  N   UNL     1     -12.103 -12.261  19.752  0.00  0.00    -0.297 NA
ATOM      9  C   UNL     1     -11.440  -9.757  19.486  0.00  0.00    +0.002 C 
ATOM     10  C   UNL     1     -11.868 -10.355  18.117  0.00  0.00    +0.055 C 
ATOM     11  C   UNL     1     -10.785 -12.014  20.392  0.00  0.00    +0.074 C 
ATOM     12  C   UNL     1     -10.279 -10.592  20.067  0.00  0.00    +0.024 C 
ATOM     13  C   UNL     1     -12.641  -9.925  20.440  0.00  0.00    +0.019 C 
ATOM     14  C   UNL     1     -12.051 -11.887  18.316  0.00  0.00    +0.094 C 
ATOM     15  C   UNL     1     -13.102 -11.393  20.421  0.00  0.00    +0.085 C 
ENDROOT
BRANCH  10  17
ATOM      7  N   UNL     1     -11.662  -9.495  15.836  0.00  0.00    -0.237 NA
ATOM      8  N   UNL     1      -9.552  -9.428  14.674  0.00  0.00    -0.232 NA
ATOM     17  C   UNL     1     -11.020 -10.030  16.895  0.00  0.00    +0.050 A 
ATOM     19  C   UNL     1      -9.665 -10.290  16.918  0.00  0.00    +0.052 A 
ATOM     24  C   UNL     1      -8.975  -9.965  15.768  0.00  0.00    +0.075 A 
ATOM     25  C   UNL     1     -10.879  -9.223  14.774  0.00  0.00    +0.127 A 
ATOM     27  C   UNL     1     -11.554  -8.632  13.583  0.00  0.00    +0.088 C 
BRANCH  24  26
ATOM     26  C   UNL     1      -7.552 -10.190  15.665  0.00  0.00    +0.000 A 
ATOM     28  C   UNL     1      -6.664  -9.371  16.363  0.00  0.00    +0.010 A 
ATOM     29  C   UNL     1      -7.065 -11.224  14.865  0.00  0.00    +0.010 A 
ATOM     30  C   UNL     1      -5.290  -9.588  16.264  0.00  0.00    +0.013 A 
ATOM     31  C   UNL     1      -5.691 -11.440  14.766  0.00  0.00    +0.013 A 
ATOM     32  C   UNL     1      -4.804 -10.623  15.464  0.00  0.00    +0.055 A 
BRANCH  32  33
ATOM      1  F   UNL     1      -2.783 -10.353  14.213  0.00  0.00    -0.166 F 
ATOM      2  F   UNL     1      -3.008 -12.179  15.371  0.00  0.00    -0.166 F 
ATOM      3  F   UNL     1      -2.617 -10.289  16.374  0.00  0.00    -0.166 F 
ATOM     33  C   UNL     1      -3.334 -10.854  15.357  0.00  0.00    +0.417 C 
ENDBRANCH  32  33
ENDBRANCH  24  26
ENDBRANCH  10  17
BRANCH  11  16
ATOM     16  C   UNL     1      -9.752 -13.083  20.029  0.00  0.00    +0.123 C 
BRANCH  16   6
ATOM      4  O   UNL     1      -7.929 -14.003  18.010  0.00  0.00    -0.276 OA
ATOM      6  N   UNL     1      -8.505 -12.486  19.662  0.00  0.00    -0.314 N 
ATOM     20  C   UNL     1      -7.668 -12.990  18.666  0.00  0.00    +0.216 C 
ATOM     34  H   UNL     1      -8.215 -11.649  20.160  0.00  0.00    +0.149 HD
BRANCH  20  18
ATOM     18  C   UNL     1      -6.377 -12.173  18.465  0.00  0.00    +0.075 C 
ATOM     21  C   UNL     1      -5.736 -11.540  19.718  0.00  0.00    +0.013 C 
ATOM     22  C   UNL     1      -5.062 -12.957  18.281  0.00  0.00    +0.013 C 
ATOM     23  C   UNL     1      -4.366 -11.825  19.066  0.00  0.00    +0.001 C 
ENDBRANCH  20  18
ENDBRANCH  16   6
ENDBRANCH  11  16
TORSDOF 6
ENDMDL
