MODEL 1
REMARK VINA RESULT:      -6.5      0.000      0.000
REMARK  Name = 45783256
REMARK  7 active torsions:
REMARK  status: ('A' for Active; 'I' for Inactive)
REMARK    1  A    between atoms: N_3  and  C_13
REMARK    2  A    between atoms: N_3  and  C_16
REMARK    3  A    between atoms: C_7  and  C_14
REMARK    4  A    between atoms: C_8  and  C_13
REMARK    5  A    between atoms: C_16  and  C_19
REMARK    6  A    between atoms: C_17  and  C_20
REMARK    7  A    between atoms: C_18  and  C_21
REMARK                            x       y       z     vdW  Elec       q    Type
REMARK                         _______ _______ _______ _____ _____    ______ ____
ROOT
ATOM      2  N   UNL     1      13.414  12.930  22.563  0.00  0.00    -0.298 NA
ATOM      6  C   UNL     1      11.400  11.291  22.369  0.00  0.00    +0.002 C 
ATOM      7  C   UNL     1      12.669  10.538  22.860  0.00  0.00    +0.055 C 
ATOM      8  C   UNL     1      12.764  13.078  21.234  0.00  0.00    +0.071 C 
ATOM      9  C   UNL     1      11.704  11.977  21.021  0.00  0.00    +0.024 C 
ATOM     10  C   UNL     1      11.121  12.410  23.395  0.00  0.00    +0.019 C 
ATOM     11  C   UNL     1      13.863  11.529  22.756  0.00  0.00    +0.094 C 
ATOM     12  C   UNL     1      12.401  13.239  23.601  0.00  0.00    +0.085 C 
ENDROOT
BRANCH   7  14
ATOM      4  N   UNL     1      11.965   8.306  22.148  0.00  0.00    -0.237 NA
ATOM      5  N   UNL     1      13.494   6.740  21.140  0.00  0.00    -0.229 NA
ATOM     14  C   UNL     1      12.985   9.184  22.241  0.00  0.00    +0.050 A 
ATOM     15  C   UNL     1      14.269   8.917  21.811  0.00  0.00    +0.055 A 
ATOM     17  C   UNL     1      14.467   7.666  21.264  0.00  0.00    +0.110 A 
ATOM     18  C   UNL     1      12.285   7.121  21.596  0.00  0.00    +0.127 A 
ATOM     21  C   UNL     1      11.183   6.123  21.475  0.00  0.00    +0.088 C 
BRANCH  17  20
ATOM      1  O   UNL     1      16.820   7.892  21.340  0.00  0.00    -0.461 OA
ATOM     20  C   UNL     1      15.757   7.255  20.778  0.00  0.00    +0.153 A 
ATOM     24  C   UNL     1      16.181   6.338  19.845  0.00  0.00    +0.051 A 
ATOM     27  C   UNL     1      17.594   6.414  19.832  0.00  0.00    +0.042 A 
ATOM     28  C   UNL     1      17.933   7.373  20.759  0.00  0.00    +0.196 A 
ENDBRANCH  17  20
ENDBRANCH   7  14
BRANCH   8  13
ATOM     13  C   UNL     1      13.780  13.121  20.091  0.00  0.00    +0.100 C 
BRANCH  13   3
ATOM      3  N   UNL     1      13.304  12.358  18.948  0.00  0.00    -0.311 NA
ATOM     30  H   UNL     1      13.082  12.995  18.184  0.00  0.00    +0.122 HD
BRANCH   3  16
ATOM     16  C   UNL     1      14.304  11.393  18.509  0.00  0.00    +0.116 C 
BRANCH  16  19
ATOM     19  C   UNL     1      13.702  10.035  18.262  0.00  0.00    -0.034 A 
ATOM     22  C   UNL     1      12.389   9.773  18.651  0.00  0.00    +0.005 A 
ATOM     23  C   UNL     1      14.458   9.039  17.645  0.00  0.00    +0.005 A 
ATOM     25  C   UNL     1      11.830   8.516  18.423  0.00  0.00    +0.000 A 
ATOM     26  C   UNL     1      13.901   7.780  17.417  0.00  0.00    +0.000 A 
ATOM     29  C   UNL     1      12.586   7.519  17.805  0.00  0.00    +0.000 A 
ENDBRANCH  16  19
ENDBRANCH   3  16
ENDBRANCH  13   3
ENDBRANCH   8  13
TORSDOF 6
ENDMDL
MODEL 2
REMARK VINA RESULT:      -6.1     25.732     29.038
REMARK  Name = 45783256
REMARK  7 active torsions:
REMARK  status: ('A' for Active; 'I' for Inactive)
REMARK    1  A    between atoms: N_3  and  C_13
REMARK    2  A    between atoms: N_3  and  C_16
REMARK    3  A    between atoms: C_7  and  C_14
REMARK    4  A    between atoms: C_8  and  C_13
REMARK    5  A    between atoms: C_16  and  C_19
REMARK    6  A    between atoms: C_17  and  C_20
REMARK    7  A    between atoms: C_18  and  C_21
REMARK                            x       y       z     vdW  Elec       q    Type
REMARK                         _______ _______ _______ _____ _____    ______ ____
ROOT
ATOM      2  N   UNL     1      -7.488 -11.656  17.714  0.00  0.00    -0.298 NA
ATOM      6  C   UNL     1      -5.033 -11.178  18.438  0.00  0.00    +0.002 C 
ATOM      7  C   UNL     1      -5.363 -10.438  17.111  0.00  0.00    +0.055 C 
ATOM      8  C   UNL     1      -6.793 -12.932  18.026  0.00  0.00    +0.071 C 
ATOM      9  C   UNL     1      -5.286 -12.690  18.255  0.00  0.00    +0.024 C 
ATOM     10  C   UNL     1      -6.041 -10.673  19.492  0.00  0.00    +0.019 C 
ATOM     11  C   UNL     1      -6.762 -10.930  16.643  0.00  0.00    +0.094 C 
ATOM     12  C   UNL     1      -7.469 -10.818  18.937  0.00  0.00    +0.085 C 
ENDROOT
BRANCH   7  14
ATOM      4  N   UNL     1      -3.035 -10.515  16.362  0.00  0.00    -0.237 NA
ATOM      5  N   UNL     1      -2.439 -10.545  14.027  0.00  0.00    -0.229 NA
ATOM     14  C   UNL     1      -4.332 -10.476  15.993  0.00  0.00    +0.050 A 
ATOM     15  C   UNL     1      -4.755 -10.471  14.679  0.00  0.00    +0.055 A 
ATOM     17  C   UNL     1      -3.754 -10.506  13.729  0.00  0.00    +0.110 A 
ATOM     18  C   UNL     1      -2.155 -10.548  15.345  0.00  0.00    +0.127 A 
ATOM     21  C   UNL     1      -0.711 -10.591  15.713  0.00  0.00    +0.088 C 
BRANCH  17  20
ATOM      1  O   UNL     1      -5.370 -10.645  12.008  0.00  0.00    -0.461 OA
ATOM     20  C   UNL     1      -4.054 -10.502  12.322  0.00  0.00    +0.153 A 
ATOM     24  C   UNL     1      -3.295 -10.384  11.181  0.00  0.00    +0.051 A 
ATOM     27  C   UNL     1      -4.200 -10.459  10.097  0.00  0.00    +0.042 A 
ATOM     28  C   UNL     1      -5.449 -10.617  10.652  0.00  0.00    +0.196 A 
ENDBRANCH  17  20
ENDBRANCH   7  14
BRANCH   8  13
ATOM     13  C   UNL     1      -7.042 -14.006  16.965  0.00  0.00    +0.100 C 
BRANCH  13   3
ATOM      3  N   UNL     1      -5.825 -14.290  16.222  0.00  0.00    -0.311 NA
ATOM     30  H   UNL     1      -5.538 -15.253  16.395  0.00  0.00    +0.122 HD
BRANCH   3  16
ATOM     16  C   UNL     1      -6.025 -14.087  14.792  0.00  0.00    +0.116 C 
BRANCH  16  19
ATOM     19  C   UNL     1      -4.721 -14.077  14.040  0.00  0.00    -0.034 A 
ATOM     22  C   UNL     1      -3.514 -14.064  14.738  0.00  0.00    +0.005 A 
ATOM     23  C   UNL     1      -4.720 -14.080  12.645  0.00  0.00    +0.005 A 
ATOM     25  C   UNL     1      -2.305 -14.054  14.041  0.00  0.00    +0.000 A 
ATOM     26  C   UNL     1      -3.512 -14.070  11.948  0.00  0.00    +0.000 A 
ATOM     29  C   UNL     1      -2.304 -14.058  12.646  0.00  0.00    +0.000 A 
ENDBRANCH  16  19
ENDBRANCH   3  16
ENDBRANCH  13   3
ENDBRANCH   8  13
TORSDOF 6
ENDMDL
MODEL 3
REMARK VINA RESULT:      -6.0     28.213     30.934
REMARK  Name = 45783256
REMARK  7 active torsions:
REMARK  status: ('A' for Active; 'I' for Inactive)
REMARK    1  A    between atoms: N_3  and  C_13
REMARK    2  A    between atoms: N_3  and  C_16
REMARK    3  A    between atoms: C_7  and  C_14
REMARK    4  A    between atoms: C_8  and  C_13
REMARK    5  A    between atoms: C_16  and  C_19
REMARK    6  A    between atoms: C_17  and  C_20
REMARK    7  A    between atoms: C_18  and  C_21
REMARK                            x       y       z     vdW  Elec       q    Type
REMARK                         _______ _______ _______ _____ _____    ______ ____
ROOT
ATOM      2  N   UNL     1     -17.917   3.033  26.000  0.00  0.00    -0.298 NA
ATOM      6  C   UNL     1     -17.521   0.595  26.824  0.00  0.00    +0.002 C 
ATOM      7  C   UNL     1     -17.401   1.595  28.007  0.00  0.00    +0.055 C 
ATOM      8  C   UNL     1     -16.920   2.358  25.128  0.00  0.00    +0.071 C 
ATOM      9  C   UNL     1     -16.518   0.990  25.719  0.00  0.00    +0.024 C 
ATOM     10  C   UNL     1     -18.937   0.770  26.235  0.00  0.00    +0.019 C 
ATOM     11  C   UNL     1     -17.447   3.029  27.408  0.00  0.00    +0.094 C 
ATOM     12  C   UNL     1     -19.179   2.259  25.931  0.00  0.00    +0.085 C 
ENDROOT
BRANCH   7  14
ATOM      4  N   UNL     1     -15.436   0.359  28.778  0.00  0.00    -0.237 NA
ATOM      5  N   UNL     1     -14.169   1.040  30.712  0.00  0.00    -0.229 NA
ATOM     14  C   UNL     1     -16.250   1.414  28.986  0.00  0.00    +0.050 A 
ATOM     15  C   UNL     1     -16.090   2.314  30.021  0.00  0.00    +0.055 A 
ATOM     17  C   UNL     1     -15.022   2.074  30.861  0.00  0.00    +0.110 A 
ATOM     18  C   UNL     1     -14.431   0.233  29.664  0.00  0.00    +0.127 A 
ATOM     21  C   UNL     1     -13.508  -0.921  29.467  0.00  0.00    +0.088 C 
BRANCH  17  20
ATOM      1  O   UNL     1     -14.331   4.189  31.662  0.00  0.00    -0.461 OA
ATOM     20  C   UNL     1     -14.741   2.932  31.981  0.00  0.00    +0.153 A 
ATOM     24  C   UNL     1     -14.792   2.772  33.346  0.00  0.00    +0.051 A 
ATOM     27  C   UNL     1     -14.388   4.009  33.902  0.00  0.00    +0.042 A 
ATOM     28  C   UNL     1     -14.119   4.837  32.837  0.00  0.00    +0.196 A 
ENDBRANCH  17  20
ENDBRANCH   7  14
BRANCH   8  13
ATOM     13  C   UNL     1     -15.700   3.238  24.848  0.00  0.00    +0.100 C 
BRANCH  13   3
ATOM      3  N   UNL     1     -15.459   3.349  23.419  0.00  0.00    -0.311 NA
ATOM     30  H   UNL     1     -15.885   2.555  22.941  0.00  0.00    +0.122 HD
BRANCH   3  16
ATOM     16  C   UNL     1     -16.007   4.592  22.890  0.00  0.00    +0.116 C 
BRANCH  16  19
ATOM     19  C   UNL     1     -14.963   5.403  22.169  0.00  0.00    -0.034 A 
ATOM     22  C   UNL     1     -13.613   5.079  22.305  0.00  0.00    +0.005 A 
ATOM     23  C   UNL     1     -15.346   6.477  21.367  0.00  0.00    +0.005 A 
ATOM     25  C   UNL     1     -12.646   5.830  21.637  0.00  0.00    +0.000 A 
ATOM     26  C   UNL     1     -14.379   7.228  20.699  0.00  0.00    +0.000 A 
ATOM     29  C   UNL     1     -13.028   6.905  20.834  0.00  0.00    +0.000 A 
ENDBRANCH  16  19
ENDBRANCH   3  16
ENDBRANCH  13   3
ENDBRANCH   8  13
TORSDOF 6
ENDMDL
MODEL 4
REMARK VINA RESULT:      -5.8      2.273      4.758
REMARK  Name = 45783256
REMARK  7 active torsions:
REMARK  status: ('A' for Active; 'I' for Inactive)
REMARK    1  A    between atoms: N_3  and  C_13
REMARK    2  A    between atoms: N_3  and  C_16
REMARK    3  A    between atoms: C_7  and  C_14
REMARK    4  A    between atoms: C_8  and  C_13
REMARK    5  A    between atoms: C_16  and  C_19
REMARK    6  A    between atoms: C_17  and  C_20
REMARK    7  A    between atoms: C_18  and  C_21
REMARK                            x       y       z     vdW  Elec       q    Type
REMARK                         _______ _______ _______ _____ _____    ______ ____
ROOT
ATOM      2  N   UNL     1      14.808  13.299  21.795  0.00  0.00    -0.298 NA
ATOM      6  C   UNL     1      15.257  12.787  19.282  0.00  0.00    +0.002 C 
ATOM      7  C   UNL     1      13.806  12.385  19.668  0.00  0.00    +0.055 C 
ATOM      8  C   UNL     1      16.075  12.536  21.651  0.00  0.00    +0.071 C 
ATOM      9  C   UNL     1      16.253  12.044  20.198  0.00  0.00    +0.024 C 
ATOM     10  C   UNL     1      15.398  14.294  19.585  0.00  0.00    +0.019 C 
ATOM     11  C   UNL     1      13.681  12.530  21.212  0.00  0.00    +0.094 C 
ATOM     12  C   UNL     1      14.950  14.563  21.033  0.00  0.00    +0.085 C 
ENDROOT
BRANCH   7  14
ATOM      4  N   UNL     1      13.298  10.848  17.834  0.00  0.00    -0.237 NA
ATOM      5  N   UNL     1      12.329   8.674  18.213  0.00  0.00    -0.229 NA
ATOM     14  C   UNL     1      13.273  11.050  19.168  0.00  0.00    +0.050 A 
ATOM     15  C   UNL     1      12.798  10.125  20.075  0.00  0.00    +0.055 A 
ATOM     17  C   UNL     1      12.334   8.943  19.535  0.00  0.00    +0.110 A 
ATOM     18  C   UNL     1      12.819   9.656  17.431  0.00  0.00    +0.127 A 
ATOM     21  C   UNL     1      12.830   9.395  15.963  0.00  0.00    +0.088 C 
BRANCH  17  20
ATOM      1  O   UNL     1      10.830   8.271  21.232  0.00  0.00    -0.461 OA
ATOM     20  C   UNL     1      11.809   7.893  20.367  0.00  0.00    +0.153 A 
ATOM     24  C   UNL     1      12.076   6.550  20.496  0.00  0.00    +0.051 A 
ATOM     27  C   UNL     1      11.207   6.071  21.504  0.00  0.00    +0.042 A 
ATOM     28  C   UNL     1      10.469   7.155  21.919  0.00  0.00    +0.196 A 
ENDBRANCH  17  20
ENDBRANCH   7  14
BRANCH   8  13
ATOM     13  C   UNL     1      16.182  11.388  22.657  0.00  0.00    +0.100 C 
BRANCH  13   3
ATOM      3  N   UNL     1      16.824  10.231  22.055  0.00  0.00    -0.311 NA
ATOM     30  H   UNL     1      17.596   9.926  22.648  0.00  0.00    +0.122 HD
BRANCH   3  16
ATOM     16  C   UNL     1      15.877   9.137  21.880  0.00  0.00    +0.116 C 
BRANCH  16  19
ATOM     19  C   UNL     1      16.440   8.042  21.013  0.00  0.00    -0.034 A 
ATOM     22  C   UNL     1      17.731   7.566  21.241  0.00  0.00    +0.005 A 
ATOM     23  C   UNL     1      15.671   7.505  19.982  0.00  0.00    +0.005 A 
ATOM     25  C   UNL     1      18.253   6.552  20.439  0.00  0.00    +0.000 A 
ATOM     26  C   UNL     1      16.192   6.491  19.178  0.00  0.00    +0.000 A 
ATOM     29  C   UNL     1      17.483   6.014  19.407  0.00  0.00    +0.000 A 
ENDBRANCH  16  19
ENDBRANCH   3  16
ENDBRANCH  13   3
ENDBRANCH   8  13
TORSDOF 6
ENDMDL
MODEL 5
REMARK VINA RESULT:      -5.7     27.452     29.251
REMARK  Name = 45783256
REMARK  7 active torsions:
REMARK  status: ('A' for Active; 'I' for Inactive)
REMARK    1  A    between atoms: N_3  and  C_13
REMARK    2  A    between atoms: N_3  and  C_16
REMARK    3  A    between atoms: C_7  and  C_14
REMARK    4  A    between atoms: C_8  and  C_13
REMARK    5  A    between atoms: C_16  and  C_19
REMARK    6  A    between atoms: C_17  and  C_20
REMARK    7  A    between atoms: C_18  and  C_21
REMARK                            x       y       z     vdW  Elec       q    Type
REMARK                         _______ _______ _______ _____ _____    ______ ____
ROOT
ATOM      2  N   UNL     1      -4.810 -12.682  17.051  0.00  0.00    -0.298 NA
ATOM      6  C   UNL     1      -5.700 -10.318  17.683  0.00  0.00    +0.002 C 
ATOM      7  C   UNL     1      -6.837 -11.182  17.070  0.00  0.00    +0.055 C 
ATOM      8  C   UNL     1      -3.910 -11.636  16.498  0.00  0.00    +0.071 C 
ATOM      9  C   UNL     1      -4.528 -10.234  16.682  0.00  0.00    +0.024 C 
ATOM     10  C   UNL     1      -5.183 -11.078  18.923  0.00  0.00    +0.019 C 
ATOM     11  C   UNL     1      -6.189 -12.491  16.537  0.00  0.00    +0.094 C 
ATOM     12  C   UNL     1      -4.838 -12.524  18.524  0.00  0.00    +0.085 C 
ENDROOT
BRANCH   7  14
ATOM      4  N   UNL     1      -7.739 -11.051  14.799  0.00  0.00    -0.237 NA
ATOM      5  N   UNL     1      -9.389  -9.412  14.167  0.00  0.00    -0.229 NA
ATOM     14  C   UNL     1      -7.758 -10.534  16.046  0.00  0.00    +0.050 A 
ATOM     15  C   UNL     1      -8.555  -9.472  16.424  0.00  0.00    +0.055 A 
ATOM     17  C   UNL     1      -9.358  -8.946  15.433  0.00  0.00    +0.110 A 
ATOM     18  C   UNL     1      -8.567 -10.451  13.923  0.00  0.00    +0.127 A 
ATOM     21  C   UNL     1      -8.575 -10.994  12.535  0.00  0.00    +0.088 C 
BRANCH  17  20
ATOM      1  O   UNL     1     -10.902  -7.358  14.604  0.00  0.00    -0.461 OA
ATOM     20  C   UNL     1     -10.236  -7.835  15.689  0.00  0.00    +0.153 A 
ATOM     24  C   UNL     1     -10.570  -7.119  16.815  0.00  0.00    +0.051 A 
ATOM     27  C   UNL     1     -11.500  -6.139  16.396  0.00  0.00    +0.042 A 
ATOM     28  C   UNL     1     -11.670  -6.327  15.044  0.00  0.00    +0.196 A 
ENDBRANCH  17  20
ENDBRANCH   7  14
BRANCH   8  13
ATOM     13  C   UNL     1      -3.532 -11.904  15.039  0.00  0.00    +0.100 C 
BRANCH  13   3
ATOM      3  N   UNL     1      -3.793 -10.736  14.214  0.00  0.00    -0.311 NA
ATOM     30  H   UNL     1      -3.555  -9.892  14.736  0.00  0.00    +0.122 HD
BRANCH   3  16
ATOM     16  C   UNL     1      -3.021 -10.783  12.979  0.00  0.00    +0.116 C 
BRANCH  16  19
ATOM     19  C   UNL     1      -3.715 -10.058  11.856  0.00  0.00    -0.034 A 
ATOM     22  C   UNL     1      -5.049  -9.678  11.992  0.00  0.00    +0.005 A 
ATOM     23  C   UNL     1      -3.023  -9.768  10.681  0.00  0.00    +0.005 A 
ATOM     25  C   UNL     1      -5.693  -9.006  10.953  0.00  0.00    +0.000 A 
ATOM     26  C   UNL     1      -3.666  -9.097   9.640  0.00  0.00    +0.000 A 
ATOM     29  C   UNL     1      -5.001  -8.716   9.776  0.00  0.00    +0.000 A 
ENDBRANCH  16  19
ENDBRANCH   3  16
ENDBRANCH  13   3
ENDBRANCH   8  13
TORSDOF 6
ENDMDL
MODEL 6
REMARK VINA RESULT:      -5.5     14.967     18.336
REMARK  Name = 45783256
REMARK  7 active torsions:
REMARK  status: ('A' for Active; 'I' for Inactive)
REMARK    1  A    between atoms: N_3  and  C_13
REMARK    2  A    between atoms: N_3  and  C_16
REMARK    3  A    between atoms: C_7  and  C_14
REMARK    4  A    between atoms: C_8  and  C_13
REMARK    5  A    between atoms: C_16  and  C_19
REMARK    6  A    between atoms: C_17  and  C_20
REMARK    7  A    between atoms: C_18  and  C_21
REMARK                            x       y       z     vdW  Elec       q    Type
REMARK                         _______ _______ _______ _____ _____    ______ ____
ROOT
ATOM      2  N   UNL     1      12.461   5.330  -0.174  0.00  0.00    -0.298 NA
ATOM      6  C   UNL     1      12.458   4.236   2.190  0.00  0.00    +0.002 C 
ATOM      7  C   UNL     1      11.053   4.811   1.854  0.00  0.00    +0.055 C 
ATOM      8  C   UNL     1      13.608   5.838   0.622  0.00  0.00    +0.071 C 
ATOM      9  C   UNL     1      13.507   5.364   2.088  0.00  0.00    +0.024 C 
ATOM     10  C   UNL     1      12.792   3.206   1.090  0.00  0.00    +0.019 C 
ATOM     11  C   UNL     1      11.186   5.617   0.530  0.00  0.00    +0.094 C 
ATOM     12  C   UNL     1      12.605   3.859  -0.290  0.00  0.00    +0.085 C 
ENDROOT
BRANCH   7  14
ATOM      4  N   UNL     1       9.641   6.688   2.538  0.00  0.00    -0.237 NA
ATOM      5  N   UNL     1       8.986   7.031   4.831  0.00  0.00    -0.229 NA
ATOM     14  C   UNL     1      10.319   5.592   2.935  0.00  0.00    +0.050 A 
ATOM     15  C   UNL     1      10.376   5.157   4.244  0.00  0.00    +0.055 A 
ATOM     17  C   UNL     1       9.684   5.924   5.158  0.00  0.00    +0.110 A 
ATOM     18  C   UNL     1       9.006   7.351   3.522  0.00  0.00    +0.127 A 
ATOM     21  C   UNL     1       8.244   8.569   3.123  0.00  0.00    +0.088 C 
BRANCH  17  20
ATOM      1  O   UNL     1       9.863   4.272   6.841  0.00  0.00    -0.461 OA
ATOM     20  C   UNL     1       9.661   5.587   6.556  0.00  0.00    +0.153 A 
ATOM     24  C   UNL     1       9.476   6.309   7.713  0.00  0.00    +0.051 A 
ATOM     27  C   UNL     1       9.570   5.380   8.776  0.00  0.00    +0.042 A 
ATOM     28  C   UNL     1       9.807   4.156   8.193  0.00  0.00    +0.196 A 
ENDBRANCH  17  20
ENDBRANCH   7  14
BRANCH   8  13
ATOM     13  C   UNL     1      13.758   7.358   0.525  0.00  0.00    +0.100 C 
BRANCH  13   3
ATOM      3  N   UNL     1      13.888   7.950   1.846  0.00  0.00    -0.311 NA
ATOM     30  H   UNL     1      14.748   8.497   1.889  0.00  0.00    +0.122 HD
BRANCH   3  16
ATOM     16  C   UNL     1      12.748   8.804   2.153  0.00  0.00    +0.116 C 
BRANCH  16  19
ATOM     19  C   UNL     1      12.431   8.809   3.625  0.00  0.00    -0.034 A 
ATOM     22  C   UNL     1      12.957   7.819   4.454  0.00  0.00    +0.005 A 
ATOM     23  C   UNL     1      11.612   9.803   4.158  0.00  0.00    +0.005 A 
ATOM     25  C   UNL     1      12.664   7.822   5.818  0.00  0.00    +0.000 A 
ATOM     26  C   UNL     1      11.317   9.807   5.522  0.00  0.00    +0.000 A 
ATOM     29  C   UNL     1      11.844   8.817   6.352  0.00  0.00    +0.000 A 
ENDBRANCH  16  19
ENDBRANCH   3  16
ENDBRANCH  13   3
ENDBRANCH   8  13
TORSDOF 6
ENDMDL
MODEL 7
REMARK VINA RESULT:      -5.5     27.594     30.153
REMARK  Name = 45783256
REMARK  7 active torsions:
REMARK  status: ('A' for Active; 'I' for Inactive)
REMARK    1  A    between atoms: N_3  and  C_13
REMARK    2  A    between atoms: N_3  and  C_16
REMARK    3  A    between atoms: C_7  and  C_14
REMARK    4  A    between atoms: C_8  and  C_13
REMARK    5  A    between atoms: C_16  and  C_19
REMARK    6  A    between atoms: C_17  and  C_20
REMARK    7  A    between atoms: C_18  and  C_21
REMARK                            x       y       z     vdW  Elec       q    Type
REMARK                         _______ _______ _______ _____ _____    ______ ____
ROOT
ATOM      2  N   UNL     1     -17.319   4.895  23.557  0.00  0.00    -0.298 NA
ATOM      6  C   UNL     1     -17.524   2.739  25.004  0.00  0.00    +0.002 C 
ATOM      7  C   UNL     1     -17.735   4.006  25.881  0.00  0.00    +0.055 C 
ATOM      8  C   UNL     1     -16.153   4.005  23.311  0.00  0.00    +0.071 C 
ATOM      9  C   UNL     1     -16.149   2.826  24.307  0.00  0.00    +0.024 C 
ATOM     10  C   UNL     1     -18.597   2.781  23.896  0.00  0.00    +0.019 C 
ATOM     11  C   UNL     1     -17.399   5.241  24.997  0.00  0.00    +0.094 C 
ATOM     12  C   UNL     1     -18.546   4.147  23.191  0.00  0.00    +0.085 C 
ENDROOT
BRANCH   7  14
ATOM      4  N   UNL     1     -17.206   5.196  27.951  0.00  0.00    -0.237 NA
ATOM      5  N   UNL     1     -15.840   4.219  29.680  0.00  0.00    -0.229 NA
ATOM     14  C   UNL     1     -17.049   4.062  27.238  0.00  0.00    +0.050 A 
ATOM     15  C   UNL     1     -16.313   2.978  27.673  0.00  0.00    +0.055 A 
ATOM     17  C   UNL     1     -15.725   3.115  28.914  0.00  0.00    +0.110 A 
ATOM     18  C   UNL     1     -16.584   5.207  29.145  0.00  0.00    +0.127 A 
ATOM     21  C   UNL     1     -16.735   6.444  29.965  0.00  0.00    +0.088 C 
BRANCH  17  20
ATOM      1  O   UNL     1     -15.323   0.799  29.174  0.00  0.00    -0.461 OA
ATOM     20  C   UNL     1     -14.928   2.062  29.486  0.00  0.00    +0.153 A 
ATOM     24  C   UNL     1     -13.823   2.035  30.304  0.00  0.00    +0.051 A 
ATOM     27  C   UNL     1     -13.518   0.669  30.508  0.00  0.00    +0.042 A 
ATOM     28  C   UNL     1     -14.459  -0.043  29.800  0.00  0.00    +0.196 A 
ENDBRANCH  17  20
ENDBRANCH   7  14
BRANCH   8  13
ATOM     13  C   UNL     1     -14.826   4.766  23.325  0.00  0.00    +0.100 C 
BRANCH  13   3
ATOM      3  N   UNL     1     -14.079   4.525  22.101  0.00  0.00    -0.311 NA
ATOM     30  H   UNL     1     -14.614   4.868  21.304  0.00  0.00    +0.122 HD
BRANCH   3  16
ATOM     16  C   UNL     1     -12.780   5.184  22.141  0.00  0.00    +0.116 C 
BRANCH  16  19
ATOM     19  C   UNL     1     -12.722   6.365  21.210  0.00  0.00    -0.034 A 
ATOM     22  C   UNL     1     -11.488   6.880  20.812  0.00  0.00    +0.005 A 
ATOM     23  C   UNL     1     -13.901   6.946  20.745  0.00  0.00    +0.005 A 
ATOM     25  C   UNL     1     -11.433   7.974  19.950  0.00  0.00    +0.000 A 
ATOM     26  C   UNL     1     -13.847   8.041  19.882  0.00  0.00    +0.000 A 
ATOM     29  C   UNL     1     -12.613   8.555  19.484  0.00  0.00    +0.000 A 
ENDBRANCH  16  19
ENDBRANCH   3  16
ENDBRANCH  13   3
ENDBRANCH   8  13
TORSDOF 6
ENDMDL
MODEL 8
REMARK VINA RESULT:      -5.5     13.713     16.555
REMARK  Name = 45783256
REMARK  7 active torsions:
REMARK  status: ('A' for Active; 'I' for Inactive)
REMARK    1  A    between atoms: N_3  and  C_13
REMARK    2  A    between atoms: N_3  and  C_16
REMARK    3  A    between atoms: C_7  and  C_14
REMARK    4  A    between atoms: C_8  and  C_13
REMARK    5  A    between atoms: C_16  and  C_19
REMARK    6  A    between atoms: C_17  and  C_20
REMARK    7  A    between atoms: C_18  and  C_21
REMARK                            x       y       z     vdW  Elec       q    Type
REMARK                         _______ _______ _______ _____ _____    ______ ____
ROOT
ATOM      2  N   UNL     1       7.283  10.803   4.179  0.00  0.00    -0.298 NA
ATOM      6  C   UNL     1       8.453   9.267   2.431  0.00  0.00    +0.002 C 
ATOM      7  C   UNL     1       7.901   8.423   3.614  0.00  0.00    +0.055 C 
ATOM      8  C   UNL     1       8.629  11.342   3.848  0.00  0.00    +0.071 C 
ATOM      9  C   UNL     1       9.418  10.341   2.978  0.00  0.00    +0.024 C 
ATOM     10  C   UNL     1       7.249  10.010   1.814  0.00  0.00    +0.019 C 
ATOM     11  C   UNL     1       7.404   9.419   4.701  0.00  0.00    +0.094 C 
ATOM     12  C   UNL     1       6.492  10.758   2.926  0.00  0.00    +0.085 C 
ENDROOT
BRANCH   7  14
ATOM      4  N   UNL     1       9.665   6.749   3.349  0.00  0.00    -0.237 NA
ATOM      5  N   UNL     1      10.408   5.368   5.179  0.00  0.00    -0.229 NA
ATOM     14  C   UNL     1       8.790   7.332   4.194  0.00  0.00    +0.050 A 
ATOM     15  C   UNL     1       8.667   6.992   5.526  0.00  0.00    +0.055 A 
ATOM     17  C   UNL     1       9.510   5.993   5.967  0.00  0.00    +0.110 A 
ATOM     18  C   UNL     1      10.433   5.790   3.899  0.00  0.00    +0.127 A 
ATOM     21  C   UNL     1      11.414   5.122   2.997  0.00  0.00    +0.088 C 
BRANCH  17  20
ATOM      1  O   UNL     1       9.797   4.228   7.515  0.00  0.00    -0.461 OA
ATOM     20  C   UNL     1       9.486   5.539   7.332  0.00  0.00    +0.153 A 
ATOM     24  C   UNL     1       9.212   6.143   8.537  0.00  0.00    +0.051 A 
ATOM     27  C   UNL     1       9.364   5.140   9.523  0.00  0.00    +0.042 A 
ATOM     28  C   UNL     1       9.721   3.994   8.851  0.00  0.00    +0.196 A 
ENDBRANCH  17  20
ENDBRANCH   7  14
BRANCH   8  13
ATOM     13  C   UNL     1       9.414  11.753   5.096  0.00  0.00    +0.100 C 
BRANCH  13   3
ATOM      3  N   UNL     1      10.693  11.064   5.152  0.00  0.00    -0.311 NA
ATOM     30  H   UNL     1      11.432  11.736   5.355  0.00  0.00    +0.122 HD
BRANCH   3  16
ATOM     16  C   UNL     1      10.683  10.023   6.171  0.00  0.00    +0.116 C 
BRANCH  16  19
ATOM     19  C   UNL     1      11.797   9.030   5.970  0.00  0.00    -0.034 A 
ATOM     22  C   UNL     1      12.262   8.276   7.047  0.00  0.00    +0.005 A 
ATOM     23  C   UNL     1      12.363   8.864   4.706  0.00  0.00    +0.005 A 
ATOM     25  C   UNL     1      13.294   7.356   6.861  0.00  0.00    +0.000 A 
ATOM     26  C   UNL     1      13.395   7.944   4.519  0.00  0.00    +0.000 A 
ATOM     29  C   UNL     1      13.861   7.190   5.597  0.00  0.00    +0.000 A 
ENDBRANCH  16  19
ENDBRANCH   3  16
ENDBRANCH  13   3
ENDBRANCH   8  13
TORSDOF 6
ENDMDL
MODEL 9
REMARK VINA RESULT:      -5.5     25.754     29.252
REMARK  Name = 45783256
REMARK  7 active torsions:
REMARK  status: ('A' for Active; 'I' for Inactive)
REMARK    1  A    between atoms: N_3  and  C_13
REMARK    2  A    between atoms: N_3  and  C_16
REMARK    3  A    between atoms: C_7  and  C_14
REMARK    4  A    between atoms: C_8  and  C_13
REMARK    5  A    between atoms: C_16  and  C_19
REMARK    6  A    between atoms: C_17  and  C_20
REMARK    7  A    between atoms: C_18  and  C_21
REMARK                            x       y       z     vdW  Elec       q    Type
REMARK                         _______ _______ _______ _____ _____    ______ ____
ROOT
ATOM      2  N   UNL     1      -6.998 -11.345  11.497  0.00  0.00    -0.298 NA
ATOM      6  C   UNL     1      -5.085  -9.606  11.810  0.00  0.00    +0.002 C 
ATOM      7  C   UNL     1      -4.770 -10.909  12.597  0.00  0.00    +0.055 C 
ATOM      8  C   UNL     1      -7.567 -10.029  11.888  0.00  0.00    +0.071 C 
ATOM      9  C   UNL     1      -6.445  -9.044  12.279  0.00  0.00    +0.024 C 
ATOM     10  C   UNL     1      -5.247 -10.008  10.329  0.00  0.00    +0.019 C 
ATOM     11  C   UNL     1      -6.037 -11.810  12.528  0.00  0.00    +0.094 C 
ATOM     12  C   UNL     1      -6.260 -11.161  10.225  0.00  0.00    +0.085 C 
ENDROOT
BRANCH   7  14
ATOM      4  N   UNL     1      -2.892 -10.662  14.145  0.00  0.00    -0.237 NA
ATOM      5  N   UNL     1      -3.204 -10.545  16.532  0.00  0.00    -0.229 NA
ATOM     14  C   UNL     1      -4.229 -10.780  14.014  0.00  0.00    +0.050 A 
ATOM     15  C   UNL     1      -5.107 -10.788  15.079  0.00  0.00    +0.055 A 
ATOM     17  C   UNL     1      -4.532 -10.666  16.327  0.00  0.00    +0.110 A 
ATOM     18  C   UNL     1      -2.454 -10.550  15.413  0.00  0.00    +0.127 A 
ATOM     21  C   UNL     1      -0.980 -10.417  15.599  0.00  0.00    +0.088 C 
BRANCH  17  20
ATOM      1  O   UNL     1      -6.590 -10.171  17.381  0.00  0.00    -0.461 OA
ATOM     20  C   UNL     1      -5.330 -10.662  17.524  0.00  0.00    +0.153 A 
ATOM     24  C   UNL     1      -5.109 -11.053  18.824  0.00  0.00    +0.051 A 
ATOM     27  C   UNL     1      -6.308 -10.785  19.526  0.00  0.00    +0.042 A 
ATOM     28  C   UNL     1      -7.178 -10.250  18.604  0.00  0.00    +0.196 A 
ENDBRANCH  17  20
ENDBRANCH   7  14
BRANCH   8  13
ATOM     13  C   UNL     1      -8.623 -10.154  12.988  0.00  0.00    +0.100 C 
BRANCH  13   3
ATOM      3  N   UNL     1      -8.345  -9.234  14.079  0.00  0.00    -0.311 NA
ATOM     30  H   UNL     1      -8.342  -8.278  13.724  0.00  0.00    +0.122 HD
BRANCH   3  16
ATOM     16  C   UNL     1      -9.338  -9.361  15.138  0.00  0.00    +0.116 C 
BRANCH  16  19
ATOM     19  C   UNL     1     -10.307  -8.209  15.139  0.00  0.00    -0.034 A 
ATOM     22  C   UNL     1     -11.383  -8.202  14.252  0.00  0.00    +0.005 A 
ATOM     23  C   UNL     1     -10.129  -7.148  16.027  0.00  0.00    +0.005 A 
ATOM     25  C   UNL     1     -12.282  -7.135  14.253  0.00  0.00    +0.000 A 
ATOM     26  C   UNL     1     -11.026  -6.080  16.027  0.00  0.00    +0.000 A 
ATOM     29  C   UNL     1     -12.103  -6.074  15.141  0.00  0.00    +0.000 A 
ENDBRANCH  16  19
ENDBRANCH   3  16
ENDBRANCH  13   3
ENDBRANCH   8  13
TORSDOF 6
ENDMDL
MODEL 10
REMARK VINA RESULT:      -5.4     27.522     29.342
REMARK  Name = 45783256
REMARK  7 active torsions:
REMARK  status: ('A' for Active; 'I' for Inactive)
REMARK    1  A    between atoms: N_3  and  C_13
REMARK    2  A    between atoms: N_3  and  C_16
REMARK    3  A    between atoms: C_7  and  C_14
REMARK    4  A    between atoms: C_8  and  C_13
REMARK    5  A    between atoms: C_16  and  C_19
REMARK    6  A    between atoms: C_17  and  C_20
REMARK    7  A    between atoms: C_18  and  C_21
REMARK                            x       y       z     vdW  Elec       q    Type
REMARK                         _______ _______ _______ _____ _____    ______ ____
ROOT
ATOM      2  N   UNL     1      -4.880 -12.769  17.023  0.00  0.00    -0.298 NA
ATOM      6  C   UNL     1      -5.552 -10.365  17.765  0.00  0.00    +0.002 C 
ATOM      7  C   UNL     1      -6.784 -11.125  17.197  0.00  0.00    +0.055 C 
ATOM      8  C   UNL     1      -3.936 -11.776  16.444  0.00  0.00    +0.071 C 
ATOM      9  C   UNL     1      -4.436 -10.338  16.699  0.00  0.00    +0.024 C 
ATOM     10  C   UNL     1      -5.025 -11.197  18.953  0.00  0.00    +0.019 C 
ATOM     11  C   UNL     1      -6.267 -12.462  16.595  0.00  0.00    +0.094 C 
ATOM     12  C   UNL     1      -4.813 -12.652  18.499  0.00  0.00    +0.085 C 
ENDROOT
BRANCH   7  14
ATOM      4  N   UNL     1      -8.433  -9.369  16.767  0.00  0.00    -0.237 NA
ATOM      5  N   UNL     1      -9.387  -9.013  14.583  0.00  0.00    -0.229 NA
ATOM     14  C   UNL     1      -7.710 -10.381  16.245  0.00  0.00    +0.050 A 
ATOM     15  C   UNL     1      -7.770 -10.763  14.920  0.00  0.00    +0.055 A 
ATOM     17  C   UNL     1      -8.635 -10.036  14.128  0.00  0.00    +0.110 A 
ATOM     18  C   UNL     1      -9.239  -8.737  15.893  0.00  0.00    +0.127 A 
ATOM     21  C   UNL     1     -10.054  -7.611  16.433  0.00  0.00    +0.088 C 
BRANCH  17  20
ATOM      1  O   UNL     1      -8.270 -11.514  12.318  0.00  0.00    -0.461 OA
ATOM     20  C   UNL     1      -8.797 -10.329  12.729  0.00  0.00    +0.153 A 
ATOM     24  C   UNL     1      -9.382  -9.669  11.673  0.00  0.00    +0.051 A 
ATOM     27  C   UNL     1      -9.203 -10.498  10.542  0.00  0.00    +0.042 A 
ATOM     28  C   UNL     1      -8.522 -11.608  10.986  0.00  0.00    +0.196 A 
ENDBRANCH  17  20
ENDBRANCH   7  14
BRANCH   8  13
ATOM     13  C   UNL     1      -3.662 -12.029  14.960  0.00  0.00    +0.100 C 
BRANCH  13   3
ATOM      3  N   UNL     1      -3.955 -10.844  14.171  0.00  0.00    -0.311 NA
ATOM     30  H   UNL     1      -3.802 -10.011  14.740  0.00  0.00    +0.122 HD
BRANCH   3  16
ATOM     16  C   UNL     1      -3.116 -10.786  12.981  0.00  0.00    +0.116 C 
BRANCH  16  19
ATOM     19  C   UNL     1      -3.793 -10.052  11.853  0.00  0.00    -0.034 A 
ATOM     22  C   UNL     1      -5.132  -9.679  11.969  0.00  0.00    +0.005 A 
ATOM     23  C   UNL     1      -3.081  -9.746  10.694  0.00  0.00    +0.005 A 
ATOM     25  C   UNL     1      -5.759  -8.999  10.925  0.00  0.00    +0.000 A 
ATOM     26  C   UNL     1      -3.708  -9.067   9.649  0.00  0.00    +0.000 A 
ATOM     29  C   UNL     1      -5.048  -8.693   9.764  0.00  0.00    +0.000 A 
ENDBRANCH  16  19
ENDBRANCH   3  16
ENDBRANCH  13   3
ENDBRANCH   8  13
TORSDOF 6
ENDMDL
