MODEL 1
REMARK VINA RESULT:      -6.9      0.000      0.000
REMARK  Name = 75368442
REMARK  3 active torsions:
REMARK  status: ('A' for Active; 'I' for Inactive)
REMARK    1  A    between atoms: N_6  and  C_15
REMARK    2  A    between atoms: C_15  and  C_17
REMARK    3  A    between atoms: C_16  and  C_18
REMARK                            x       y       z     vdW  Elec       q    Type
REMARK                         _______ _______ _______ _____ _____    ______ ____
ROOT
ATOM      2  O   UNL     1     -16.984   2.097  22.563  0.00  0.00    -0.252 OA
ATOM      3  O   UNL     1     -16.559   0.348  29.314  0.00  0.00    -0.267 OA
ATOM      5  N   UNL     1     -16.525   2.278  24.860  0.00  0.00    -0.278 N 
ATOM      6  N   UNL     1     -16.433   4.139  23.606  0.00  0.00    -0.279 N 
ATOM      7  N   UNL     1     -16.885   1.891  27.589  0.00  0.00    -0.292 N 
ATOM      9  C   UNL     1     -16.052   3.309  25.768  0.00  0.00    +0.112 C 
ATOM     10  C   UNL     1     -16.201   4.597  24.964  0.00  0.00    +0.133 C 
ATOM     11  C   UNL     1     -16.850   3.271  27.068  0.00  0.00    +0.132 C 
ATOM     12  C   UNL     1     -16.678   0.912  25.333  0.00  0.00    +0.128 C 
ATOM     13  C   UNL     1     -17.441   0.900  26.657  0.00  0.00    +0.127 C 
ATOM     14  C   UNL     1     -16.681   2.753  23.551  0.00  0.00    +0.306 C 
ATOM     16  C   UNL     1     -16.488   1.492  28.866  0.00  0.00    +0.285 C 
ENDROOT
BRANCH  16  18
ATOM      4  O   UNL     1     -16.772   3.180  30.584  0.00  0.00    -0.350 OA
ATOM      8  N   UNL     1     -16.048   4.091  31.345  0.00  0.00    -0.086 NA
ATOM     18  C   UNL     1     -15.925   2.509  29.764  0.00  0.00    +0.222 A 
ATOM     21  C   UNL     1     -14.644   2.951  29.961  0.00  0.00    +0.077 A 
ATOM     25  C   UNL     1     -14.779   3.935  30.956  0.00  0.00    +0.157 A 
ENDBRANCH  16  18
BRANCH   6  15
ATOM     15  C   UNL     1     -16.524   5.058  22.493  0.00  0.00    +0.144 C 
BRANCH  15  17
ATOM      1  F   UNL     1     -11.468   6.964  20.911  0.00  0.00    -0.205 F 
ATOM     17  C   UNL     1     -15.176   5.566  22.071  0.00  0.00    -0.030 A 
ATOM     19  C   UNL     1     -15.074   6.756  21.350  0.00  0.00    +0.008 A 
ATOM     20  C   UNL     1     -14.026   4.849  22.400  0.00  0.00    +0.008 A 
ATOM     22  C   UNL     1     -13.821   7.227  20.957  0.00  0.00    +0.038 A 
ATOM     23  C   UNL     1     -12.774   5.321  22.008  0.00  0.00    +0.038 A 
ATOM     24  C   UNL     1     -12.671   6.511  21.286  0.00  0.00    +0.123 A 
ENDBRANCH  15  17
ENDBRANCH   6  15
TORSDOF 3
ENDMDL
MODEL 2
REMARK VINA RESULT:      -6.7      5.360      8.315
REMARK  Name = 75368442
REMARK  3 active torsions:
REMARK  status: ('A' for Active; 'I' for Inactive)
REMARK    1  A    between atoms: N_6  and  C_15
REMARK    2  A    between atoms: C_15  and  C_17
REMARK    3  A    between atoms: C_16  and  C_18
REMARK                            x       y       z     vdW  Elec       q    Type
REMARK                         _______ _______ _______ _____ _____    ______ ____
ROOT
ATOM      2  O   UNL     1     -14.043   5.290  35.194  0.00  0.00    -0.252 OA
ATOM      3  O   UNL     1     -15.124  -0.267  31.100  0.00  0.00    -0.267 OA
ATOM      5  N   UNL     1     -14.800   4.007  33.378  0.00  0.00    -0.278 N 
ATOM      6  N   UNL     1     -14.924   6.245  33.226  0.00  0.00    -0.279 N 
ATOM      7  N   UNL     1     -14.744   2.014  31.441  0.00  0.00    -0.292 N 
ATOM      9  C   UNL     1     -15.484   4.253  32.120  0.00  0.00    +0.112 C 
ATOM     10  C   UNL     1     -15.369   5.762  31.931  0.00  0.00    +0.133 C 
ATOM     11  C   UNL     1     -14.855   3.420  31.007  0.00  0.00    +0.132 C 
ATOM     12  C   UNL     1     -14.568   2.644  33.821  0.00  0.00    +0.128 C 
ATOM     13  C   UNL     1     -13.979   1.815  32.680  0.00  0.00    +0.127 C 
ATOM     14  C   UNL     1     -14.531   5.192  34.076  0.00  0.00    +0.306 C 
ATOM     16  C   UNL     1     -15.254   0.908  30.759  0.00  0.00    +0.285 C 
ENDROOT
BRANCH  16  18
ATOM      4  O   UNL     1     -15.717   0.422  28.428  0.00  0.00    -0.350 OA
ATOM      8  N   UNL     1     -16.554   0.797  27.384  0.00  0.00    -0.086 NA
ATOM     18  C   UNL     1     -16.026   1.148  29.532  0.00  0.00    +0.222 A 
ATOM     21  C   UNL     1     -17.055   2.005  29.249  0.00  0.00    +0.077 A 
ATOM     25  C   UNL     1     -17.345   1.743  27.897  0.00  0.00    +0.157 A 
ENDBRANCH  16  18
BRANCH   6  15
ATOM     15  C   UNL     1     -14.789   7.657  33.512  0.00  0.00    +0.144 C 
BRANCH  15  17
ATOM      1  F   UNL     1     -11.156  10.176  30.026  0.00  0.00    -0.205 F 
ATOM     17  C   UNL     1     -13.821   8.329  32.583  0.00  0.00    -0.030 A 
ATOM     19  C   UNL     1     -12.459   8.038  32.666  0.00  0.00    +0.008 A 
ATOM     20  C   UNL     1     -14.281   9.244  31.637  0.00  0.00    +0.008 A 
ATOM     22  C   UNL     1     -11.559   8.662  31.802  0.00  0.00    +0.038 A 
ATOM     23  C   UNL     1     -13.382   9.868  30.774  0.00  0.00    +0.038 A 
ATOM     24  C   UNL     1     -12.020   9.577  30.857  0.00  0.00    +0.123 A 
ENDBRANCH  15  17
ENDBRANCH   6  15
TORSDOF 3
ENDMDL
MODEL 3
REMARK VINA RESULT:      -6.6     31.165     34.708
REMARK  Name = 75368442
REMARK  3 active torsions:
REMARK  status: ('A' for Active; 'I' for Inactive)
REMARK    1  A    between atoms: N_6  and  C_15
REMARK    2  A    between atoms: C_15  and  C_17
REMARK    3  A    between atoms: C_16  and  C_18
REMARK                            x       y       z     vdW  Elec       q    Type
REMARK                         _______ _______ _______ _____ _____    ______ ____
ROOT
ATOM      2  O   UNL     1      10.845   7.085   1.159  0.00  0.00    -0.252 OA
ATOM      3  O   UNL     1      10.106   8.604   7.938  0.00  0.00    -0.267 OA
ATOM      5  N   UNL     1      10.445   6.779   3.453  0.00  0.00    -0.278 N 
ATOM      6  N   UNL     1      10.732   4.958   2.168  0.00  0.00    -0.279 N 
ATOM      7  N   UNL     1      10.733   7.189   6.187  0.00  0.00    -0.292 N 
ATOM      9  C   UNL     1      10.200   5.658   4.345  0.00  0.00    +0.112 C 
ATOM     10  C   UNL     1      10.606   4.441   3.520  0.00  0.00    +0.133 C 
ATOM     11  C   UNL     1      10.980   5.839   5.644  0.00  0.00    +0.132 C 
ATOM     12  C   UNL     1      10.317   8.138   3.947  0.00  0.00    +0.128 C 
ATOM     13  C   UNL     1      11.069   8.287   5.270  0.00  0.00    +0.127 C 
ATOM     14  C   UNL     1      10.689   6.366   2.136  0.00  0.00    +0.306 C 
ATOM     16  C   UNL     1      10.269   7.477   7.471  0.00  0.00    +0.285 C 
ENDROOT
BRANCH  16  18
ATOM      4  O   UNL     1      10.929   5.513   8.732  0.00  0.00    -0.350 OA
ATOM      8  N   UNL     1      10.406   4.524   9.557  0.00  0.00    -0.086 NA
ATOM     18  C   UNL     1       9.932   6.352   8.354  0.00  0.00    +0.222 A 
ATOM     21  C   UNL     1       8.749   5.946   8.910  0.00  0.00    +0.077 A 
ATOM     25  C   UNL     1       9.103   4.803   9.650  0.00  0.00    +0.157 A 
ENDBRANCH  16  18
BRANCH   6  15
ATOM     15  C   UNL     1      11.004   4.095   1.040  0.00  0.00    +0.144 C 
BRANCH  15  17
ATOM      1  F   UNL     1      16.506   3.819  -0.125  0.00  0.00    -0.205 F 
ATOM     17  C   UNL     1      12.471   4.021   0.730  0.00  0.00    -0.030 A 
ATOM     19  C   UNL     1      12.935   4.383  -0.535  0.00  0.00    +0.008 A 
ATOM     20  C   UNL     1      13.370   3.591   1.705  0.00  0.00    +0.008 A 
ATOM     22  C   UNL     1      14.297   4.314  -0.824  0.00  0.00    +0.038 A 
ATOM     23  C   UNL     1      14.733   3.522   1.416  0.00  0.00    +0.038 A 
ATOM     24  C   UNL     1      15.197   3.884   0.151  0.00  0.00    +0.123 A 
ENDBRANCH  15  17
ENDBRANCH   6  15
TORSDOF 3
ENDMDL
MODEL 4
REMARK VINA RESULT:      -6.6     19.796     21.371
REMARK  Name = 75368442
REMARK  3 active torsions:
REMARK  status: ('A' for Active; 'I' for Inactive)
REMARK    1  A    between atoms: N_6  and  C_15
REMARK    2  A    between atoms: C_15  and  C_17
REMARK    3  A    between atoms: C_16  and  C_18
REMARK                            x       y       z     vdW  Elec       q    Type
REMARK                         _______ _______ _______ _____ _____    ______ ____
ROOT
ATOM      2  O   UNL     1      -1.225 -11.793  14.943  0.00  0.00    -0.252 OA
ATOM      3  O   UNL     1      -6.294 -10.307  19.516  0.00  0.00    -0.267 OA
ATOM      5  N   UNL     1      -3.339 -11.184  15.766  0.00  0.00    -0.278 N 
ATOM      6  N   UNL     1      -3.150 -11.691  13.585  0.00  0.00    -0.279 N 
ATOM      7  N   UNL     1      -5.519 -11.178  17.490  0.00  0.00    -0.292 N 
ATOM      9  C   UNL     1      -4.653 -10.911  15.210  0.00  0.00    +0.112 C 
ATOM     10  C   UNL     1      -4.569 -11.460  13.789  0.00  0.00    +0.133 C 
ATOM     11  C   UNL     1      -5.735 -11.547  16.077  0.00  0.00    +0.132 C 
ATOM     12  C   UNL     1      -3.084 -10.937  17.174  0.00  0.00    +0.128 C 
ATOM     13  C   UNL     1      -4.200 -11.545  18.023  0.00  0.00    +0.127 C 
ATOM     14  C   UNL     1      -2.419 -11.579  14.785  0.00  0.00    +0.306 C 
ATOM     16  C   UNL     1      -6.460 -10.575  18.327  0.00  0.00    +0.285 C 
ENDROOT
BRANCH  16  18
ATOM      4  O   UNL     1      -8.782 -11.100  17.864  0.00  0.00    -0.350 OA
ATOM      8  N   UNL     1      -9.918 -10.571  17.262  0.00  0.00    -0.086 NA
ATOM     18  C   UNL     1      -7.763 -10.211  17.754  0.00  0.00    +0.222 A 
ATOM     21  C   UNL     1      -8.193  -9.094  17.089  0.00  0.00    +0.077 A 
ATOM     25  C   UNL     1      -9.542  -9.372  16.807  0.00  0.00    +0.157 A 
ENDBRANCH  16  18
BRANCH   6  15
ATOM     15  C   UNL     1      -2.619 -12.119  12.310  0.00  0.00    +0.144 C 
BRANCH  15  17
ATOM      1  F   UNL     1      -4.619  -9.025   8.052  0.00  0.00    -0.205 F 
ATOM     17  C   UNL     1      -3.152 -11.294  11.174  0.00  0.00    -0.030 A 
ATOM     19  C   UNL     1      -2.836  -9.938  11.089  0.00  0.00    +0.008 A 
ATOM     20  C   UNL     1      -3.964 -11.883  10.205  0.00  0.00    +0.008 A 
ATOM     22  C   UNL     1      -3.332  -9.172  10.035  0.00  0.00    +0.038 A 
ATOM     23  C   UNL     1      -4.460 -11.117   9.151  0.00  0.00    +0.038 A 
ATOM     24  C   UNL     1      -4.144  -9.760   9.066  0.00  0.00    +0.123 A 
ENDBRANCH  15  17
ENDBRANCH   6  15
TORSDOF 3
ENDMDL
MODEL 5
REMARK VINA RESULT:      -6.2      7.491     12.253
REMARK  Name = 75368442
REMARK  3 active torsions:
REMARK  status: ('A' for Active; 'I' for Inactive)
REMARK    1  A    between atoms: N_6  and  C_15
REMARK    2  A    between atoms: C_15  and  C_17
REMARK    3  A    between atoms: C_16  and  C_18
REMARK                            x       y       z     vdW  Elec       q    Type
REMARK                         _______ _______ _______ _____ _____    ______ ____
ROOT
ATOM      2  O   UNL     1     -10.139   9.404  19.624  0.00  0.00    -0.252 OA
ATOM      3  O   UNL     1     -11.332   8.543  12.794  0.00  0.00    -0.267 OA
ATOM      5  N   UNL     1     -11.205   8.727  17.643  0.00  0.00    -0.278 N 
ATOM      6  N   UNL     1     -12.346   8.574  19.573  0.00  0.00    -0.279 N 
ATOM      7  N   UNL     1     -12.040   8.876  14.996  0.00  0.00    -0.292 N 
ATOM      9  C   UNL     1     -12.455   8.081  17.280  0.00  0.00    +0.112 C 
ATOM     10  C   UNL     1     -13.297   8.180  18.549  0.00  0.00    +0.133 C 
ATOM     11  C   UNL     1     -13.061   8.759  16.056  0.00  0.00    +0.132 C 
ATOM     12  C   UNL     1     -10.192   8.964  16.629  0.00  0.00    +0.128 C 
ATOM     13  C   UNL     1     -10.827   9.604  15.395  0.00  0.00    +0.127 C 
ATOM     14  C   UNL     1     -11.106   8.955  19.022  0.00  0.00    +0.306 C 
ATOM     16  C   UNL     1     -12.166   8.406  13.688  0.00  0.00    +0.285 C 
ENDROOT
BRANCH  16  18
ATOM      4  O   UNL     1     -13.333   6.316  13.292  0.00  0.00    -0.350 OA
ATOM      8  N   UNL     1     -14.580   5.817  12.937  0.00  0.00    -0.086 NA
ATOM     18  C   UNL     1     -13.388   7.671  13.332  0.00  0.00    +0.222 A 
ATOM     21  C   UNL     1     -14.650   8.093  13.010  0.00  0.00    +0.077 A 
ATOM     25  C   UNL     1     -15.351   6.896  12.774  0.00  0.00    +0.157 A 
ENDBRANCH  16  18
BRANCH   6  15
ATOM     15  C   UNL     1     -12.719   8.678  20.966  0.00  0.00    +0.144 C 
BRANCH  15  17
ATOM      1  F   UNL     1     -15.312   4.031  22.804  0.00  0.00    -0.205 F 
ATOM     17  C   UNL     1     -13.411   7.440  21.456  0.00  0.00    -0.030 A 
ATOM     19  C   UNL     1     -12.716   6.231  21.518  0.00  0.00    +0.008 A 
ATOM     20  C   UNL     1     -14.748   7.495  21.849  0.00  0.00    +0.008 A 
ATOM     22  C   UNL     1     -13.358   5.080  21.973  0.00  0.00    +0.038 A 
ATOM     23  C   UNL     1     -15.390   6.344  22.304  0.00  0.00    +0.038 A 
ATOM     24  C   UNL     1     -14.695   5.136  22.365  0.00  0.00    +0.123 A 
ENDBRANCH  15  17
ENDBRANCH   6  15
TORSDOF 3
ENDMDL
MODEL 6
REMARK VINA RESULT:      -6.1     19.534     20.959
REMARK  Name = 75368442
REMARK  3 active torsions:
REMARK  status: ('A' for Active; 'I' for Inactive)
REMARK    1  A    between atoms: N_6  and  C_15
REMARK    2  A    between atoms: C_15  and  C_17
REMARK    3  A    between atoms: C_16  and  C_18
REMARK                            x       y       z     vdW  Elec       q    Type
REMARK                         _______ _______ _______ _____ _____    ______ ____
ROOT
ATOM      2  O   UNL     1      -2.261 -11.447  14.910  0.00  0.00    -0.252 OA
ATOM      3  O   UNL     1      -5.902 -11.302  20.872  0.00  0.00    -0.267 OA
ATOM      5  N   UNL     1      -4.099 -11.540  16.371  0.00  0.00    -0.278 N 
ATOM      6  N   UNL     1      -4.387 -12.227  14.252  0.00  0.00    -0.279 N 
ATOM      7  N   UNL     1      -5.493 -12.094  18.711  0.00  0.00    -0.292 N 
ATOM      9  C   UNL     1      -5.518 -11.835  16.271  0.00  0.00    +0.112 C 
ATOM     10  C   UNL     1      -5.655 -12.498  14.904  0.00  0.00    +0.133 C 
ATOM     11  C   UNL     1      -5.960 -12.699  17.448  0.00  0.00    +0.132 C 
ATOM     12  C   UNL     1      -3.551 -11.034  17.618  0.00  0.00    +0.128 C 
ATOM     13  C   UNL     1      -4.041 -11.886  18.789  0.00  0.00    +0.127 C 
ATOM     14  C   UNL     1      -3.435 -11.701  15.148  0.00  0.00    +0.306 C 
ATOM     16  C   UNL     1      -6.298 -11.766  19.804  0.00  0.00    +0.285 C 
ENDROOT
BRANCH  16  18
ATOM      4  O   UNL     1      -8.258 -13.169  20.080  0.00  0.00    -0.350 OA
ATOM      8  N   UNL     1      -9.634 -13.166  19.884  0.00  0.00    -0.086 NA
ATOM     18  C   UNL     1      -7.747 -11.976  19.683  0.00  0.00    +0.222 A 
ATOM     21  C   UNL     1      -8.756 -11.171  19.224  0.00  0.00    +0.077 A 
ATOM     25  C   UNL     1      -9.908 -11.963  19.373  0.00  0.00    +0.157 A 
ENDBRANCH  16  18
BRANCH   6  15
ATOM     15  C   UNL     1      -4.138 -12.599  12.876  0.00  0.00    +0.144 C 
BRANCH  15  17
ATOM      1  F   UNL     1      -4.257  -8.143   9.437  0.00  0.00    -0.205 F 
ATOM     17  C   UNL     1      -4.169 -11.411  11.959  0.00  0.00    -0.030 A 
ATOM     19  C   UNL     1      -5.383 -10.787  11.668  0.00  0.00    +0.008 A 
ATOM     20  C   UNL     1      -2.987 -10.930  11.399  0.00  0.00    +0.008 A 
ATOM     22  C   UNL     1      -5.413  -9.684  10.815  0.00  0.00    +0.038 A 
ATOM     23  C   UNL     1      -3.016  -9.827  10.546  0.00  0.00    +0.038 A 
ATOM     24  C   UNL     1      -4.230  -9.204  10.254  0.00  0.00    +0.123 A 
ENDBRANCH  15  17
ENDBRANCH   6  15
TORSDOF 3
ENDMDL
MODEL 7
REMARK VINA RESULT:      -6.1     31.892     36.077
REMARK  Name = 75368442
REMARK  3 active torsions:
REMARK  status: ('A' for Active; 'I' for Inactive)
REMARK    1  A    between atoms: N_6  and  C_15
REMARK    2  A    between atoms: C_15  and  C_17
REMARK    3  A    between atoms: C_16  and  C_18
REMARK                            x       y       z     vdW  Elec       q    Type
REMARK                         _______ _______ _______ _____ _____    ______ ____
ROOT
ATOM      2  O   UNL     1      12.279   7.803   5.458  0.00  0.00    -0.252 OA
ATOM      3  O   UNL     1      15.286   5.445  -0.391  0.00  0.00    -0.267 OA
ATOM      5  N   UNL     1      12.561   6.612   3.453  0.00  0.00    -0.278 N 
ATOM      6  N   UNL     1      10.506   6.705   4.357  0.00  0.00    -0.279 N 
ATOM      7  N   UNL     1      13.430   6.120   0.859  0.00  0.00    -0.292 N 
ATOM      9  C   UNL     1      11.750   5.752   2.609  0.00  0.00    +0.112 C 
ATOM     10  C   UNL     1      10.327   5.995   3.103  0.00  0.00    +0.133 C 
ATOM     11  C   UNL     1      11.981   6.088   1.139  0.00  0.00    +0.132 C 
ATOM     12  C   UNL     1      13.979   6.768   3.177  0.00  0.00    +0.128 C 
ATOM     13  C   UNL     1      14.192   7.061   1.692  0.00  0.00    +0.127 C 
ATOM     14  C   UNL     1      11.840   7.122   4.541  0.00  0.00    +0.306 C 
ATOM     16  C   UNL     1      14.085   5.385  -0.130  0.00  0.00    +0.285 C 
ENDROOT
BRANCH  16  18
ATOM      4  O   UNL     1      12.816   4.867  -2.131  0.00  0.00    -0.350 OA
ATOM      8  N   UNL     1      12.097   3.839  -2.728  0.00  0.00    -0.086 NA
ATOM     18  C   UNL     1      13.292   4.445  -0.933  0.00  0.00    +0.222 A 
ATOM     21  C   UNL     1      12.904   3.150  -0.712  0.00  0.00    +0.077 A 
ATOM     25  C   UNL     1      12.163   2.823  -1.862  0.00  0.00    +0.157 A 
ENDBRANCH  16  18
BRANCH   6  15
ATOM     15  C   UNL     1       9.391   7.037   5.216  0.00  0.00    +0.144 C 
BRANCH  15  17
ATOM      1  F   UNL     1       9.546   4.189  10.070  0.00  0.00    -0.205 F 
ATOM     17  C   UNL     1       9.432   6.279   6.510  0.00  0.00    -0.030 A 
ATOM     19  C   UNL     1       9.841   4.945   6.523  0.00  0.00    +0.008 A 
ATOM     20  C   UNL     1       9.062   6.905   7.699  0.00  0.00    +0.008 A 
ATOM     22  C   UNL     1       9.879   4.239   7.725  0.00  0.00    +0.038 A 
ATOM     23  C   UNL     1       9.100   6.200   8.901  0.00  0.00    +0.038 A 
ATOM     24  C   UNL     1       9.509   4.866   8.914  0.00  0.00    +0.123 A 
ENDBRANCH  15  17
ENDBRANCH   6  15
TORSDOF 3
ENDMDL
MODEL 8
REMARK VINA RESULT:      -6.1      2.189      3.552
REMARK  Name = 75368442
REMARK  3 active torsions:
REMARK  status: ('A' for Active; 'I' for Inactive)
REMARK    1  A    between atoms: N_6  and  C_15
REMARK    2  A    between atoms: C_15  and  C_17
REMARK    3  A    between atoms: C_16  and  C_18
REMARK                            x       y       z     vdW  Elec       q    Type
REMARK                         _______ _______ _______ _____ _____    ______ ____
ROOT
ATOM      2  O   UNL     1     -16.548   0.948  26.334  0.00  0.00    -0.252 OA
ATOM      3  O   UNL     1     -14.348   1.540  32.938  0.00  0.00    -0.267 OA
ATOM      5  N   UNL     1     -15.864   1.950  28.345  0.00  0.00    -0.278 N 
ATOM      6  N   UNL     1     -16.799   3.251  26.771  0.00  0.00    -0.279 N 
ATOM      7  N   UNL     1     -15.586   2.264  31.093  0.00  0.00    -0.292 N 
ATOM      9  C   UNL     1     -15.759   3.299  28.875  0.00  0.00    +0.112 C 
ATOM     10  C   UNL     1     -16.584   4.136  27.902  0.00  0.00    +0.133 C 
ATOM     11  C   UNL     1     -16.245   3.336  30.321  0.00  0.00    +0.132 C 
ATOM     12  C   UNL     1     -15.323   0.832  29.100  0.00  0.00    +0.128 C 
ATOM     13  C   UNL     1     -15.786   0.912  30.555  0.00  0.00    +0.127 C 
ATOM     14  C   UNL     1     -16.416   1.926  27.058  0.00  0.00    +0.306 C 
ATOM     16  C   UNL     1     -14.860   2.439  32.272  0.00  0.00    +0.285 C 
ENDROOT
BRANCH  16  18
ATOM      4  O   UNL     1     -15.550   4.283  33.688  0.00  0.00    -0.350 OA
ATOM      8  N   UNL     1     -15.200   5.585  34.027  0.00  0.00    -0.086 NA
ATOM     18  C   UNL     1     -14.670   3.807  32.771  0.00  0.00    +0.222 A 
ATOM     21  C   UNL     1     -13.734   4.766  32.488  0.00  0.00    +0.077 A 
ATOM     25  C   UNL     1     -14.112   5.851  33.299  0.00  0.00    +0.157 A 
ENDBRANCH  16  18
BRANCH   6  15
ATOM     15  C   UNL     1     -17.459   3.698  25.564  0.00  0.00    +0.144 C 
BRANCH  15  17
ATOM      1  F   UNL     1     -14.040   6.763  22.307  0.00  0.00    -0.205 F 
ATOM     17  C   UNL     1     -16.548   4.515  24.695  0.00  0.00    -0.030 A 
ATOM     19  C   UNL     1     -15.292   4.020  24.342  0.00  0.00    +0.008 A 
ATOM     20  C   UNL     1     -16.955   5.770  24.242  0.00  0.00    +0.008 A 
ATOM     22  C   UNL     1     -14.445   4.779  23.535  0.00  0.00    +0.038 A 
ATOM     23  C   UNL     1     -16.108   6.529  23.436  0.00  0.00    +0.038 A 
ATOM     24  C   UNL     1     -14.852   6.034  23.082  0.00  0.00    +0.123 A 
ENDBRANCH  15  17
ENDBRANCH   6  15
TORSDOF 3
ENDMDL
MODEL 9
REMARK VINA RESULT:      -6.0     32.466     36.056
REMARK  Name = 75368442
REMARK  3 active torsions:
REMARK  status: ('A' for Active; 'I' for Inactive)
REMARK    1  A    between atoms: N_6  and  C_15
REMARK    2  A    between atoms: C_15  and  C_17
REMARK    3  A    between atoms: C_16  and  C_18
REMARK                            x       y       z     vdW  Elec       q    Type
REMARK                         _______ _______ _______ _____ _____    ______ ____
ROOT
ATOM      2  O   UNL     1      10.893   5.940  -0.654  0.00  0.00    -0.252 OA
ATOM      3  O   UNL     1       9.400   8.468   5.685  0.00  0.00    -0.267 OA
ATOM      5  N   UNL     1      10.572   6.002   1.672  0.00  0.00    -0.278 N 
ATOM      6  N   UNL     1      11.591   4.207   0.784  0.00  0.00    -0.279 N 
ATOM      7  N   UNL     1      10.588   7.069   4.238  0.00  0.00    -0.292 N 
ATOM      9  C   UNL     1      10.758   5.095   2.791  0.00  0.00    +0.112 C 
ATOM     10  C   UNL     1      11.635   3.986   2.219  0.00  0.00    +0.133 C 
ATOM     11  C   UNL     1      11.362   5.839   3.978  0.00  0.00    +0.132 C 
ATOM     12  C   UNL     1       9.905   7.276   1.876  0.00  0.00    +0.128 C 
ATOM     13  C   UNL     1      10.495   7.986   3.094  0.00  0.00    +0.127 C 
ATOM     14  C   UNL     1      11.001   5.445   0.460  0.00  0.00    +0.306 C 
ATOM     16  C   UNL     1      10.007   7.423   5.457  0.00  0.00    +0.285 C 
ENDROOT
BRANCH  16  18
ATOM      4  O   UNL     1      11.145   6.613   7.441  0.00  0.00    -0.350 OA
ATOM      8  N   UNL     1      11.063   5.625   8.415  0.00  0.00    -0.086 NA
ATOM     18  C   UNL     1      10.110   6.474   6.574  0.00  0.00    +0.222 A 
ATOM     21  C   UNL     1       9.334   5.409   6.947  0.00  0.00    +0.077 A 
ATOM     25  C   UNL     1       9.973   4.919   8.100  0.00  0.00    +0.157 A 
ENDBRANCH  16  18
BRANCH   6  15
ATOM     15  C   UNL     1      12.217   3.298  -0.151  0.00  0.00    +0.144 C 
BRANCH  15  17
ATOM      1  F   UNL     1      17.488   4.841  -1.388  0.00  0.00    -0.205 F 
ATOM     17  C   UNL     1      13.622   3.710  -0.480  0.00  0.00    -0.030 A 
ATOM     19  C   UNL     1      13.948   4.098  -1.780  0.00  0.00    +0.008 A 
ATOM     20  C   UNL     1      14.602   3.703   0.512  0.00  0.00    +0.008 A 
ATOM     22  C   UNL     1      15.254   4.480  -2.087  0.00  0.00    +0.038 A 
ATOM     23  C   UNL     1      15.908   4.084   0.205  0.00  0.00    +0.038 A 
ATOM     24  C   UNL     1      16.234   4.473  -1.095  0.00  0.00    +0.123 A 
ENDBRANCH  15  17
ENDBRANCH   6  15
TORSDOF 3
ENDMDL
MODEL 10
REMARK VINA RESULT:      -5.7      3.532      5.778
REMARK  Name = 75368442
REMARK  3 active torsions:
REMARK  status: ('A' for Active; 'I' for Inactive)
REMARK    1  A    between atoms: N_6  and  C_15
REMARK    2  A    between atoms: C_15  and  C_17
REMARK    3  A    between atoms: C_16  and  C_18
REMARK                            x       y       z     vdW  Elec       q    Type
REMARK                         _______ _______ _______ _____ _____    ______ ____
ROOT
ATOM      2  O   UNL     1     -14.942  -0.087  29.203  0.00  0.00    -0.252 OA
ATOM      3  O   UNL     1     -14.097   4.448  34.451  0.00  0.00    -0.267 OA
ATOM      5  N   UNL     1     -15.162   1.877  30.473  0.00  0.00    -0.278 N 
ATOM      6  N   UNL     1     -16.550   1.573  28.733  0.00  0.00    -0.279 N 
ATOM      7  N   UNL     1     -15.360   3.451  32.756  0.00  0.00    -0.292 N 
ATOM      9  C   UNL     1     -15.925   3.111  30.393  0.00  0.00    +0.112 C 
ATOM     10  C   UNL     1     -17.000   2.806  29.354  0.00  0.00    +0.133 C 
ATOM     11  C   UNL     1     -16.458   3.491  31.771  0.00  0.00    +0.132 C 
ATOM     12  C   UNL     1     -14.130   1.730  31.485  0.00  0.00    +0.128 C 
ATOM     13  C   UNL     1     -14.670   2.157  32.849  0.00  0.00    +0.127 C 
ATOM     14  C   UNL     1     -15.480   0.988  29.438  0.00  0.00    +0.306 C 
ATOM     16  C   UNL     1     -14.984   4.497  33.599  0.00  0.00    +0.285 C 
ENDROOT
BRANCH  16  18
ATOM      4  O   UNL     1     -16.883   5.923  34.094  0.00  0.00    -0.350 OA
ATOM      8  N   UNL     1     -17.382   7.196  33.846  0.00  0.00    -0.086 NA
ATOM     18  C   UNL     1     -15.688   5.780  33.467  0.00  0.00    +0.222 A 
ATOM     21  C   UNL     1     -15.375   6.934  32.801  0.00  0.00    +0.077 A 
ATOM     25  C   UNL     1     -16.464   7.782  33.072  0.00  0.00    +0.157 A 
ENDBRANCH  16  18
BRANCH   6  15
ATOM     15  C   UNL     1     -17.240   0.986  27.605  0.00  0.00    +0.144 C 
BRANCH  15  17
ATOM      1  F   UNL     1     -16.220   3.778  22.824  0.00  0.00    -0.205 F 
ATOM     17  C   UNL     1     -16.968   1.731  26.331  0.00  0.00    -0.030 A 
ATOM     19  C   UNL     1     -17.605   1.348  25.150  0.00  0.00    +0.008 A 
ATOM     20  C   UNL     1     -16.079   2.805  26.326  0.00  0.00    +0.008 A 
ATOM     22  C   UNL     1     -17.352   2.039  23.966  0.00  0.00    +0.038 A 
ATOM     23  C   UNL     1     -15.826   3.496  25.141  0.00  0.00    +0.038 A 
ATOM     24  C   UNL     1     -16.463   3.113  23.961  0.00  0.00    +0.123 A 
ENDBRANCH  15  17
ENDBRANCH   6  15
TORSDOF 3
ENDMDL
