MODEL 1
REMARK VINA RESULT:      -6.8      0.000      0.000
REMARK  Name = 45783563
REMARK  8 active torsions:
REMARK  status: ('A' for Active; 'I' for Inactive)
REMARK    1  A    between atoms: O_3  and  C_24
REMARK    2  A    between atoms: O_3  and  C_25
REMARK    3  A    between atoms: O_4  and  C_26
REMARK    4  A    between atoms: O_4  and  C_27
REMARK    5  A    between atoms: N_5  and  C_9
REMARK    6  A    between atoms: C_10  and  C_18
REMARK    7  A    between atoms: C_19  and  C_20
REMARK    8  A    between atoms: C_25  and  C_26
REMARK                            x       y       z     vdW  Elec       q    Type
REMARK                         _______ _______ _______ _____ _____    ______ ____
ROOT
ATOM      2  O   UNL     1      15.524   6.263  18.299  0.00  0.00    -0.336 OA
ATOM      6  N   UNL     1      16.265   7.502  20.012  0.00  0.00    -0.190 NA
ATOM      7  N   UNL     1      16.740   5.693  18.694  0.00  0.00    -0.056 NA
ATOM     18  C   UNL     1      15.319   7.323  19.124  0.00  0.00    +0.245 A 
ATOM     19  C   UNL     1      17.114   6.478  19.709  0.00  0.00    +0.204 A 
ENDROOT
BRANCH  19  20
ATOM      8  N   UNL     1      20.430   5.088  20.660  0.00  0.00    -0.221 NA
ATOM     20  C   UNL     1      18.332   6.268  20.438  0.00  0.00    +0.041 A 
ATOM     21  C   UNL     1      18.609   6.994  21.592  0.00  0.00    +0.018 A 
ATOM     22  C   UNL     1      19.266   5.335  20.018  0.00  0.00    +0.126 A 
ATOM     23  C   UNL     1      19.797   6.769  22.279  0.00  0.00    +0.068 A 
ATOM     24  C   UNL     1      20.666   5.812  21.777  0.00  0.00    +0.215 A 
BRANCH  24   3
ATOM      3  O   UNL     1      21.842   5.572  22.437  0.00  0.00    -0.474 OA
BRANCH   3  25
ATOM     25  C   UNL     1      22.782   4.729  21.782  0.00  0.00    +0.258 C 
BRANCH  25  26
ATOM     26  C   UNL     1      23.166   3.596  22.714  0.00  0.00    +0.200 C 
BRANCH  26   4
ATOM      4  O   UNL     1      22.288   3.602  23.835  0.00  0.00    -0.380 OA
ATOM     27  C   UNL     1      22.897   3.010  24.974  0.00  0.00    +0.194 C 
ENDBRANCH  26   4
ENDBRANCH  25  26
ENDBRANCH   3  25
ENDBRANCH  24   3
ENDBRANCH  19  20
BRANCH  18  10
ATOM      5  N   UNL     1      13.674   8.932  20.073  0.00  0.00    -0.288 NA
ATOM     10  C   UNL     1      14.050   8.119  18.899  0.00  0.00    +0.146 C 
ATOM     11  C   UNL     1      12.959  10.098  19.556  0.00  0.00    +0.085 C 
ATOM     12  C   UNL     1      14.182   9.133  17.748  0.00  0.00    +0.030 C 
ATOM     13  C   UNL     1      13.801  10.475  18.355  0.00  0.00    +0.017 C 
BRANCH   5   9
ATOM      1  O   UNL     1      10.336   7.130  21.872  0.00  0.00    -0.380 OA
ATOM      9  C   UNL     1      12.884   8.193  21.055  0.00  0.00    +0.062 C 
ATOM     14  C   UNL     1      12.288   6.923  20.440  0.00  0.00    +0.047 C 
ATOM     15  C   UNL     1      11.766   9.077  21.613  0.00  0.00    +0.047 C 
ATOM     16  C   UNL     1      11.360   6.236  21.435  0.00  0.00    +0.161 C 
ATOM     17  C   UNL     1      10.867   8.271  22.544  0.00  0.00    +0.161 C 
ENDBRANCH   5   9
ENDBRANCH  18  10
TORSDOF 7
ENDMDL
MODEL 2
REMARK VINA RESULT:      -6.8      1.529      2.124
REMARK  Name = 45783563
REMARK  8 active torsions:
REMARK  status: ('A' for Active; 'I' for Inactive)
REMARK    1  A    between atoms: O_3  and  C_24
REMARK    2  A    between atoms: O_3  and  C_25
REMARK    3  A    between atoms: O_4  and  C_26
REMARK    4  A    between atoms: O_4  and  C_27
REMARK    5  A    between atoms: N_5  and  C_9
REMARK    6  A    between atoms: C_10  and  C_18
REMARK    7  A    between atoms: C_19  and  C_20
REMARK    8  A    between atoms: C_25  and  C_26
REMARK                            x       y       z     vdW  Elec       q    Type
REMARK                         _______ _______ _______ _____ _____    ______ ____
ROOT
ATOM      2  O   UNL     1      16.125   8.577  20.267  0.00  0.00    -0.336 OA
ATOM      6  N   UNL     1      16.628   6.431  19.872  0.00  0.00    -0.190 NA
ATOM      7  N   UNL     1      17.385   8.362  20.837  0.00  0.00    -0.056 NA
ATOM     18  C   UNL     1      15.751   7.390  19.722  0.00  0.00    +0.245 A 
ATOM     19  C   UNL     1      17.614   7.074  20.562  0.00  0.00    +0.204 A 
ENDROOT
BRANCH  19  20
ATOM      8  N   UNL     1      20.538   6.066  22.629  0.00  0.00    -0.221 NA
ATOM     20  C   UNL     1      18.815   6.401  20.965  0.00  0.00    +0.041 A 
ATOM     21  C   UNL     1      19.423   5.465  20.136  0.00  0.00    +0.018 A 
ATOM     22  C   UNL     1      19.406   6.664  22.190  0.00  0.00    +0.126 A 
ATOM     23  C   UNL     1      20.587   4.828  20.553  0.00  0.00    +0.068 A 
ATOM     24  C   UNL     1      21.100   5.162  21.796  0.00  0.00    +0.215 A 
BRANCH  24   3
ATOM      3  O   UNL     1      22.247   4.549  22.228  0.00  0.00    -0.474 OA
BRANCH   3  25
ATOM     25  C   UNL     1      23.464   5.262  22.040  0.00  0.00    +0.258 C 
BRANCH  25  26
ATOM     26  C   UNL     1      24.485   4.338  21.405  0.00  0.00    +0.200 C 
BRANCH  26   4
ATOM      4  O   UNL     1      24.139   4.133  20.040  0.00  0.00    -0.380 OA
ATOM     27  C   UNL     1      25.097   3.319  19.378  0.00  0.00    +0.194 C 
ENDBRANCH  26   4
ENDBRANCH  25  26
ENDBRANCH   3  25
ENDBRANCH  24   3
ENDBRANCH  19  20
BRANCH  18  10
ATOM      5  N   UNL     1      13.468   8.370  19.569  0.00  0.00    -0.288 NA
ATOM     10  C   UNL     1      14.402   7.359  19.033  0.00  0.00    +0.146 C 
ATOM     11  C   UNL     1      12.574   8.730  18.470  0.00  0.00    +0.085 C 
ATOM     12  C   UNL     1      14.496   7.674  17.529  0.00  0.00    +0.030 C 
ATOM     13  C   UNL     1      13.535   8.832  17.304  0.00  0.00    +0.017 C 
BRANCH   5   9
ATOM      1  O   UNL     1      10.226   7.184  21.960  0.00  0.00    -0.380 OA
ATOM      9  C   UNL     1      12.735   7.908  20.746  0.00  0.00    +0.062 C 
ATOM     14  C   UNL     1      12.048   6.565  20.476  0.00  0.00    +0.047 C 
ATOM     15  C   UNL     1      11.697   8.950  21.169  0.00  0.00    +0.047 C 
ATOM     16  C   UNL     1      11.181   6.165  21.663  0.00  0.00    +0.161 C 
ATOM     17  C   UNL     1      10.849   8.417  22.319  0.00  0.00    +0.161 C 
ENDBRANCH   5   9
ENDBRANCH  18  10
TORSDOF 7
ENDMDL
MODEL 3
REMARK VINA RESULT:      -6.7      1.908      2.134
REMARK  Name = 45783563
REMARK  8 active torsions:
REMARK  status: ('A' for Active; 'I' for Inactive)
REMARK    1  A    between atoms: O_3  and  C_24
REMARK    2  A    between atoms: O_3  and  C_25
REMARK    3  A    between atoms: O_4  and  C_26
REMARK    4  A    between atoms: O_4  and  C_27
REMARK    5  A    between atoms: N_5  and  C_9
REMARK    6  A    between atoms: C_10  and  C_18
REMARK    7  A    between atoms: C_19  and  C_20
REMARK    8  A    between atoms: C_25  and  C_26
REMARK                            x       y       z     vdW  Elec       q    Type
REMARK                         _______ _______ _______ _____ _____    ______ ____
ROOT
ATOM      2  O   UNL     1      16.200   6.009  18.655  0.00  0.00    -0.336 OA
ATOM      6  N   UNL     1      16.161   7.594  20.237  0.00  0.00    -0.190 NA
ATOM      7  N   UNL     1      17.425   5.919  19.325  0.00  0.00    -0.056 NA
ATOM     18  C   UNL     1      15.517   7.020  19.253  0.00  0.00    +0.245 A 
ATOM     19  C   UNL     1      17.327   6.885  20.244  0.00  0.00    +0.204 A 
ENDROOT
BRANCH  19  20
ATOM      8  N   UNL     1      20.267   6.382  22.466  0.00  0.00    -0.221 NA
ATOM     20  C   UNL     1      18.376   7.169  21.180  0.00  0.00    +0.041 A 
ATOM     21  C   UNL     1      18.536   8.444  21.712  0.00  0.00    +0.018 A 
ATOM     22  C   UNL     1      19.260   6.182  21.586  0.00  0.00    +0.126 A 
ATOM     23  C   UNL     1      19.561   8.689  22.619  0.00  0.00    +0.068 A 
ATOM     24  C   UNL     1      20.391   7.634  22.961  0.00  0.00    +0.215 A 
BRANCH  24   3
ATOM      3  O   UNL     1      21.408   7.851  23.853  0.00  0.00    -0.474 OA
BRANCH   3  25
ATOM     25  C   UNL     1      21.473   6.978  24.975  0.00  0.00    +0.258 C 
BRANCH  25  26
ATOM     26  C   UNL     1      20.318   7.284  25.908  0.00  0.00    +0.200 C 
BRANCH  26   4
ATOM      4  O   UNL     1      20.120   6.176  26.780  0.00  0.00    -0.380 OA
ATOM     27  C   UNL     1      21.357   5.598  27.175  0.00  0.00    +0.194 C 
ENDBRANCH  26   4
ENDBRANCH  25  26
ENDBRANCH   3  25
ENDBRANCH  24   3
ENDBRANCH  19  20
BRANCH  18  10
ATOM      5  N   UNL     1      13.470   8.426  19.420  0.00  0.00    -0.288 NA
ATOM     10  C   UNL     1      14.138   7.321  18.703  0.00  0.00    +0.146 C 
ATOM     11  C   UNL     1      12.580   9.068  18.452  0.00  0.00    +0.085 C 
ATOM     12  C   UNL     1      14.172   7.773  17.232  0.00  0.00    +0.030 C 
ATOM     13  C   UNL     1      13.446   9.111  17.210  0.00  0.00    +0.017 C 
BRANCH   5   9
ATOM      1  O   UNL     1      10.268   7.291  21.887  0.00  0.00    -0.380 OA
ATOM      9  C   UNL     1      12.757   7.988  20.617  0.00  0.00    +0.062 C 
ATOM     14  C   UNL     1      12.063   6.642  20.383  0.00  0.00    +0.047 C 
ATOM     15  C   UNL     1      11.727   9.040  21.039  0.00  0.00    +0.047 C 
ATOM     16  C   UNL     1      11.216   6.264  21.592  0.00  0.00    +0.161 C 
ATOM     17  C   UNL     1      10.899   8.529  22.212  0.00  0.00    +0.161 C 
ENDBRANCH   5   9
ENDBRANCH  18  10
TORSDOF 7
ENDMDL
MODEL 4
REMARK VINA RESULT:      -6.4      1.920      9.864
REMARK  Name = 45783563
REMARK  8 active torsions:
REMARK  status: ('A' for Active; 'I' for Inactive)
REMARK    1  A    between atoms: O_3  and  C_24
REMARK    2  A    between atoms: O_3  and  C_25
REMARK    3  A    between atoms: O_4  and  C_26
REMARK    4  A    between atoms: O_4  and  C_27
REMARK    5  A    between atoms: N_5  and  C_9
REMARK    6  A    between atoms: C_10  and  C_18
REMARK    7  A    between atoms: C_19  and  C_20
REMARK    8  A    between atoms: C_25  and  C_26
REMARK                            x       y       z     vdW  Elec       q    Type
REMARK                         _______ _______ _______ _____ _____    ______ ____
ROOT
ATOM      2  O   UNL     1      20.941   6.026  23.003  0.00  0.00    -0.336 OA
ATOM      6  N   UNL     1      20.738   6.055  20.772  0.00  0.00    -0.190 NA
ATOM      7  N   UNL     1      19.583   6.240  22.738  0.00  0.00    -0.056 NA
ATOM     18  C   UNL     1      21.550   5.930  21.792  0.00  0.00    +0.245 A 
ATOM     19  C   UNL     1      19.543   6.244  21.402  0.00  0.00    +0.204 A 
ENDROOT
BRANCH  19  20
ATOM      8  N   UNL     1      16.893   5.777  18.834  0.00  0.00    -0.221 NA
ATOM     20  C   UNL     1      18.326   6.436  20.667  0.00  0.00    +0.041 A 
ATOM     21  C   UNL     1      17.418   7.425  21.031  0.00  0.00    +0.018 A 
ATOM     22  C   UNL     1      18.020   5.646  19.571  0.00  0.00    +0.126 A 
ATOM     23  C   UNL     1      16.247   7.589  20.299  0.00  0.00    +0.068 A 
ATOM     24  C   UNL     1      16.034   6.748  19.219  0.00  0.00    +0.215 A 
BRANCH  24   3
ATOM      3  O   UNL     1      14.888   6.891  18.482  0.00  0.00    -0.474 OA
BRANCH   3  25
ATOM     25  C   UNL     1      13.899   7.773  19.001  0.00  0.00    +0.258 C 
BRANCH  25  26
ATOM     26  C   UNL     1      12.691   6.964  19.430  0.00  0.00    +0.200 C 
BRANCH  26   4
ATOM      4  O   UNL     1      11.529   7.780  19.333  0.00  0.00    -0.380 OA
ATOM     27  C   UNL     1      11.015   8.109  20.616  0.00  0.00    +0.194 C 
ENDBRANCH  26   4
ENDBRANCH  25  26
ENDBRANCH   3  25
ENDBRANCH  24   3
ENDBRANCH  19  20
BRANCH  18  10
ATOM      5  N   UNL     1      23.464   4.649  20.848  0.00  0.00    -0.288 NA
ATOM     10  C   UNL     1      23.046   5.693  21.806  0.00  0.00    +0.146 C 
ATOM     11  C   UNL     1      24.826   4.987  20.438  0.00  0.00    +0.085 C 
ATOM     12  C   UNL     1      23.848   6.941  21.397  0.00  0.00    +0.030 C 
ATOM     13  C   UNL     1      24.733   6.486  20.245  0.00  0.00    +0.017 C 
BRANCH   5   9
ATOM      1  O   UNL     1      24.679   1.043  22.623  0.00  0.00    -0.380 OA
ATOM      9  C   UNL     1      23.374   3.297  21.396  0.00  0.00    +0.062 C 
ATOM     14  C   UNL     1      23.757   3.277  22.879  0.00  0.00    +0.047 C 
ATOM     15  C   UNL     1      24.277   2.343  20.609  0.00  0.00    +0.047 C 
ATOM     16  C   UNL     1      23.788   1.845  23.399  0.00  0.00    +0.161 C 
ATOM     17  C   UNL     1      24.278   0.962  21.255  0.00  0.00    +0.161 C 
ENDBRANCH   5   9
ENDBRANCH  18  10
TORSDOF 7
ENDMDL
MODEL 5
REMARK VINA RESULT:      -6.2     26.820     29.622
REMARK  Name = 45783563
REMARK  8 active torsions:
REMARK  status: ('A' for Active; 'I' for Inactive)
REMARK    1  A    between atoms: O_3  and  C_24
REMARK    2  A    between atoms: O_3  and  C_25
REMARK    3  A    between atoms: O_4  and  C_26
REMARK    4  A    between atoms: O_4  and  C_27
REMARK    5  A    between atoms: N_5  and  C_9
REMARK    6  A    between atoms: C_10  and  C_18
REMARK    7  A    between atoms: C_19  and  C_20
REMARK    8  A    between atoms: C_25  and  C_26
REMARK                            x       y       z     vdW  Elec       q    Type
REMARK                         _______ _______ _______ _____ _____    ______ ____
ROOT
ATOM      2  O   UNL     1      -2.352 -10.591  14.577  0.00  0.00    -0.336 OA
ATOM      6  N   UNL     1      -4.582 -10.739  14.438  0.00  0.00    -0.190 NA
ATOM      7  N   UNL     1      -2.824 -10.580  15.894  0.00  0.00    -0.056 NA
ATOM     18  C   UNL     1      -3.451 -10.685  13.783  0.00  0.00    +0.245 A 
ATOM     19  C   UNL     1      -4.148 -10.671  15.730  0.00  0.00    +0.204 A 
ENDROOT
BRANCH  19  20
ATOM      8  N   UNL     1      -7.263 -10.197  17.706  0.00  0.00    -0.221 NA
ATOM     20  C   UNL     1      -5.062 -10.693  16.835  0.00  0.00    +0.041 A 
ATOM     21  C   UNL     1      -4.679 -11.202  18.071  0.00  0.00    +0.018 A 
ATOM     22  C   UNL     1      -6.353 -10.207  16.705  0.00  0.00    +0.126 A 
ATOM     23  C   UNL     1      -5.588 -11.211  19.124  0.00  0.00    +0.068 A 
ATOM     24  C   UNL     1      -6.855 -10.700  18.893  0.00  0.00    +0.215 A 
BRANCH  24   3
ATOM      3  O   UNL     1      -7.767 -10.697  19.915  0.00  0.00    -0.474 OA
BRANCH   3  25
ATOM     25  C   UNL     1      -8.968 -11.430  19.704  0.00  0.00    +0.258 C 
BRANCH  25  26
ATOM     26  C   UNL     1     -10.152 -10.554  20.061  0.00  0.00    +0.200 C 
BRANCH  26   4
ATOM      4  O   UNL     1     -10.713 -10.024  18.865  0.00  0.00    -0.380 OA
ATOM     27  C   UNL     1     -10.723 -10.990  17.823  0.00  0.00    +0.194 C 
ENDBRANCH  26   4
ENDBRANCH  25  26
ENDBRANCH   3  25
ENDBRANCH  24   3
ENDBRANCH  19  20
BRANCH  18  10
ATOM      5  N   UNL     1      -3.975  -9.687  11.565  0.00  0.00    -0.288 NA
ATOM     10  C   UNL     1      -3.203 -10.717  12.289  0.00  0.00    +0.146 C 
ATOM     11  C   UNL     1      -3.190  -9.339  10.380  0.00  0.00    +0.085 C 
ATOM     12  C   UNL     1      -1.735 -10.433  11.924  0.00  0.00    +0.030 C 
ATOM     13  C   UNL     1      -1.786  -9.269  10.944  0.00  0.00    +0.017 C 
BRANCH   5   9
ATOM      1  O   UNL     1      -7.764  -9.660   9.754  0.00  0.00    -0.380 OA
ATOM      9  C   UNL     1      -5.328 -10.118  11.220  0.00  0.00    +0.062 C 
ATOM     14  C   UNL     1      -5.451 -10.405   9.721  0.00  0.00    +0.047 C 
ATOM     15  C   UNL     1      -6.348  -9.053  11.634  0.00  0.00    +0.047 C 
ATOM     16  C   UNL     1      -6.896 -10.723   9.357  0.00  0.00    +0.161 C 
ATOM     17  C   UNL     1      -7.744  -9.446  11.165  0.00  0.00    +0.161 C 
ENDBRANCH   5   9
ENDBRANCH  18  10
TORSDOF 7
ENDMDL
MODEL 6
REMARK VINA RESULT:      -5.9      1.908      9.696
REMARK  Name = 45783563
REMARK  8 active torsions:
REMARK  status: ('A' for Active; 'I' for Inactive)
REMARK    1  A    between atoms: O_3  and  C_24
REMARK    2  A    between atoms: O_3  and  C_25
REMARK    3  A    between atoms: O_4  and  C_26
REMARK    4  A    between atoms: O_4  and  C_27
REMARK    5  A    between atoms: N_5  and  C_9
REMARK    6  A    between atoms: C_10  and  C_18
REMARK    7  A    between atoms: C_19  and  C_20
REMARK    8  A    between atoms: C_25  and  C_26
REMARK                            x       y       z     vdW  Elec       q    Type
REMARK                         _______ _______ _______ _____ _____    ______ ____
ROOT
ATOM      2  O   UNL     1      21.934   7.011  21.197  0.00  0.00    -0.336 OA
ATOM      6  N   UNL     1      20.640   5.200  20.950  0.00  0.00    -0.190 NA
ATOM      7  N   UNL     1      20.658   7.486  20.872  0.00  0.00    -0.056 NA
ATOM     18  C   UNL     1      21.837   5.656  21.221  0.00  0.00    +0.245 A 
ATOM     19  C   UNL     1      19.952   6.359  20.743  0.00  0.00    +0.204 A 
ENDROOT
BRANCH  19  20
ATOM      8  N   UNL     1      16.809   5.754  18.848  0.00  0.00    -0.221 NA
ATOM     20  C   UNL     1      18.557   6.357  20.406  0.00  0.00    +0.041 A 
ATOM     21  C   UNL     1      17.615   6.929  21.254  0.00  0.00    +0.018 A 
ATOM     22  C   UNL     1      18.108   5.788  19.226  0.00  0.00    +0.126 A 
ATOM     23  C   UNL     1      16.270   6.913  20.900  0.00  0.00    +0.068 A 
ATOM     24  C   UNL     1      15.922   6.320  19.697  0.00  0.00    +0.215 A 
BRANCH  24   3
ATOM      3  O   UNL     1      14.604   6.292  19.326  0.00  0.00    -0.474 OA
BRANCH   3  25
ATOM     25  C   UNL     1      13.809   7.409  19.707  0.00  0.00    +0.258 C 
BRANCH  25  26
ATOM     26  C   UNL     1      12.431   6.923  20.111  0.00  0.00    +0.200 C 
BRANCH  26   4
ATOM      4  O   UNL     1      11.448   7.741  19.485  0.00  0.00    -0.380 OA
ATOM     27  C   UNL     1      10.924   8.705  20.388  0.00  0.00    +0.194 C 
ENDBRANCH  26   4
ENDBRANCH  25  26
ENDBRANCH   3  25
ENDBRANCH  24   3
ENDBRANCH  19  20
BRANCH  18  10
ATOM      5  N   UNL     1      22.840   3.487  21.917  0.00  0.00    -0.288 NA
ATOM     10  C   UNL     1      23.104   4.894  21.554  0.00  0.00    +0.146 C 
ATOM     11  C   UNL     1      24.029   2.730  21.527  0.00  0.00    +0.085 C 
ATOM     12  C   UNL     1      24.078   4.814  20.365  0.00  0.00    +0.030 C 
ATOM     13  C   UNL     1      24.352   3.329  20.174  0.00  0.00    +0.017 C 
BRANCH   5   9
ATOM      1  O   UNL     1      23.411   2.859  26.029  0.00  0.00    -0.380 OA
ATOM      9  C   UNL     1      22.514   3.310  23.331  0.00  0.00    +0.062 C 
ATOM     14  C   UNL     1      23.141   4.417  24.184  0.00  0.00    +0.047 C 
ATOM     15  C   UNL     1      22.991   1.939  23.819  0.00  0.00    +0.047 C 
ATOM     16  C   UNL     1      22.905   4.144  25.664  0.00  0.00    +0.161 C 
ATOM     17  C   UNL     1      22.763   1.803  25.320  0.00  0.00    +0.161 C 
ENDBRANCH   5   9
ENDBRANCH  18  10
TORSDOF 7
ENDMDL
MODEL 7
REMARK VINA RESULT:      -5.9     28.783     32.851
REMARK  Name = 45783563
REMARK  8 active torsions:
REMARK  status: ('A' for Active; 'I' for Inactive)
REMARK    1  A    between atoms: O_3  and  C_24
REMARK    2  A    between atoms: O_3  and  C_25
REMARK    3  A    between atoms: O_4  and  C_26
REMARK    4  A    between atoms: O_4  and  C_27
REMARK    5  A    between atoms: N_5  and  C_9
REMARK    6  A    between atoms: C_10  and  C_18
REMARK    7  A    between atoms: C_19  and  C_20
REMARK    8  A    between atoms: C_25  and  C_26
REMARK                            x       y       z     vdW  Elec       q    Type
REMARK                         _______ _______ _______ _____ _____    ______ ____
ROOT
ATOM      2  O   UNL     1     -16.996   1.822  25.110  0.00  0.00    -0.336 OA
ATOM      6  N   UNL     1     -16.191   3.861  25.565  0.00  0.00    -0.190 NA
ATOM      7  N   UNL     1     -16.445   2.298  23.915  0.00  0.00    -0.056 NA
ATOM     18  C   UNL     1     -16.806   2.803  26.030  0.00  0.00    +0.245 A 
ATOM     19  C   UNL     1     -15.990   3.505  24.264  0.00  0.00    +0.204 A 
ENDROOT
BRANCH  19  20
ATOM      8  N   UNL     1     -13.289   5.420  22.569  0.00  0.00    -0.221 NA
ATOM     20  C   UNL     1     -15.333   4.380  23.336  0.00  0.00    +0.041 A 
ATOM     21  C   UNL     1     -16.048   5.030  22.335  0.00  0.00    +0.018 A 
ATOM     22  C   UNL     1     -13.968   4.607  23.410  0.00  0.00    +0.126 A 
ATOM     23  C   UNL     1     -15.384   5.873  21.451  0.00  0.00    +0.068 A 
ATOM     24  C   UNL     1     -14.017   6.034  21.609  0.00  0.00    +0.215 A 
BRANCH  24   3
ATOM      3  O   UNL     1     -13.341   6.860  20.751  0.00  0.00    -0.474 OA
BRANCH   3  25
ATOM     25  C   UNL     1     -11.923   6.884  20.869  0.00  0.00    +0.258 C 
BRANCH  25  26
ATOM     26  C   UNL     1     -11.356   7.837  19.835  0.00  0.00    +0.200 C 
BRANCH  26   4
ATOM      4  O   UNL     1     -11.534   7.274  18.540  0.00  0.00    -0.380 OA
ATOM     27  C   UNL     1     -11.514   8.274  17.531  0.00  0.00    +0.194 C 
ENDBRANCH  26   4
ENDBRANCH  25  26
ENDBRANCH   3  25
ENDBRANCH  24   3
ENDBRANCH  19  20
BRANCH  18  10
ATOM      5  N   UNL     1     -16.563   3.256  28.465  0.00  0.00    -0.288 NA
ATOM     10  C   UNL     1     -17.321   2.528  27.428  0.00  0.00    +0.146 C 
ATOM     11  C   UNL     1     -17.495   3.496  29.566  0.00  0.00    +0.085 C 
ATOM     12  C   UNL     1     -18.780   2.978  27.622  0.00  0.00    +0.030 C 
ATOM     13  C   UNL     1     -18.753   3.906  28.828  0.00  0.00    +0.017 C 
BRANCH   5   9
ATOM      1  O   UNL     1     -13.942   1.171  30.998  0.00  0.00    -0.380 OA
ATOM      9  C   UNL     1     -15.364   2.546  28.906  0.00  0.00    +0.062 C 
ATOM     14  C   UNL     1     -15.694   1.107  29.315  0.00  0.00    +0.047 C 
ATOM     15  C   UNL     1     -14.707   3.285  30.075  0.00  0.00    +0.047 C 
ATOM     16  C   UNL     1     -14.461   0.425  29.896  0.00  0.00    +0.161 C 
ATOM     17  C   UNL     1     -13.529   2.482  30.614  0.00  0.00    +0.161 C 
ENDBRANCH   5   9
ENDBRANCH  18  10
TORSDOF 7
ENDMDL
MODEL 8
REMARK VINA RESULT:      -5.9     27.086     31.332
REMARK  Name = 45783563
REMARK  8 active torsions:
REMARK  status: ('A' for Active; 'I' for Inactive)
REMARK    1  A    between atoms: O_3  and  C_24
REMARK    2  A    between atoms: O_3  and  C_25
REMARK    3  A    between atoms: O_4  and  C_26
REMARK    4  A    between atoms: O_4  and  C_27
REMARK    5  A    between atoms: N_5  and  C_9
REMARK    6  A    between atoms: C_10  and  C_18
REMARK    7  A    between atoms: C_19  and  C_20
REMARK    8  A    between atoms: C_25  and  C_26
REMARK                            x       y       z     vdW  Elec       q    Type
REMARK                         _______ _______ _______ _____ _____    ______ ____
ROOT
ATOM      2  O   UNL     1      -7.731 -11.543  15.081  0.00  0.00    -0.336 OA
ATOM      6  N   UNL     1      -8.038  -9.945  16.620  0.00  0.00    -0.190 NA
ATOM      7  N   UNL     1      -8.752 -10.721  14.590  0.00  0.00    -0.056 NA
ATOM     18  C   UNL     1      -7.368 -11.016  16.280  0.00  0.00    +0.245 A 
ATOM     19  C   UNL     1      -8.876  -9.803  15.553  0.00  0.00    +0.204 A 
ENDROOT
BRANCH  19  20
ATOM      8  N   UNL     1     -11.706  -7.709  14.349  0.00  0.00    -0.221 NA
ATOM     20  C   UNL     1      -9.828  -8.732  15.480  0.00  0.00    +0.041 A 
ATOM     21  C   UNL     1      -9.820  -7.701  16.414  0.00  0.00    +0.018 A 
ATOM     22  C   UNL     1     -10.782  -8.690  14.476  0.00  0.00    +0.126 A 
ATOM     23  C   UNL     1     -10.754  -6.676  16.317  0.00  0.00    +0.068 A 
ATOM     24  C   UNL     1     -11.667  -6.725  15.276  0.00  0.00    +0.215 A 
BRANCH  24   3
ATOM      3  O   UNL     1     -12.597  -5.726  15.159  0.00  0.00    -0.474 OA
BRANCH   3  25
ATOM     25  C   UNL     1     -13.212  -5.569  13.886  0.00  0.00    +0.258 C 
BRANCH  25  26
ATOM     26  C   UNL     1     -12.479  -4.491  13.111  0.00  0.00    +0.200 C 
BRANCH  26   4
ATOM      4  O   UNL     1     -13.290  -3.322  13.065  0.00  0.00    -0.380 OA
ATOM     27  C   UNL     1     -14.656  -3.644  12.842  0.00  0.00    +0.194 C 
ENDBRANCH  26   4
ENDBRANCH  25  26
ENDBRANCH   3  25
ENDBRANCH  24   3
ENDBRANCH  19  20
BRANCH  18  10
ATOM      5  N   UNL     1      -5.020 -10.938  17.102  0.00  0.00    -0.288 NA
ATOM     10  C   UNL     1      -6.262 -11.735  17.025  0.00  0.00    +0.146 C 
ATOM     11  C   UNL     1      -4.348 -11.340  18.337  0.00  0.00    +0.085 C 
ATOM     12  C   UNL     1      -6.628 -12.030  18.490  0.00  0.00    +0.030 C 
ATOM     13  C   UNL     1      -5.504 -11.416  19.313  0.00  0.00    +0.017 C 
BRANCH   5   9
ATOM      1  O   UNL     1      -1.844 -12.304  14.720  0.00  0.00    -0.380 OA
ATOM      9  C   UNL     1      -4.161 -11.097  15.931  0.00  0.00    +0.062 C 
ATOM     14  C   UNL     1      -4.149 -12.552  15.450  0.00  0.00    +0.047 C 
ATOM     15  C   UNL     1      -2.735 -10.641  16.251  0.00  0.00    +0.047 C 
ATOM     16  C   UNL     1      -3.147 -12.727  14.315  0.00  0.00    +0.161 C 
ATOM     17  C   UNL     1      -1.811 -10.922  15.072  0.00  0.00    +0.161 C 
ENDBRANCH   5   9
ENDBRANCH  18  10
TORSDOF 7
ENDMDL
MODEL 9
REMARK VINA RESULT:      -5.8     27.792     30.462
REMARK  Name = 45783563
REMARK  8 active torsions:
REMARK  status: ('A' for Active; 'I' for Inactive)
REMARK    1  A    between atoms: O_3  and  C_24
REMARK    2  A    between atoms: O_3  and  C_25
REMARK    3  A    between atoms: O_4  and  C_26
REMARK    4  A    between atoms: O_4  and  C_27
REMARK    5  A    between atoms: N_5  and  C_9
REMARK    6  A    between atoms: C_10  and  C_18
REMARK    7  A    between atoms: C_19  and  C_20
REMARK    8  A    between atoms: C_25  and  C_26
REMARK                            x       y       z     vdW  Elec       q    Type
REMARK                         _______ _______ _______ _____ _____    ______ ____
ROOT
ATOM      2  O   UNL     1     -11.646   9.868  19.675  0.00  0.00    -0.336 OA
ATOM      6  N   UNL     1     -11.952   7.765  18.968  0.00  0.00    -0.190 NA
ATOM      7  N   UNL     1     -12.391   9.228  20.671  0.00  0.00    -0.056 NA
ATOM     18  C   UNL     1     -11.431   8.938  18.708  0.00  0.00    +0.245 A 
ATOM     19  C   UNL     1     -12.531   7.992  20.182  0.00  0.00    +0.204 A 
ENDROOT
BRANCH  19  20
ATOM      8  N   UNL     1     -15.361   5.965  21.493  0.00  0.00    -0.221 NA
ATOM     20  C   UNL     1     -13.244   6.962  20.880  0.00  0.00    +0.041 A 
ATOM     21  C   UNL     1     -12.567   5.987  21.606  0.00  0.00    +0.018 A 
ATOM     22  C   UNL     1     -14.628   6.907  20.856  0.00  0.00    +0.126 A 
ATOM     23  C   UNL     1     -13.285   5.001  22.274  0.00  0.00    +0.068 A 
ATOM     24  C   UNL     1     -14.668   5.035  22.188  0.00  0.00    +0.215 A 
BRANCH  24   3
ATOM      3  O   UNL     1     -15.397   4.074  22.838  0.00  0.00    -0.474 OA
BRANCH   3  25
ATOM     25  C   UNL     1     -15.953   4.436  24.097  0.00  0.00    +0.258 C 
BRANCH  25  26
ATOM     26  C   UNL     1     -15.703   3.316  25.088  0.00  0.00    +0.200 C 
BRANCH  26   4
ATOM      4  O   UNL     1     -16.169   2.092  24.532  0.00  0.00    -0.380 OA
ATOM     27  C   UNL     1     -17.468   1.766  25.006  0.00  0.00    +0.194 C 
ENDBRANCH  26   4
ENDBRANCH  25  26
ENDBRANCH   3  25
ENDBRANCH  24   3
ENDBRANCH  19  20
BRANCH  18  10
ATOM      5  N   UNL     1     -11.495   9.761  16.361  0.00  0.00    -0.288 NA
ATOM     10  C   UNL     1     -10.634   9.389  17.502  0.00  0.00    +0.146 C 
ATOM     11  C   UNL     1     -10.763  10.779  15.606  0.00  0.00    +0.085 C 
ATOM     12  C   UNL     1      -9.793  10.647  17.783  0.00  0.00    +0.030 C 
ATOM     13  C   UNL     1     -10.204  11.648  16.713  0.00  0.00    +0.017 C 
BRANCH   5   9
ATOM      1  O   UNL     1     -12.757   7.618  12.978  0.00  0.00    -0.380 OA
ATOM      9  C   UNL     1     -11.869   8.621  15.527  0.00  0.00    +0.062 C 
ATOM     14  C   UNL     1     -10.930   8.487  14.324  0.00  0.00    +0.047 C 
ATOM     15  C   UNL     1     -13.316   8.765  15.047  0.00  0.00    +0.047 C 
ATOM     16  C   UNL     1     -11.412   7.379  13.395  0.00  0.00    +0.161 C 
ATOM     17  C   UNL     1     -13.667   7.641  14.078  0.00  0.00    +0.161 C 
ENDBRANCH   5   9
ENDBRANCH  18  10
TORSDOF 7
ENDMDL
MODEL 10
REMARK VINA RESULT:      -5.8     30.509     32.369
REMARK  Name = 45783563
REMARK  8 active torsions:
REMARK  status: ('A' for Active; 'I' for Inactive)
REMARK    1  A    between atoms: O_3  and  C_24
REMARK    2  A    between atoms: O_3  and  C_25
REMARK    3  A    between atoms: O_4  and  C_26
REMARK    4  A    between atoms: O_4  and  C_27
REMARK    5  A    between atoms: N_5  and  C_9
REMARK    6  A    between atoms: C_10  and  C_18
REMARK    7  A    between atoms: C_19  and  C_20
REMARK    8  A    between atoms: C_25  and  C_26
REMARK                            x       y       z     vdW  Elec       q    Type
REMARK                         _______ _______ _______ _____ _____    ______ ____
ROOT
ATOM      2  O   UNL     1     -14.390  -5.807  14.072  0.00  0.00    -0.336 OA
ATOM      6  N   UNL     1     -12.189  -5.613  14.436  0.00  0.00    -0.190 NA
ATOM      7  N   UNL     1     -14.064  -6.790  15.013  0.00  0.00    -0.056 NA
ATOM     18  C   UNL     1     -13.230  -5.160  13.785  0.00  0.00    +0.245 A 
ATOM     19  C   UNL     1     -12.749  -6.613  15.176  0.00  0.00    +0.204 A 
ENDROOT
BRANCH  19  20
ATOM      8  N   UNL     1     -11.847  -9.290  17.596  0.00  0.00    -0.221 NA
ATOM     20  C   UNL     1     -11.967  -7.418  16.069  0.00  0.00    +0.041 A 
ATOM     21  C   UNL     1     -10.622  -7.141  16.291  0.00  0.00    +0.018 A 
ATOM     22  C   UNL     1     -12.527  -8.493  16.740  0.00  0.00    +0.126 A 
ATOM     23  C   UNL     1      -9.889  -7.938  17.163  0.00  0.00    +0.068 A 
ATOM     24  C   UNL     1     -10.542  -8.990  17.786  0.00  0.00    +0.215 A 
BRANCH  24   3
ATOM      3  O   UNL     1      -9.841  -9.789  18.650  0.00  0.00    -0.474 OA
BRANCH   3  25
ATOM     25  C   UNL     1      -8.894 -10.681  18.072  0.00  0.00    +0.258 C 
BRANCH  25  26
ATOM     26  C   UNL     1      -7.552 -10.485  18.748  0.00  0.00    +0.200 C 
BRANCH  26   4
ATOM      4  O   UNL     1      -7.553 -11.180  19.991  0.00  0.00    -0.380 OA
ATOM     27  C   UNL     1      -7.889 -12.550  19.820  0.00  0.00    +0.194 C 
ENDBRANCH  26   4
ENDBRANCH  25  26
ENDBRANCH   3  25
ENDBRANCH  24   3
ENDBRANCH  19  20
BRANCH  18  10
ATOM      5  N   UNL     1     -13.413  -4.522  11.386  0.00  0.00    -0.288 NA
ATOM     10  C   UNL     1     -13.317  -4.033  12.776  0.00  0.00    +0.146 C 
ATOM     11  C   UNL     1     -14.167  -3.512  10.644  0.00  0.00    +0.085 C 
ATOM     12  C   UNL     1     -14.569  -3.159  12.970  0.00  0.00    +0.030 C 
ATOM     13  C   UNL     1     -15.272  -3.165  11.621  0.00  0.00    +0.017 C 
BRANCH   5   9
ATOM      1  O   UNL     1     -10.546  -5.265   8.410  0.00  0.00    -0.380 OA
ATOM      9  C   UNL     1     -12.112  -4.793  10.780  0.00  0.00    +0.062 C 
ATOM     14  C   UNL     1     -11.703  -3.665   9.827  0.00  0.00    +0.047 C 
ATOM     15  C   UNL     1     -12.140  -6.127  10.030  0.00  0.00    +0.047 C 
ATOM     16  C   UNL     1     -10.410  -4.024   9.104  0.00  0.00    +0.161 C 
ATOM     17  C   UNL     1     -10.823  -6.350   9.295  0.00  0.00    +0.161 C 
ENDBRANCH   5   9
ENDBRANCH  18  10
TORSDOF 7
ENDMDL
