MODEL 1
REMARK VINA RESULT:      -6.1      0.000      0.000
REMARK  Name = 75536674
REMARK  8 active torsions:
REMARK  status: ('A' for Active; 'I' for Inactive)
REMARK    1  A    between atoms: S_1  and  N_7
REMARK    2  A    between atoms: S_1  and  C_15
REMARK    3  A    between atoms: O_3  and  C_9
REMARK    4  A    between atoms: N_6  and  C_8
REMARK    5  A    between atoms: N_6  and  C_13
REMARK    6  A    between atoms: N_6  and  C_14
REMARK    7  A    between atoms: N_7  and  C_12
REMARK    8  A    between atoms: C_10  and  C_12
REMARK                            x       y       z     vdW  Elec       q    Type
REMARK                         _______ _______ _______ _____ _____    ______ ____
ROOT
ATOM      7  N   UNL     1      11.460   9.601  21.063  0.00  0.00    -0.187 NA
ATOM     22  H   UNL     1      11.344  10.501  20.579  0.00  0.00    +0.148 HD
ENDROOT
BRANCH   7   1
ATOM      1  S   UNL     1      11.191   8.169  20.184  0.00  0.00    +0.058 S 
ATOM      4  O   UNL     1      10.522   8.490  18.937  0.00  0.00    -0.153 OA
ATOM      5  O   UNL     1      10.634   7.167  21.073  0.00  0.00    -0.153 OA
BRANCH   1  15
ATOM     15  C   UNL     1      12.841   7.663  19.802  0.00  0.00    +0.105 A 
ATOM     16  C   UNL     1      13.374   7.923  18.540  0.00  0.00    +0.028 A 
ATOM     17  C   UNL     1      13.607   6.999  20.760  0.00  0.00    +0.028 A 
ATOM     18  C   UNL     1      14.675   7.519  18.236  0.00  0.00    +0.002 A 
ATOM     19  C   UNL     1      14.906   6.596  20.456  0.00  0.00    +0.002 A 
ATOM     20  C   UNL     1      15.441   6.856  19.194  0.00  0.00    +0.000 A 
ENDBRANCH   1  15
ENDBRANCH   7   1
BRANCH   7  12
ATOM     12  C   UNL     1      11.241   9.626  22.522  0.00  0.00    +0.140 C 
BRANCH  12  10
ATOM      2  O   UNL     1      11.722  11.955  22.090  0.00  0.00    -0.371 OA
ATOM      8  C   UNL     1      11.256  12.933  24.204  0.00  0.00    +0.113 C 
ATOM      9  C   UNL     1      10.947  11.449  24.267  0.00  0.00    +0.164 C 
ATOM     10  C   UNL     1      11.769  10.929  23.095  0.00  0.00    +0.164 C 
ATOM     11  C   UNL     1      11.268  13.175  22.703  0.00  0.00    +0.181 C 
BRANCH   8   6
ATOM      6  N   UNL     1      10.286  13.760  24.902  0.00  0.00    -0.301 NA
ATOM     13  C   UNL     1      10.879  14.354  26.105  0.00  0.00    +0.105 C 
ATOM     14  C   UNL     1       9.771  14.814  24.023  0.00  0.00    +0.105 C 
ENDBRANCH   8   6
BRANCH   9   3
ATOM      3  O   UNL     1      11.343  10.860  25.490  0.00  0.00    -0.388 OA
ATOM     21  H   UNL     1      11.115   9.916  25.463  0.00  0.00    +0.210 HD
ENDBRANCH   9   3
ENDBRANCH  12  10
ENDBRANCH   7  12
TORSDOF 6
ENDMDL
MODEL 2
REMARK VINA RESULT:      -5.9      4.377      7.120
REMARK  Name = 75536674
REMARK  8 active torsions:
REMARK  status: ('A' for Active; 'I' for Inactive)
REMARK    1  A    between atoms: S_1  and  N_7
REMARK    2  A    between atoms: S_1  and  C_15
REMARK    3  A    between atoms: O_3  and  C_9
REMARK    4  A    between atoms: N_6  and  C_8
REMARK    5  A    between atoms: N_6  and  C_13
REMARK    6  A    between atoms: N_6  and  C_14
REMARK    7  A    between atoms: N_7  and  C_12
REMARK    8  A    between atoms: C_10  and  C_12
REMARK                            x       y       z     vdW  Elec       q    Type
REMARK                         _______ _______ _______ _____ _____    ______ ____
ROOT
ATOM      7  N   UNL     1      14.836   7.937  19.138  0.00  0.00    -0.187 NA
ATOM     22  H   UNL     1      15.090   8.303  20.064  0.00  0.00    +0.148 HD
ENDROOT
BRANCH   7   1
ATOM      1  S   UNL     1      13.302   8.317  18.510  0.00  0.00    +0.058 S 
ATOM      4  O   UNL     1      12.957   7.362  17.474  0.00  0.00    -0.153 OA
ATOM      5  O   UNL     1      13.242   9.740  18.238  0.00  0.00    -0.153 OA
BRANCH   1  15
ATOM     15  C   UNL     1      12.255   8.011  19.901  0.00  0.00    +0.105 A 
ATOM     16  C   UNL     1      12.197   6.736  20.463  0.00  0.00    +0.028 A 
ATOM     17  C   UNL     1      11.483   9.044  20.434  0.00  0.00    +0.028 A 
ATOM     18  C   UNL     1      11.367   6.494  21.558  0.00  0.00    +0.002 A 
ATOM     19  C   UNL     1      10.654   8.801  21.529  0.00  0.00    +0.002 A 
ATOM     20  C   UNL     1      10.596   7.526  22.091  0.00  0.00    +0.000 A 
ENDBRANCH   1  15
ENDBRANCH   7   1
BRANCH   7  12
ATOM     12  C   UNL     1      15.511   6.687  18.736  0.00  0.00    +0.140 C 
BRANCH  12  10
ATOM      2  O   UNL     1      17.722   5.874  19.281  0.00  0.00    -0.371 OA
ATOM      8  C   UNL     1      18.079   6.869  21.408  0.00  0.00    +0.113 C 
ATOM      9  C   UNL     1      16.736   7.324  20.869  0.00  0.00    +0.164 C 
ATOM     10  C   UNL     1      16.449   6.237  19.841  0.00  0.00    +0.164 C 
ATOM     11  C   UNL     1      18.760   6.374  20.142  0.00  0.00    +0.181 C 
BRANCH   8   6
ATOM      6  N   UNL     1      18.825   7.922  22.077  0.00  0.00    -0.301 NA
ATOM     13  C   UNL     1      20.265   7.644  22.038  0.00  0.00    +0.105 C 
ATOM     14  C   UNL     1      18.547   9.225  21.468  0.00  0.00    +0.105 C 
ENDBRANCH   8   6
BRANCH   9   3
ATOM      3  O   UNL     1      15.736   7.381  21.868  0.00  0.00    -0.388 OA
ATOM     21  H   UNL     1      15.048   8.002  21.576  0.00  0.00    +0.210 HD
ENDBRANCH   9   3
ENDBRANCH  12  10
ENDBRANCH   7  12
TORSDOF 6
ENDMDL
MODEL 3
REMARK VINA RESULT:      -5.9      2.260      6.855
REMARK  Name = 75536674
REMARK  8 active torsions:
REMARK  status: ('A' for Active; 'I' for Inactive)
REMARK    1  A    between atoms: S_1  and  N_7
REMARK    2  A    between atoms: S_1  and  C_15
REMARK    3  A    between atoms: O_3  and  C_9
REMARK    4  A    between atoms: N_6  and  C_8
REMARK    5  A    between atoms: N_6  and  C_13
REMARK    6  A    between atoms: N_6  and  C_14
REMARK    7  A    between atoms: N_7  and  C_12
REMARK    8  A    between atoms: C_10  and  C_12
REMARK                            x       y       z     vdW  Elec       q    Type
REMARK                         _______ _______ _______ _____ _____    ______ ____
ROOT
ATOM      7  N   UNL     1      11.264   9.947  21.767  0.00  0.00    -0.187 NA
ATOM     22  H   UNL     1      11.786   9.973  20.882  0.00  0.00    +0.148 HD
ENDROOT
BRANCH   7   1
ATOM      1  S   UNL     1      11.526  11.190  22.899  0.00  0.00    +0.058 S 
ATOM      4  O   UNL     1      12.898  11.131  23.367  0.00  0.00    -0.153 OA
ATOM      5  O   UNL     1      10.431  11.201  23.850  0.00  0.00    -0.153 OA
BRANCH   1  15
ATOM     15  C   UNL     1      11.355  12.635  21.896  0.00  0.00    +0.105 A 
ATOM     16  C   UNL     1      10.364  13.572  22.187  0.00  0.00    +0.028 A 
ATOM     17  C   UNL     1      12.208  12.837  20.811  0.00  0.00    +0.028 A 
ATOM     18  C   UNL     1      10.225  14.710  21.393  0.00  0.00    +0.002 A 
ATOM     19  C   UNL     1      12.070  13.975  20.017  0.00  0.00    +0.002 A 
ATOM     20  C   UNL     1      11.078  14.913  20.308  0.00  0.00    +0.000 A 
ENDBRANCH   1  15
ENDBRANCH   7   1
BRANCH   7  12
ATOM     12  C   UNL     1      10.845   8.607  22.224  0.00  0.00    +0.140 C 
BRANCH  12  10
ATOM      2  O   UNL     1      11.367   6.856  20.640  0.00  0.00    -0.371 OA
ATOM      8  C   UNL     1      13.718   7.112  20.412  0.00  0.00    +0.113 C 
ATOM      9  C   UNL     1      13.191   8.188  21.343  0.00  0.00    +0.164 C 
ATOM     10  C   UNL     1      11.867   7.575  21.780  0.00  0.00    +0.164 C 
ATOM     11  C   UNL     1      12.445   6.678  19.703  0.00  0.00    +0.181 C 
BRANCH   8   6
ATOM      6  N   UNL     1      14.741   7.585  19.494  0.00  0.00    -0.301 NA
ATOM     13  C   UNL     1      15.851   6.629  19.415  0.00  0.00    +0.105 C 
ATOM     14  C   UNL     1      14.179   7.816  18.160  0.00  0.00    +0.105 C 
ENDBRANCH   8   6
BRANCH   9   3
ATOM      3  O   UNL     1      14.049   8.427  22.442  0.00  0.00    -0.388 OA
ATOM     21  H   UNL     1      14.660   7.676  22.521  0.00  0.00    +0.210 HD
ENDBRANCH   9   3
ENDBRANCH  12  10
ENDBRANCH   7  12
TORSDOF 6
ENDMDL
MODEL 4
REMARK VINA RESULT:      -5.7     25.099     26.308
REMARK  Name = 75536674
REMARK  8 active torsions:
REMARK  status: ('A' for Active; 'I' for Inactive)
REMARK    1  A    between atoms: S_1  and  N_7
REMARK    2  A    between atoms: S_1  and  C_15
REMARK    3  A    between atoms: O_3  and  C_9
REMARK    4  A    between atoms: N_6  and  C_8
REMARK    5  A    between atoms: N_6  and  C_13
REMARK    6  A    between atoms: N_6  and  C_14
REMARK    7  A    between atoms: N_7  and  C_12
REMARK    8  A    between atoms: C_10  and  C_12
REMARK                            x       y       z     vdW  Elec       q    Type
REMARK                         _______ _______ _______ _____ _____    ______ ____
ROOT
ATOM      7  N   UNL     1     -13.850   7.164  20.174  0.00  0.00    -0.187 NA
ATOM     22  H   UNL     1     -13.812   6.441  19.444  0.00  0.00    +0.148 HD
ENDROOT
BRANCH   7   1
ATOM      1  S   UNL     1     -12.393   7.653  20.903  0.00  0.00    +0.058 S 
ATOM      4  O   UNL     1     -11.683   6.485  21.388  0.00  0.00    -0.153 OA
ATOM      5  O   UNL     1     -12.662   8.765  21.795  0.00  0.00    -0.153 OA
BRANCH   1  15
ATOM     15  C   UNL     1     -11.497   8.302  19.525  0.00  0.00    +0.105 A 
ATOM     16  C   UNL     1     -11.380   7.551  18.355  0.00  0.00    +0.028 A 
ATOM     17  C   UNL     1     -10.904   9.561  19.608  0.00  0.00    +0.028 A 
ATOM     18  C   UNL     1     -10.668   8.061  17.268  0.00  0.00    +0.002 A 
ATOM     19  C   UNL     1     -10.193  10.070  18.522  0.00  0.00    +0.002 A 
ATOM     20  C   UNL     1     -10.075   9.320  17.351  0.00  0.00    +0.000 A 
ENDBRANCH   1  15
ENDBRANCH   7   1
BRANCH   7  12
ATOM     12  C   UNL     1     -15.119   7.252  20.922  0.00  0.00    +0.140 C 
BRANCH  12  10
ATOM      2  O   UNL     1     -16.100   6.809  23.087  0.00  0.00    -0.371 OA
ATOM      8  C   UNL     1     -15.524   4.527  23.408  0.00  0.00    +0.113 C 
ATOM      9  C   UNL     1     -15.032   4.974  22.044  0.00  0.00    +0.164 C 
ATOM     10  C   UNL     1     -14.995   6.486  22.227  0.00  0.00    +0.164 C 
ATOM     11  C   UNL     1     -16.553   5.601  23.724  0.00  0.00    +0.181 C 
BRANCH   8   6
ATOM      6  N   UNL     1     -16.087   3.187  23.414  0.00  0.00    -0.301 NA
ATOM     13  C   UNL     1     -16.158   2.659  24.780  0.00  0.00    +0.105 C 
ATOM     14  C   UNL     1     -17.419   3.178  22.801  0.00  0.00    +0.105 C 
ENDBRANCH   8   6
BRANCH   9   3
ATOM      3  O   UNL     1     -13.758   4.451  21.724  0.00  0.00    -0.388 OA
ATOM     21  H   UNL     1     -13.194   5.182  21.424  0.00  0.00    +0.210 HD
ENDBRANCH   9   3
ENDBRANCH  12  10
ENDBRANCH   7  12
TORSDOF 6
ENDMDL
MODEL 5
REMARK VINA RESULT:      -5.6      1.981      2.812
REMARK  Name = 75536674
REMARK  8 active torsions:
REMARK  status: ('A' for Active; 'I' for Inactive)
REMARK    1  A    between atoms: S_1  and  N_7
REMARK    2  A    between atoms: S_1  and  C_15
REMARK    3  A    between atoms: O_3  and  C_9
REMARK    4  A    between atoms: N_6  and  C_8
REMARK    5  A    between atoms: N_6  and  C_13
REMARK    6  A    between atoms: N_6  and  C_14
REMARK    7  A    between atoms: N_7  and  C_12
REMARK    8  A    between atoms: C_10  and  C_12
REMARK                            x       y       z     vdW  Elec       q    Type
REMARK                         _______ _______ _______ _____ _____    ______ ____
ROOT
ATOM      7  N   UNL     1      10.863   8.561  21.259  0.00  0.00    -0.187 NA
ATOM     22  H   UNL     1      10.061   8.679  20.626  0.00  0.00    +0.148 HD
ENDROOT
BRANCH   7   1
ATOM      1  S   UNL     1      11.991   7.335  20.916  0.00  0.00    +0.058 S 
ATOM      4  O   UNL     1      11.297   6.066  20.792  0.00  0.00    -0.153 OA
ATOM      5  O   UNL     1      13.118   7.464  21.819  0.00  0.00    -0.153 OA
BRANCH   1  15
ATOM     15  C   UNL     1      12.559   7.803  19.309  0.00  0.00    +0.105 A 
ATOM     16  C   UNL     1      11.765   8.614  18.498  0.00  0.00    +0.028 A 
ATOM     17  C   UNL     1      13.798   7.358  18.849  0.00  0.00    +0.028 A 
ATOM     18  C   UNL     1      12.211   8.980  17.228  0.00  0.00    +0.002 A 
ATOM     19  C   UNL     1      14.244   7.724  17.580  0.00  0.00    +0.002 A 
ATOM     20  C   UNL     1      13.451   8.536  16.769  0.00  0.00    +0.000 A 
ENDBRANCH   1  15
ENDBRANCH   7   1
BRANCH   7  12
ATOM     12  C   UNL     1      10.652   9.004  22.651  0.00  0.00    +0.140 C 
BRANCH  12  10
ATOM      2  O   UNL     1      10.480  11.010  23.990  0.00  0.00    -0.371 OA
ATOM      8  C   UNL     1      12.606  12.005  23.623  0.00  0.00    +0.113 C 
ATOM      9  C   UNL     1      12.549  10.676  22.893  0.00  0.00    +0.164 C 
ATOM     10  C   UNL     1      11.045  10.464  22.786  0.00  0.00    +0.164 C 
ATOM     11  C   UNL     1      11.465  11.851  24.616  0.00  0.00    +0.181 C 
BRANCH   8   6
ATOM      6  N   UNL     1      13.884  12.263  24.267  0.00  0.00    -0.301 NA
ATOM     13  C   UNL     1      14.486  13.496  23.751  0.00  0.00    +0.105 C 
ATOM     14  C   UNL     1      13.726  12.350  25.721  0.00  0.00    +0.105 C 
ENDBRANCH   8   6
BRANCH   9   3
ATOM      3  O   UNL     1      13.166  10.725  21.621  0.00  0.00    -0.388 OA
ATOM     21  H   UNL     1      13.391  11.650  21.426  0.00  0.00    +0.210 HD
ENDBRANCH   9   3
ENDBRANCH  12  10
ENDBRANCH   7  12
TORSDOF 6
ENDMDL
MODEL 6
REMARK VINA RESULT:      -5.5     26.992     27.879
REMARK  Name = 75536674
REMARK  8 active torsions:
REMARK  status: ('A' for Active; 'I' for Inactive)
REMARK    1  A    between atoms: S_1  and  N_7
REMARK    2  A    between atoms: S_1  and  C_15
REMARK    3  A    between atoms: O_3  and  C_9
REMARK    4  A    between atoms: N_6  and  C_8
REMARK    5  A    between atoms: N_6  and  C_13
REMARK    6  A    between atoms: N_6  and  C_14
REMARK    7  A    between atoms: N_7  and  C_12
REMARK    8  A    between atoms: C_10  and  C_12
REMARK                            x       y       z     vdW  Elec       q    Type
REMARK                         _______ _______ _______ _____ _____    ______ ____
ROOT
ATOM      7  N   UNL     1      -3.983 -11.701  13.816  0.00  0.00    -0.187 NA
ATOM     22  H   UNL     1      -3.903 -12.258  14.677  0.00  0.00    +0.148 HD
ENDROOT
BRANCH   7   1
ATOM      1  S   UNL     1      -2.568 -11.379  12.928  0.00  0.00    +0.058 S 
ATOM      4  O   UNL     1      -1.805 -12.604  12.780  0.00  0.00    -0.153 OA
ATOM      5  O   UNL     1      -1.937 -10.187  13.461  0.00  0.00    -0.153 OA
BRANCH   1  15
ATOM     15  C   UNL     1      -3.224 -10.952  11.343  0.00  0.00    +0.105 A 
ATOM     16  C   UNL     1      -3.169  -9.630  10.899  0.00  0.00    +0.028 A 
ATOM     17  C   UNL     1      -3.801 -11.934  10.539  0.00  0.00    +0.028 A 
ATOM     18  C   UNL     1      -3.692  -9.293   9.650  0.00  0.00    +0.002 A 
ATOM     19  C   UNL     1      -4.322 -11.596   9.291  0.00  0.00    +0.002 A 
ATOM     20  C   UNL     1      -4.268 -10.275   8.846  0.00  0.00    +0.000 A 
ENDBRANCH   1  15
ENDBRANCH   7   1
BRANCH   7  12
ATOM     12  C   UNL     1      -5.120 -10.762  13.763  0.00  0.00    +0.140 C 
BRANCH  12  10
ATOM      2  O   UNL     1      -6.684 -10.381  15.567  0.00  0.00    -0.371 OA
ATOM      8  C   UNL     1      -5.250 -10.457  17.459  0.00  0.00    +0.113 C 
ATOM      9  C   UNL     1      -4.436 -10.741  16.210  0.00  0.00    +0.164 C 
ATOM     10  C   UNL     1      -5.335 -10.145  15.134  0.00  0.00    +0.164 C 
ATOM     11  C   UNL     1      -6.663 -10.723  16.964  0.00  0.00    +0.181 C 
BRANCH   8   6
ATOM      6  N   UNL     1      -4.884 -11.288  18.594  0.00  0.00    -0.301 NA
ATOM     13  C   UNL     1      -5.873 -11.164  19.670  0.00  0.00    +0.105 C 
ATOM     14  C   UNL     1      -4.751 -12.691  18.192  0.00  0.00    +0.105 C 
ENDBRANCH   8   6
BRANCH   9   3
ATOM      3  O   UNL     1      -3.164 -10.124  16.236  0.00  0.00    -0.388 OA
ATOM     21  H   UNL     1      -2.596 -10.619  16.849  0.00  0.00    +0.210 HD
ENDBRANCH   9   3
ENDBRANCH  12  10
ENDBRANCH   7  12
TORSDOF 6
ENDMDL
MODEL 7
REMARK VINA RESULT:      -5.5     26.406     28.392
REMARK  Name = 75536674
REMARK  8 active torsions:
REMARK  status: ('A' for Active; 'I' for Inactive)
REMARK    1  A    between atoms: S_1  and  N_7
REMARK    2  A    between atoms: S_1  and  C_15
REMARK    3  A    between atoms: O_3  and  C_9
REMARK    4  A    between atoms: N_6  and  C_8
REMARK    5  A    between atoms: N_6  and  C_13
REMARK    6  A    between atoms: N_6  and  C_14
REMARK    7  A    between atoms: N_7  and  C_12
REMARK    8  A    between atoms: C_10  and  C_12
REMARK                            x       y       z     vdW  Elec       q    Type
REMARK                         _______ _______ _______ _____ _____    ______ ____
ROOT
ATOM      7  N   UNL     1      -5.423 -10.598  17.830  0.00  0.00    -0.187 NA
ATOM     22  H   UNL     1      -5.418  -9.580  17.684  0.00  0.00    +0.148 HD
ENDROOT
BRANCH   7   1
ATOM      1  S   UNL     1      -6.576 -11.257  18.894  0.00  0.00    +0.058 S 
ATOM      4  O   UNL     1      -6.241 -10.883  20.256  0.00  0.00    -0.153 OA
ATOM      5  O   UNL     1      -6.792 -12.649  18.552  0.00  0.00    -0.153 OA
BRANCH   1  15
ATOM     15  C   UNL     1      -8.039 -10.377  18.433  0.00  0.00    +0.105 A 
ATOM     16  C   UNL     1      -7.971  -9.366  17.476  0.00  0.00    +0.028 A 
ATOM     17  C   UNL     1      -9.259 -10.692  19.030  0.00  0.00    +0.028 A 
ATOM     18  C   UNL     1      -9.124  -8.669  17.116  0.00  0.00    +0.002 A 
ATOM     19  C   UNL     1     -10.412  -9.995  18.670  0.00  0.00    +0.002 A 
ATOM     20  C   UNL     1     -10.345  -8.983  17.712  0.00  0.00    +0.000 A 
ENDBRANCH   1  15
ENDBRANCH   7   1
BRANCH   7  12
ATOM     12  C   UNL     1      -4.131 -11.281  17.624  0.00  0.00    +0.140 C 
BRANCH  12  10
ATOM      2  O   UNL     1      -1.961 -10.967  16.606  0.00  0.00    -0.371 OA
ATOM      8  C   UNL     1      -2.555 -10.579  14.339  0.00  0.00    +0.113 C 
ATOM      9  C   UNL     1      -3.813 -10.862  15.138  0.00  0.00    +0.164 C 
ATOM     10  C   UNL     1      -3.337 -10.556  16.553  0.00  0.00    +0.164 C 
ATOM     11  C   UNL     1      -1.482 -11.136  15.260  0.00  0.00    +0.181 C 
BRANCH   8   6
ATOM      6  N   UNL     1      -2.548 -11.199  13.024  0.00  0.00    -0.301 NA
ATOM     13  C   UNL     1      -1.882 -10.334  12.045  0.00  0.00    +0.105 C 
ATOM     14  C   UNL     1      -1.891 -12.508  13.068  0.00  0.00    +0.105 C 
ENDBRANCH   8   6
BRANCH   9   3
ATOM      3  O   UNL     1      -4.899 -10.039  14.758  0.00  0.00    -0.388 OA
ATOM     21  H   UNL     1      -5.149  -9.492  15.521  0.00  0.00    +0.210 HD
ENDBRANCH   9   3
ENDBRANCH  12  10
ENDBRANCH   7  12
TORSDOF 6
ENDMDL
MODEL 8
REMARK VINA RESULT:      -5.4     26.607     28.344
REMARK  Name = 75536674
REMARK  8 active torsions:
REMARK  status: ('A' for Active; 'I' for Inactive)
REMARK    1  A    between atoms: S_1  and  N_7
REMARK    2  A    between atoms: S_1  and  C_15
REMARK    3  A    between atoms: O_3  and  C_9
REMARK    4  A    between atoms: N_6  and  C_8
REMARK    5  A    between atoms: N_6  and  C_13
REMARK    6  A    between atoms: N_6  and  C_14
REMARK    7  A    between atoms: N_7  and  C_12
REMARK    8  A    between atoms: C_10  and  C_12
REMARK                            x       y       z     vdW  Elec       q    Type
REMARK                         _______ _______ _______ _____ _____    ______ ____
ROOT
ATOM      7  N   UNL     1      -6.167 -11.229  16.565  0.00  0.00    -0.187 NA
ATOM     22  H   UNL     1      -6.967 -11.870  16.481  0.00  0.00    +0.148 HD
ENDROOT
BRANCH   7   1
ATOM      1  S   UNL     1      -4.685 -11.852  17.119  0.00  0.00    +0.058 S 
ATOM      4  O   UNL     1      -4.695 -13.298  16.993  0.00  0.00    -0.153 OA
ATOM      5  O   UNL     1      -4.359 -11.234  18.390  0.00  0.00    -0.153 OA
BRANCH   1  15
ATOM     15  C   UNL     1      -3.551 -11.209  15.925  0.00  0.00    +0.105 A 
ATOM     16  C   UNL     1      -3.919 -11.142  14.581  0.00  0.00    +0.028 A 
ATOM     17  C   UNL     1      -2.288 -10.774  16.326  0.00  0.00    +0.028 A 
ATOM     18  C   UNL     1      -3.022 -10.639  13.638  0.00  0.00    +0.002 A 
ATOM     19  C   UNL     1      -1.393 -10.271  15.383  0.00  0.00    +0.002 A 
ATOM     20  C   UNL     1      -1.759 -10.203  14.038  0.00  0.00    +0.000 A 
ENDBRANCH   1  15
ENDBRANCH   7   1
BRANCH   7  12
ATOM     12  C   UNL     1      -6.505  -9.810  16.793  0.00  0.00    +0.140 C 
BRANCH  12  10
ATOM      2  O   UNL     1      -8.888 -10.112  17.073  0.00  0.00    -0.371 OA
ATOM      8  C   UNL     1      -9.010 -10.816  19.338  0.00  0.00    +0.113 C 
ATOM      9  C   UNL     1      -7.554 -10.631  18.956  0.00  0.00    +0.164 C 
ATOM     10  C   UNL     1      -7.682  -9.714  17.746  0.00  0.00    +0.164 C 
ATOM     11  C   UNL     1      -9.669 -10.919  17.972  0.00  0.00    +0.181 C 
BRANCH   8   6
ATOM      6  N   UNL     1      -9.251 -11.983  20.170  0.00  0.00    -0.301 NA
ATOM     13  C   UNL     1     -10.682 -12.298  20.223  0.00  0.00    +0.105 C 
ATOM     14  C   UNL     1      -8.499 -13.140  19.676  0.00  0.00    +0.105 C 
ENDBRANCH   8   6
BRANCH   9   3
ATOM      3  O   UNL     1      -6.790 -10.038  19.988  0.00  0.00    -0.388 OA
ATOM     21  H   UNL     1      -7.115  -9.133  20.128  0.00  0.00    +0.210 HD
ENDBRANCH   9   3
ENDBRANCH  12  10
ENDBRANCH   7  12
TORSDOF 6
ENDMDL
MODEL 9
REMARK VINA RESULT:      -5.4     26.827     27.706
REMARK  Name = 75536674
REMARK  8 active torsions:
REMARK  status: ('A' for Active; 'I' for Inactive)
REMARK    1  A    between atoms: S_1  and  N_7
REMARK    2  A    between atoms: S_1  and  C_15
REMARK    3  A    between atoms: O_3  and  C_9
REMARK    4  A    between atoms: N_6  and  C_8
REMARK    5  A    between atoms: N_6  and  C_13
REMARK    6  A    between atoms: N_6  and  C_14
REMARK    7  A    between atoms: N_7  and  C_12
REMARK    8  A    between atoms: C_10  and  C_12
REMARK                            x       y       z     vdW  Elec       q    Type
REMARK                         _______ _______ _______ _____ _____    ______ ____
ROOT
ATOM      7  N   UNL     1      -3.239 -10.315  14.072  0.00  0.00    -0.187 NA
ATOM     22  H   UNL     1      -3.930  -9.554  14.120  0.00  0.00    +0.148 HD
ENDROOT
BRANCH   7   1
ATOM      1  S   UNL     1      -2.743 -10.861  12.539  0.00  0.00    +0.058 S 
ATOM      4  O   UNL     1      -3.070 -12.267  12.402  0.00  0.00    -0.153 OA
ATOM      5  O   UNL     1      -1.391 -10.399  12.288  0.00  0.00    -0.153 OA
BRANCH   1  15
ATOM     15  C   UNL     1      -3.809  -9.947  11.466  0.00  0.00    +0.105 A 
ATOM     16  C   UNL     1      -3.352  -9.536  10.214  0.00  0.00    +0.028 A 
ATOM     17  C   UNL     1      -5.106  -9.633  11.872  0.00  0.00    +0.028 A 
ATOM     18  C   UNL     1      -4.192  -8.811   9.369  0.00  0.00    +0.002 A 
ATOM     19  C   UNL     1      -5.945  -8.908  11.027  0.00  0.00    +0.002 A 
ATOM     20  C   UNL     1      -5.489  -8.497   9.774  0.00  0.00    +0.000 A 
ENDBRANCH   1  15
ENDBRANCH   7   1
BRANCH   7  12
ATOM     12  C   UNL     1      -3.215 -11.232  15.228  0.00  0.00    +0.140 C 
BRANCH  12  10
ATOM      2  O   UNL     1      -5.085  -9.901  15.989  0.00  0.00    -0.371 OA
ATOM      8  C   UNL     1      -5.443 -10.791  18.162  0.00  0.00    +0.113 C 
ATOM      9  C   UNL     1      -4.320 -11.560  17.491  0.00  0.00    +0.164 C 
ATOM     10  C   UNL     1      -3.887 -10.571  16.417  0.00  0.00    +0.164 C 
ATOM     11  C   UNL     1      -6.114 -10.135  16.965  0.00  0.00    +0.181 C 
BRANCH   8   6
ATOM      6  N   UNL     1      -6.350 -11.630  18.927  0.00  0.00    -0.301 NA
ATOM     13  C   UNL     1      -7.563 -10.890  19.290  0.00  0.00    +0.105 C 
ATOM     14  C   UNL     1      -6.702 -12.838  18.175  0.00  0.00    +0.105 C 
ENDBRANCH   8   6
BRANCH   9   3
ATOM      3  O   UNL     1      -3.264 -11.869  18.380  0.00  0.00    -0.388 OA
ATOM     21  H   UNL     1      -3.448 -11.443  19.233  0.00  0.00    +0.210 HD
ENDBRANCH   9   3
ENDBRANCH  12  10
ENDBRANCH   7  12
TORSDOF 6
ENDMDL
MODEL 10
REMARK VINA RESULT:      -5.4     27.718     29.352
REMARK  Name = 75536674
REMARK  8 active torsions:
REMARK  status: ('A' for Active; 'I' for Inactive)
REMARK    1  A    between atoms: S_1  and  N_7
REMARK    2  A    between atoms: S_1  and  C_15
REMARK    3  A    between atoms: O_3  and  C_9
REMARK    4  A    between atoms: N_6  and  C_8
REMARK    5  A    between atoms: N_6  and  C_13
REMARK    6  A    between atoms: N_6  and  C_14
REMARK    7  A    between atoms: N_7  and  C_12
REMARK    8  A    between atoms: C_10  and  C_12
REMARK                            x       y       z     vdW  Elec       q    Type
REMARK                         _______ _______ _______ _____ _____    ______ ____
ROOT
ATOM      7  N   UNL     1      -7.998 -10.420  19.686  0.00  0.00    -0.187 NA
ATOM     22  H   UNL     1      -7.790  -9.472  19.346  0.00  0.00    +0.148 HD
ENDROOT
BRANCH   7   1
ATOM      1  S   UNL     1      -6.737 -11.561  19.725  0.00  0.00    +0.058 S 
ATOM      4  O   UNL     1      -7.275 -12.880  19.448  0.00  0.00    -0.153 OA
ATOM      5  O   UNL     1      -5.933 -11.336  20.911  0.00  0.00    -0.153 OA
BRANCH   1  15
ATOM     15  C   UNL     1      -5.759 -11.069  18.337  0.00  0.00    +0.105 A 
ATOM     16  C   UNL     1      -4.455 -11.545  18.199  0.00  0.00    +0.028 A 
ATOM     17  C   UNL     1      -6.290 -10.202  17.382  0.00  0.00    +0.028 A 
ATOM     18  C   UNL     1      -3.683 -11.153  17.106  0.00  0.00    +0.002 A 
ATOM     19  C   UNL     1      -5.517  -9.811  16.289  0.00  0.00    +0.002 A 
ATOM     20  C   UNL     1      -4.213 -10.286  16.150  0.00  0.00    +0.000 A 
ENDBRANCH   1  15
ENDBRANCH   7   1
BRANCH   7  12
ATOM     12  C   UNL     1      -9.395 -10.866  19.521  0.00  0.00    +0.140 C 
BRANCH  12  10
ATOM      2  O   UNL     1     -10.982 -11.379  17.771  0.00  0.00    -0.371 OA
ATOM      8  C   UNL     1     -11.324  -9.237  16.803  0.00  0.00    +0.113 C 
ATOM      9  C   UNL     1     -10.381  -9.101  17.984  0.00  0.00    +0.164 C 
ATOM     10  C   UNL     1      -9.875 -10.531  18.121  0.00  0.00    +0.164 C 
ATOM     11  C   UNL     1     -11.966 -10.586  17.084  0.00  0.00    +0.181 C 
BRANCH   8   6
ATOM      6  N   UNL     1     -12.294  -8.159  16.704  0.00  0.00    -0.301 NA
ATOM     13  C   UNL     1     -12.065  -7.362  15.495  0.00  0.00    +0.105 C 
ATOM     14  C   UNL     1     -13.662  -8.687  16.708  0.00  0.00    +0.105 C 
ENDBRANCH   8   6
BRANCH   9   3
ATOM      3  O   UNL     1      -9.327  -8.191  17.738  0.00  0.00    -0.388 OA
ATOM     21  H   UNL     1      -8.564  -8.690  17.402  0.00  0.00    +0.210 HD
ENDBRANCH   9   3
ENDBRANCH  12  10
ENDBRANCH   7  12
TORSDOF 6
ENDMDL
