MODEL 1
REMARK VINA RESULT:      -7.2      0.000      0.000
REMARK  Name = 45360525
REMARK  12 active torsions:
REMARK  status: ('A' for Active; 'I' for Inactive)
REMARK    1  A    between atoms: O_3  and  C_25
REMARK    2  A    between atoms: O_3  and  C_39
REMARK    3  A    between atoms: N_6  and  C_22
REMARK    4  A    between atoms: C_8  and  C_12
REMARK    5  A    between atoms: C_9  and  C_14
REMARK    6  A    between atoms: C_12  and  C_15
REMARK    7  A    between atoms: C_14  and  C_16
REMARK    8  A    between atoms: C_23  and  C_24
REMARK    9  A    between atoms: C_27  and  C_28
REMARK   10  A    between atoms: C_27  and  C_35
REMARK   11  A    between atoms: C_27  and  C_36
REMARK   12  A    between atoms: C_27  and  C_37
REMARK                            x       y       z     vdW  Elec       q    Type
REMARK                         _______ _______ _______ _____ _____    ______ ____
ROOT
ATOM      4  N   UNL     1      24.512   3.649  19.382  0.00  0.00    -0.316 NA
ATOM      8  C   UNL     1      23.024   2.850  21.801  0.00  0.00    +0.004 C 
ATOM      9  C   UNL     1      22.590   4.036  20.905  0.00  0.00    +0.012 C 
ATOM     10  C   UNL     1      23.858   1.867  20.961  0.00  0.00    +0.019 C 
ATOM     11  C   UNL     1      23.787   4.652  20.162  0.00  0.00    +0.085 C 
ATOM     13  C   UNL     1      25.002   2.559  20.221  0.00  0.00    +0.081 C 
ATOM     40  H   UNL     1      25.301   4.093  18.911  0.00  0.00    +0.122 HD
ENDROOT
BRANCH   8  12
ATOM     12  C   UNL     1      23.783   3.268  23.066  0.00  0.00    +0.100 C 
BRANCH  12  15
ATOM      1  O   UNL     1      22.292   2.433  24.709  0.00  0.00    -0.276 OA
ATOM      5  N   UNL     1      24.403   1.468  24.637  0.00  0.00    -0.298 N 
ATOM      6  N   UNL     1      25.720  -1.025  24.729  0.00  0.00    -0.324 N 
ATOM     15  C   UNL     1      23.418   2.357  24.211  0.00  0.00    +0.216 C 
ATOM     17  C   UNL     1      24.147   0.565  25.756  0.00  0.00    +0.126 C 
ATOM     18  C   UNL     1      25.749   1.348  24.073  0.00  0.00    +0.126 C 
ATOM     19  C   UNL     1      24.392  -0.886  25.346  0.00  0.00    +0.124 C 
ATOM     20  C   UNL     1      26.025  -0.090  23.637  0.00  0.00    +0.124 C 
BRANCH   6  22
ATOM     22  C   UNL     1      26.311  -2.294  24.738  0.00  0.00    +0.072 A 
ATOM     25  C   UNL     1      26.926  -2.783  25.889  0.00  0.00    +0.141 A 
ATOM     26  C   UNL     1      26.278  -3.072  23.580  0.00  0.00    +0.027 A 
ATOM     31  C   UNL     1      27.509  -4.050  25.885  0.00  0.00    +0.047 A 
ATOM     34  C   UNL     1      26.861  -4.340  23.576  0.00  0.00    +0.002 A 
ATOM     38  C   UNL     1      27.477  -4.828  24.727  0.00  0.00    +0.004 A 
BRANCH  25   3
ATOM      3  O   UNL     1      26.969  -2.038  27.030  0.00  0.00    -0.493 OA
ATOM     39  C   UNL     1      26.828  -2.736  28.265  0.00  0.00    +0.277 C 
ENDBRANCH  25   3
ENDBRANCH   6  22
ENDBRANCH  12  15
ENDBRANCH   8  12
BRANCH   9  14
ATOM     14  C   UNL     1      21.820   5.113  21.671  0.00  0.00    +0.064 C 
BRANCH  14  16
ATOM      2  O   UNL     1      18.792   5.111  19.723  0.00  0.00    -0.354 OA
ATOM      7  N   UNL     1      20.015   4.566  20.096  0.00  0.00    -0.083 NA
ATOM     16  C   UNL     1      20.492   5.394  21.030  0.00  0.00    +0.085 A 
ATOM     21  C   UNL     1      19.622   6.468  21.286  0.00  0.00    +0.076 A 
ATOM     23  C   UNL     1      18.569   6.243  20.438  0.00  0.00    +0.167 A 
BRANCH  23  24
ATOM     24  C   UNL     1      17.336   6.921  20.161  0.00  0.00    +0.020 A 
ATOM     28  C   UNL     1      14.940   8.241  19.618  0.00  0.00    -0.042 A 
ATOM     29  C   UNL     1      17.089   8.175  20.719  0.00  0.00    +0.012 A 
ATOM     30  C   UNL     1      16.386   6.327  19.330  0.00  0.00    +0.012 A 
ATOM     32  C   UNL     1      15.890   8.835  20.448  0.00  0.00    +0.005 A 
ATOM     33  C   UNL     1      15.187   6.987  19.060  0.00  0.00    +0.005 A 
BRANCH  28  27
ATOM     27  C   UNL     1      13.657   8.946  19.329  0.00  0.00    -0.013 C 
ATOM     35  C   UNL     1      12.577   8.097  18.582  0.00  0.00    +0.015 C 
ATOM     36  C   UNL     1      12.969   9.430  20.643  0.00  0.00    +0.015 C 
ATOM     37  C   UNL     1      13.893  10.201  18.432  0.00  0.00    +0.015 C 
ENDBRANCH  28  27
ENDBRANCH  23  24
ENDBRANCH  14  16
ENDBRANCH   9  14
TORSDOF 8
ENDMDL
MODEL 2
REMARK VINA RESULT:      -7.1     29.213     34.193
REMARK  Name = 45360525
REMARK  12 active torsions:
REMARK  status: ('A' for Active; 'I' for Inactive)
REMARK    1  A    between atoms: O_3  and  C_25
REMARK    2  A    between atoms: O_3  and  C_39
REMARK    3  A    between atoms: N_6  and  C_22
REMARK    4  A    between atoms: C_8  and  C_12
REMARK    5  A    between atoms: C_9  and  C_14
REMARK    6  A    between atoms: C_12  and  C_15
REMARK    7  A    between atoms: C_14  and  C_16
REMARK    8  A    between atoms: C_23  and  C_24
REMARK    9  A    between atoms: C_27  and  C_28
REMARK   10  A    between atoms: C_27  and  C_35
REMARK   11  A    between atoms: C_27  and  C_36
REMARK   12  A    between atoms: C_27  and  C_37
REMARK                            x       y       z     vdW  Elec       q    Type
REMARK                         _______ _______ _______ _____ _____    ______ ____
ROOT
ATOM      4  N   UNL     1     -13.266 -10.160  18.420  0.00  0.00    -0.316 NA
ATOM      8  C   UNL     1     -10.373  -9.716  18.795  0.00  0.00    +0.004 C 
ATOM      9  C   UNL     1     -11.211  -8.937  17.753  0.00  0.00    +0.012 C 
ATOM     10  C   UNL     1     -11.302 -10.209  19.917  0.00  0.00    +0.019 C 
ATOM     11  C   UNL     1     -12.435  -9.745  17.290  0.00  0.00    +0.085 C 
ATOM     13  C   UNL     1     -12.515 -10.967  19.379  0.00  0.00    +0.081 C 
ATOM     40  H   UNL     1     -14.061 -10.698  18.075  0.00  0.00    +0.122 HD
ENDROOT
BRANCH   8  12
ATOM     12  C   UNL     1      -9.566 -10.878  18.204  0.00  0.00    +0.100 C 
BRANCH  12  15
ATOM      1  O   UNL     1      -8.284 -11.534  20.087  0.00  0.00    -0.276 OA
ATOM      5  N   UNL     1      -7.114 -10.616  18.304  0.00  0.00    -0.298 N 
ATOM      6  N   UNL     1      -4.790 -10.969  16.743  0.00  0.00    -0.324 N 
ATOM     15  C   UNL     1      -8.270 -11.042  18.956  0.00  0.00    +0.216 C 
ATOM     17  C   UNL     1      -5.816 -10.713  18.966  0.00  0.00    +0.126 C 
ATOM     18  C   UNL     1      -7.055 -10.028  16.964  0.00  0.00    +0.126 C 
ATOM     19  C   UNL     1      -4.831 -11.509  18.111  0.00  0.00    +0.124 C 
ATOM     20  C   UNL     1      -6.089 -10.809  16.074  0.00  0.00    +0.124 C 
BRANCH   6  22
ATOM     22  C   UNL     1      -3.645 -11.224  15.979  0.00  0.00    +0.072 A 
ATOM     25  C   UNL     1      -3.542 -12.390  15.223  0.00  0.00    +0.141 A 
ATOM     26  C   UNL     1      -2.604 -10.296  15.977  0.00  0.00    +0.027 A 
ATOM     31  C   UNL     1      -2.397 -12.630  14.463  0.00  0.00    +0.047 A 
ATOM     34  C   UNL     1      -1.458 -10.536  15.218  0.00  0.00    +0.002 A 
ATOM     38  C   UNL     1      -1.354 -11.703  14.462  0.00  0.00    +0.004 A 
BRANCH  25   3
ATOM      3  O   UNL     1      -4.549 -13.309  15.211  0.00  0.00    -0.493 OA
ATOM     39  C   UNL     1      -4.171 -14.683  15.205  0.00  0.00    +0.277 C 
ENDBRANCH  25   3
ENDBRANCH   6  22
ENDBRANCH  12  15
ENDBRANCH   8  12
BRANCH   9  14
ATOM     14  C   UNL     1     -10.388  -8.471  16.550  0.00  0.00    +0.064 C 
BRANCH  14  16
ATOM      2  O   UNL     1     -11.957  -5.422  15.451  0.00  0.00    -0.354 OA
ATOM      7  N   UNL     1     -11.307  -6.197  16.405  0.00  0.00    -0.083 NA
ATOM     16  C   UNL     1     -11.085  -7.370  15.805  0.00  0.00    +0.085 A 
ATOM     21  C   UNL     1     -11.567  -7.394  14.485  0.00  0.00    +0.076 A 
ATOM     23  C   UNL     1     -12.106  -6.146  14.312  0.00  0.00    +0.167 A 
BRANCH  23  24
ATOM     24  C   UNL     1     -12.764  -5.474  13.230  0.00  0.00    +0.020 A 
ATOM     28  C   UNL     1     -14.047  -4.164  11.128  0.00  0.00    -0.042 A 
ATOM     29  C   UNL     1     -13.847  -6.076  12.590  0.00  0.00    +0.012 A 
ATOM     30  C   UNL     1     -12.323  -4.215  12.821  0.00  0.00    +0.012 A 
ATOM     32  C   UNL     1     -14.488  -5.422  11.537  0.00  0.00    +0.005 A 
ATOM     33  C   UNL     1     -12.964  -3.560  11.768  0.00  0.00    +0.005 A 
BRANCH  28  27
ATOM     27  C   UNL     1     -14.732  -3.463  10.003  0.00  0.00    -0.013 C 
ATOM     35  C   UNL     1     -15.372  -2.082  10.361  0.00  0.00    +0.015 C 
ATOM     36  C   UNL     1     -13.742  -3.171   8.832  0.00  0.00    +0.015 C 
ATOM     37  C   UNL     1     -15.898  -4.325   9.428  0.00  0.00    +0.015 C 
ENDBRANCH  28  27
ENDBRANCH  23  24
ENDBRANCH  14  16
ENDBRANCH   9  14
TORSDOF 8
ENDMDL
MODEL 3
REMARK VINA RESULT:      -6.9     18.434     23.331
REMARK  Name = 45360525
REMARK  12 active torsions:
REMARK  status: ('A' for Active; 'I' for Inactive)
REMARK    1  A    between atoms: O_3  and  C_25
REMARK    2  A    between atoms: O_3  and  C_39
REMARK    3  A    between atoms: N_6  and  C_22
REMARK    4  A    between atoms: C_8  and  C_12
REMARK    5  A    between atoms: C_9  and  C_14
REMARK    6  A    between atoms: C_12  and  C_15
REMARK    7  A    between atoms: C_14  and  C_16
REMARK    8  A    between atoms: C_23  and  C_24
REMARK    9  A    between atoms: C_27  and  C_28
REMARK   10  A    between atoms: C_27  and  C_35
REMARK   11  A    between atoms: C_27  and  C_36
REMARK   12  A    between atoms: C_27  and  C_37
REMARK                            x       y       z     vdW  Elec       q    Type
REMARK                         _______ _______ _______ _____ _____    ______ ____
ROOT
ATOM      4  N   UNL     1       9.478   9.066   8.071  0.00  0.00    -0.316 NA
ATOM      8  C   UNL     1      10.703   6.905   6.478  0.00  0.00    +0.004 C 
ATOM      9  C   UNL     1      11.277   8.342   6.521  0.00  0.00    +0.012 C 
ATOM     10  C   UNL     1       9.892   6.651   7.761  0.00  0.00    +0.019 C 
ATOM     11  C   UNL     1      10.186   9.380   6.830  0.00  0.00    +0.085 C 
ATOM     13  C   UNL     1       8.857   7.744   8.022  0.00  0.00    +0.081 C 
ATOM     40  H   UNL     1       8.759   9.770   8.237  0.00  0.00    +0.122 HD
ENDROOT
BRANCH   8  12
ATOM     12  C   UNL     1       9.859   6.607   5.232  0.00  0.00    +0.100 C 
BRANCH  12  15
ATOM      1  O   UNL     1      10.041   4.247   5.359  0.00  0.00    -0.276 OA
ATOM      5  N   UNL     1      10.758   5.238   3.386  0.00  0.00    -0.298 N 
ATOM      6  N   UNL     1      10.638   4.963   0.580  0.00  0.00    -0.324 N 
ATOM     15  C   UNL     1      10.225   5.255   4.673  0.00  0.00    +0.216 C 
ATOM     17  C   UNL     1      11.164   3.976   2.773  0.00  0.00    +0.126 C 
ATOM     18  C   UNL     1      10.992   6.411   2.540  0.00  0.00    +0.126 C 
ATOM     19  C   UNL     1      10.461   3.776   1.431  0.00  0.00    +0.124 C 
ATOM     20  C   UNL     1      10.290   6.253   1.192  0.00  0.00    +0.124 C 
BRANCH   6  22
ATOM     22  C   UNL     1      10.506   4.796  -0.804  0.00  0.00    +0.072 A 
ATOM     25  C   UNL     1      11.417   4.018  -1.515  0.00  0.00    +0.141 A 
ATOM     26  C   UNL     1       9.448   5.415  -1.469  0.00  0.00    +0.027 A 
ATOM     31  C   UNL     1      11.272   3.858  -2.893  0.00  0.00    +0.047 A 
ATOM     34  C   UNL     1       9.303   5.256  -2.848  0.00  0.00    +0.002 A 
ATOM     38  C   UNL     1      10.215   4.478  -3.559  0.00  0.00    +0.004 A 
BRANCH  25   3
ATOM      3  O   UNL     1      12.458   3.404  -0.883  0.00  0.00    -0.493 OA
ATOM     39  C   UNL     1      13.755   3.958  -1.085  0.00  0.00    +0.277 C 
ENDBRANCH  25   3
ENDBRANCH   6  22
ENDBRANCH  12  15
ENDBRANCH   8  12
BRANCH   9  14
ATOM     14  C   UNL     1      12.035   8.721   5.248  0.00  0.00    +0.064 C 
BRANCH  14  16
ATOM      2  O   UNL     1      15.339   9.390   6.513  0.00  0.00    -0.354 OA
ATOM      7  N   UNL     1      13.953   9.478   6.584  0.00  0.00    -0.083 NA
ATOM     16  C   UNL     1      13.511   8.830   5.502  0.00  0.00    +0.085 A 
ATOM     21  C   UNL     1      14.560   8.317   4.720  0.00  0.00    +0.076 A 
ATOM     23  C   UNL     1      15.688   8.696   5.400  0.00  0.00    +0.167 A 
BRANCH  23  24
ATOM     24  C   UNL     1      17.096   8.522   5.191  0.00  0.00    +0.020 A 
ATOM     28  C   UNL     1      19.835   8.188   4.786  0.00  0.00    -0.042 A 
ATOM     29  C   UNL     1      17.575   8.157   3.934  0.00  0.00    +0.012 A 
ATOM     30  C   UNL     1      17.986   8.722   6.246  0.00  0.00    +0.012 A 
ATOM     32  C   UNL     1      18.945   7.988   3.731  0.00  0.00    +0.005 A 
ATOM     33  C   UNL     1      19.357   8.553   6.044  0.00  0.00    +0.005 A 
BRANCH  28  27
ATOM     27  C   UNL     1      21.300   8.007   4.569  0.00  0.00    -0.013 C 
ATOM     35  C   UNL     1      22.222   8.595   5.688  0.00  0.00    +0.015 C 
ATOM     36  C   UNL     1      21.676   6.496   4.473  0.00  0.00    +0.015 C 
ATOM     37  C   UNL     1      21.764   8.693   3.247  0.00  0.00    +0.015 C 
ENDBRANCH  28  27
ENDBRANCH  23  24
ENDBRANCH  14  16
ENDBRANCH   9  14
TORSDOF 8
ENDMDL
MODEL 4
REMARK VINA RESULT:      -6.9      1.530      2.079
REMARK  Name = 45360525
REMARK  12 active torsions:
REMARK  status: ('A' for Active; 'I' for Inactive)
REMARK    1  A    between atoms: O_3  and  C_25
REMARK    2  A    between atoms: O_3  and  C_39
REMARK    3  A    between atoms: N_6  and  C_22
REMARK    4  A    between atoms: C_8  and  C_12
REMARK    5  A    between atoms: C_9  and  C_14
REMARK    6  A    between atoms: C_12  and  C_15
REMARK    7  A    between atoms: C_14  and  C_16
REMARK    8  A    between atoms: C_23  and  C_24
REMARK    9  A    between atoms: C_27  and  C_28
REMARK   10  A    between atoms: C_27  and  C_35
REMARK   11  A    between atoms: C_27  and  C_36
REMARK   12  A    between atoms: C_27  and  C_37
REMARK                            x       y       z     vdW  Elec       q    Type
REMARK                         _______ _______ _______ _____ _____    ______ ____
ROOT
ATOM      4  N   UNL     1      24.702   3.519  19.326  0.00  0.00    -0.316 NA
ATOM      8  C   UNL     1      23.200   3.108  21.833  0.00  0.00    +0.004 C 
ATOM      9  C   UNL     1      22.817   4.191  20.796  0.00  0.00    +0.012 C 
ATOM     10  C   UNL     1      23.976   1.986  21.121  0.00  0.00    +0.019 C 
ATOM     11  C   UNL     1      24.035   4.648  19.976  0.00  0.00    +0.085 C 
ATOM     13  C   UNL     1      25.145   2.519  20.294  0.00  0.00    +0.081 C 
ATOM     40  H   UNL     1      25.506   3.859  18.799  0.00  0.00    +0.122 HD
ENDROOT
BRANCH   8  12
ATOM     12  C   UNL     1      23.992   3.644  23.032  0.00  0.00    +0.100 C 
BRANCH  12  15
ATOM      1  O   UNL     1      22.284   4.028  24.629  0.00  0.00    -0.276 OA
ATOM      5  N   UNL     1      23.739   2.273  25.069  0.00  0.00    -0.298 N 
ATOM      6  N   UNL     1      23.799  -0.407  25.948  0.00  0.00    -0.324 N 
ATOM     15  C   UNL     1      23.257   3.340  24.312  0.00  0.00    +0.216 C 
ATOM     17  C   UNL     1      23.104   1.922  26.336  0.00  0.00    +0.126 C 
ATOM     18  C   UNL     1      24.889   1.433  24.727  0.00  0.00    +0.126 C 
ATOM     19  C   UNL     1      22.674   0.456  26.337  0.00  0.00    +0.124 C 
ATOM     20  C   UNL     1      24.492  -0.042  24.704  0.00  0.00    +0.124 C 
BRANCH   6  22
ATOM     22  C   UNL     1      23.759  -1.748  26.348  0.00  0.00    +0.072 A 
ATOM     25  C   UNL     1      24.736  -2.265  27.197  0.00  0.00    +0.141 A 
ATOM     26  C   UNL     1      22.727  -2.568  25.892  0.00  0.00    +0.027 A 
ATOM     31  C   UNL     1      24.683  -3.602  27.590  0.00  0.00    +0.047 A 
ATOM     34  C   UNL     1      22.673  -3.906  26.284  0.00  0.00    +0.002 A 
ATOM     38  C   UNL     1      23.651  -4.423  27.133  0.00  0.00    +0.004 A 
BRANCH  25   3
ATOM      3  O   UNL     1      25.753  -1.480  27.654  0.00  0.00    -0.493 OA
ATOM     39  C   UNL     1      27.033  -1.663  27.054  0.00  0.00    +0.277 C 
ENDBRANCH  25   3
ENDBRANCH   6  22
ENDBRANCH  12  15
ENDBRANCH   8  12
BRANCH   9  14
ATOM     14  C   UNL     1      22.109   5.395  21.421  0.00  0.00    +0.064 C 
BRANCH  14  16
ATOM      2  O   UNL     1      18.892   5.017  19.850  0.00  0.00    -0.354 OA
ATOM      7  N   UNL     1      20.160   4.555  20.183  0.00  0.00    -0.083 NA
ATOM     16  C   UNL     1      20.714   5.546  20.887  0.00  0.00    +0.085 A 
ATOM     21  C   UNL     1      19.853   6.648  21.029  0.00  0.00    +0.076 A 
ATOM     23  C   UNL     1      18.721   6.264  20.359  0.00  0.00    +0.167 A 
BRANCH  23  24
ATOM     24  C   UNL     1      17.451   6.874  20.094  0.00  0.00    +0.020 A 
ATOM     28  C   UNL     1      14.978   8.059  19.583  0.00  0.00    -0.042 A 
ATOM     29  C   UNL     1      16.544   6.253  19.236  0.00  0.00    +0.012 A 
ATOM     30  C   UNL     1      17.121   8.088  20.698  0.00  0.00    +0.012 A 
ATOM     32  C   UNL     1      15.307   6.846  18.979  0.00  0.00    +0.005 A 
ATOM     33  C   UNL     1      15.885   8.681  20.441  0.00  0.00    +0.005 A 
BRANCH  28  27
ATOM     27  C   UNL     1      13.656   8.694  19.308  0.00  0.00    -0.013 C 
ATOM     35  C   UNL     1      13.257   9.860  20.273  0.00  0.00    +0.015 C 
ATOM     36  C   UNL     1      13.611   9.308  17.874  0.00  0.00    +0.015 C 
ATOM     37  C   UNL     1      12.498   7.654  19.412  0.00  0.00    +0.015 C 
ENDBRANCH  28  27
ENDBRANCH  23  24
ENDBRANCH  14  16
ENDBRANCH   9  14
TORSDOF 8
ENDMDL
MODEL 5
REMARK VINA RESULT:      -6.7      3.467      5.959
REMARK  Name = 45360525
REMARK  12 active torsions:
REMARK  status: ('A' for Active; 'I' for Inactive)
REMARK    1  A    between atoms: O_3  and  C_25
REMARK    2  A    between atoms: O_3  and  C_39
REMARK    3  A    between atoms: N_6  and  C_22
REMARK    4  A    between atoms: C_8  and  C_12
REMARK    5  A    between atoms: C_9  and  C_14
REMARK    6  A    between atoms: C_12  and  C_15
REMARK    7  A    between atoms: C_14  and  C_16
REMARK    8  A    between atoms: C_23  and  C_24
REMARK    9  A    between atoms: C_27  and  C_28
REMARK   10  A    between atoms: C_27  and  C_35
REMARK   11  A    between atoms: C_27  and  C_36
REMARK   12  A    between atoms: C_27  and  C_37
REMARK                            x       y       z     vdW  Elec       q    Type
REMARK                         _______ _______ _______ _____ _____    ______ ____
ROOT
ATOM      4  N   UNL     1      25.144   3.752  19.155  0.00  0.00    -0.316 NA
ATOM      8  C   UNL     1      23.716   3.117  21.659  0.00  0.00    +0.004 C 
ATOM      9  C   UNL     1      23.259   4.239  20.695  0.00  0.00    +0.012 C 
ATOM     10  C   UNL     1      24.533   2.081  20.868  0.00  0.00    +0.019 C 
ATOM     11  C   UNL     1      24.436   4.805  19.883  0.00  0.00    +0.085 C 
ATOM     13  C   UNL     1      25.657   2.721  20.055  0.00  0.00    +0.081 C 
ATOM     40  H   UNL     1      25.920   4.164  18.637  0.00  0.00    +0.122 HD
ENDROOT
BRANCH   8  12
ATOM     12  C   UNL     1      24.504   3.621  22.874  0.00  0.00    +0.100 C 
BRANCH  12  15
ATOM      1  O   UNL     1      24.508   1.717  24.286  0.00  0.00    -0.276 OA
ATOM      5  N   UNL     1      23.236   3.529  24.989  0.00  0.00    -0.298 N 
ATOM      6  N   UNL     1      22.628   5.077  27.268  0.00  0.00    -0.324 N 
ATOM     15  C   UNL     1      24.088   2.864  24.109  0.00  0.00    +0.216 C 
ATOM     17  C   UNL     1      22.761   2.864  26.199  0.00  0.00    +0.126 C 
ATOM     18  C   UNL     1      22.717   4.887  24.814  0.00  0.00    +0.126 C 
ATOM     19  C   UNL     1      23.096   3.693  27.438  0.00  0.00    +0.124 C 
ATOM     20  C   UNL     1      23.046   5.751  26.030  0.00  0.00    +0.124 C 
BRANCH   6  22
ATOM     22  C   UNL     1      22.401   5.833  28.424  0.00  0.00    +0.072 A 
ATOM     25  C   UNL     1      21.224   6.566  28.573  0.00  0.00    +0.141 A 
ATOM     26  C   UNL     1      23.364   5.847  29.433  0.00  0.00    +0.027 A 
ATOM     31  C   UNL     1      21.010   7.313  29.731  0.00  0.00    +0.047 A 
ATOM     34  C   UNL     1      23.150   6.595  30.591  0.00  0.00    +0.002 A 
ATOM     38  C   UNL     1      21.973   7.328  30.740  0.00  0.00    +0.004 A 
BRANCH  25   3
ATOM      3  O   UNL     1      20.271   6.566  27.599  0.00  0.00    -0.493 OA
ATOM     39  C   UNL     1      20.073   7.784  26.886  0.00  0.00    +0.277 C 
ENDBRANCH  25   3
ENDBRANCH   6  22
ENDBRANCH  12  15
ENDBRANCH   8  12
BRANCH   9  14
ATOM     14  C   UNL     1      22.504   5.366  21.404  0.00  0.00    +0.064 C 
BRANCH  14  16
ATOM      2  O   UNL     1      19.233   4.845  19.992  0.00  0.00    -0.354 OA
ATOM      7  N   UNL     1      20.520   4.421  20.304  0.00  0.00    -0.083 NA
ATOM     16  C   UNL     1      21.087   5.465  20.918  0.00  0.00    +0.085 A 
ATOM     21  C   UNL     1      20.216   6.563  21.020  0.00  0.00    +0.076 A 
ATOM     23  C   UNL     1      19.064   6.121  20.423  0.00  0.00    +0.167 A 
BRANCH  23  24
ATOM     24  C   UNL     1      17.776   6.697  20.169  0.00  0.00    +0.020 A 
ATOM     28  C   UNL     1      15.271   7.820  19.674  0.00  0.00    -0.042 A 
ATOM     29  C   UNL     1      17.397   7.872  20.819  0.00  0.00    +0.012 A 
ATOM     30  C   UNL     1      16.903   6.084  19.271  0.00  0.00    +0.012 A 
ATOM     32  C   UNL     1      16.144   8.433  20.572  0.00  0.00    +0.005 A 
ATOM     33  C   UNL     1      15.649   6.645  19.024  0.00  0.00    +0.005 A 
BRANCH  28  27
ATOM     27  C   UNL     1      13.931   8.419  19.410  0.00  0.00    -0.013 C 
ATOM     35  C   UNL     1      12.824   7.414  18.948  0.00  0.00    +0.015 C 
ATOM     36  C   UNL     1      13.358   9.110  20.686  0.00  0.00    +0.015 C 
ATOM     37  C   UNL     1      14.006   9.499  18.285  0.00  0.00    +0.015 C 
ENDBRANCH  28  27
ENDBRANCH  23  24
ENDBRANCH  14  16
ENDBRANCH   9  14
TORSDOF 8
ENDMDL
MODEL 6
REMARK VINA RESULT:      -6.7     23.201     29.366
REMARK  Name = 45360525
REMARK  12 active torsions:
REMARK  status: ('A' for Active; 'I' for Inactive)
REMARK    1  A    between atoms: O_3  and  C_25
REMARK    2  A    between atoms: O_3  and  C_39
REMARK    3  A    between atoms: N_6  and  C_22
REMARK    4  A    between atoms: C_8  and  C_12
REMARK    5  A    between atoms: C_9  and  C_14
REMARK    6  A    between atoms: C_12  and  C_15
REMARK    7  A    between atoms: C_14  and  C_16
REMARK    8  A    between atoms: C_23  and  C_24
REMARK    9  A    between atoms: C_27  and  C_28
REMARK   10  A    between atoms: C_27  and  C_35
REMARK   11  A    between atoms: C_27  and  C_36
REMARK   12  A    between atoms: C_27  and  C_37
REMARK                            x       y       z     vdW  Elec       q    Type
REMARK                         _______ _______ _______ _____ _____    ______ ____
ROOT
ATOM      4  N   UNL     1       3.558  14.150   7.862  0.00  0.00    -0.316 NA
ATOM      8  C   UNL     1       2.540  12.545   5.605  0.00  0.00    +0.004 C 
ATOM      9  C   UNL     1       4.038  12.893   5.775  0.00  0.00    +0.012 C 
ATOM     10  C   UNL     1       1.855  12.594   6.981  0.00  0.00    +0.019 C 
ATOM     11  C   UNL     1       4.231  14.199   6.564  0.00  0.00    +0.085 C 
ATOM     13  C   UNL     1       2.125  13.903   7.721  0.00  0.00    +0.081 C 
ATOM     40  H   UNL     1       3.702  15.034   8.350  0.00  0.00    +0.122 HD
ENDROOT
BRANCH   8  12
ATOM     12  C   UNL     1       1.803  13.435   4.596  0.00  0.00    +0.100 C 
BRANCH  12  15
ATOM      1  O   UNL     1       2.104  12.361   2.505  0.00  0.00    -0.276 OA
ATOM      5  N   UNL     1       0.006  12.165   3.480  0.00  0.00    -0.298 N 
ATOM      6  N   UNL     1      -2.038  10.295   4.017  0.00  0.00    -0.324 N 
ATOM     15  C   UNL     1       1.326  12.607   3.430  0.00  0.00    +0.216 C 
ATOM     17  C   UNL     1      -0.549  11.377   2.382  0.00  0.00    +0.126 C 
ATOM     18  C   UNL     1      -0.947  12.435   4.558  0.00  0.00    +0.126 C 
ATOM     19  C   UNL     1      -1.114  10.054   2.897  0.00  0.00    +0.124 C 
ATOM     20  C   UNL     1      -1.522  11.132   5.110  0.00  0.00    +0.124 C 
BRANCH   6  22
ATOM     22  C   UNL     1      -2.995   9.311   4.291  0.00  0.00    +0.072 A 
ATOM     25  C   UNL     1      -4.291   9.422   3.788  0.00  0.00    +0.141 A 
ATOM     26  C   UNL     1      -2.642   8.212   5.075  0.00  0.00    +0.027 A 
ATOM     31  C   UNL     1      -5.234   8.433   4.068  0.00  0.00    +0.047 A 
ATOM     34  C   UNL     1      -3.586   7.224   5.355  0.00  0.00    +0.002 A 
ATOM     38  C   UNL     1      -4.882   7.335   4.852  0.00  0.00    +0.004 A 
BRANCH  25   3
ATOM      3  O   UNL     1      -4.655  10.488   3.021  0.00  0.00    -0.493 OA
ATOM     39  C   UNL     1      -4.664  10.296   1.608  0.00  0.00    +0.277 C 
ENDBRANCH  25   3
ENDBRANCH   6  22
ENDBRANCH  12  15
ENDBRANCH   8  12
BRANCH   9  14
ATOM     14  C   UNL     1       4.794  12.950   4.447  0.00  0.00    +0.064 C 
BRANCH  14  16
ATOM      2  O   UNL     1       5.442   9.603   3.289  0.00  0.00    -0.354 OA
ATOM      7  N   UNL     1       4.612  10.704   3.467  0.00  0.00    -0.083 NA
ATOM     16  C   UNL     1       5.372  11.612   4.088  0.00  0.00    +0.085 A 
ATOM     21  C   UNL     1       6.676  11.145   4.326  0.00  0.00    +0.076 A 
ATOM     23  C   UNL     1       6.668   9.878   3.804  0.00  0.00    +0.167 A 
BRANCH  23  24
ATOM     24  C   UNL     1       7.638   8.828   3.692  0.00  0.00    +0.020 A 
ATOM     28  C   UNL     1       9.523   6.784   3.472  0.00  0.00    -0.042 A 
ATOM     29  C   UNL     1       7.949   8.045   4.803  0.00  0.00    +0.012 A 
ATOM     30  C   UNL     1       8.268   8.588   2.470  0.00  0.00    +0.012 A 
ATOM     32  C   UNL     1       8.893   7.022   4.693  0.00  0.00    +0.005 A 
ATOM     33  C   UNL     1       9.212   7.566   2.361  0.00  0.00    +0.005 A 
BRANCH  28  27
ATOM     27  C   UNL     1      10.532   5.691   3.356  0.00  0.00    -0.013 C 
ATOM     35  C   UNL     1      10.373   4.517   4.377  0.00  0.00    +0.015 C 
ATOM     36  C   UNL     1      10.483   5.024   1.946  0.00  0.00    +0.015 C 
ATOM     37  C   UNL     1      11.979   6.234   3.569  0.00  0.00    +0.015 C 
ENDBRANCH  28  27
ENDBRANCH  23  24
ENDBRANCH  14  16
ENDBRANCH   9  14
TORSDOF 8
ENDMDL
MODEL 7
REMARK VINA RESULT:      -6.6     13.306     15.969
REMARK  Name = 45360525
REMARK  12 active torsions:
REMARK  status: ('A' for Active; 'I' for Inactive)
REMARK    1  A    between atoms: O_3  and  C_25
REMARK    2  A    between atoms: O_3  and  C_39
REMARK    3  A    between atoms: N_6  and  C_22
REMARK    4  A    between atoms: C_8  and  C_12
REMARK    5  A    between atoms: C_9  and  C_14
REMARK    6  A    between atoms: C_12  and  C_15
REMARK    7  A    between atoms: C_14  and  C_16
REMARK    8  A    between atoms: C_23  and  C_24
REMARK    9  A    between atoms: C_27  and  C_28
REMARK   10  A    between atoms: C_27  and  C_35
REMARK   11  A    between atoms: C_27  and  C_36
REMARK   12  A    between atoms: C_27  and  C_37
REMARK                            x       y       z     vdW  Elec       q    Type
REMARK                         _______ _______ _______ _____ _____    ______ ____
ROOT
ATOM      4  N   UNL     1      16.825  -1.360  32.955  0.00  0.00    -0.316 NA
ATOM      8  C   UNL     1      16.116  -3.511  31.063  0.00  0.00    +0.004 C 
ATOM      9  C   UNL     1      15.573  -3.458  32.512  0.00  0.00    +0.012 C 
ATOM     10  C   UNL     1      16.494  -2.088  30.619  0.00  0.00    +0.019 C 
ATOM     11  C   UNL     1      16.532  -2.705  33.450  0.00  0.00    +0.085 C 
ATOM     13  C   UNL     1      17.415  -1.389  31.619  0.00  0.00    +0.081 C 
ATOM     40  H   UNL     1      17.469  -0.897  33.598  0.00  0.00    +0.122 HD
ENDROOT
BRANCH   8  12
ATOM     12  C   UNL     1      17.294  -4.474  30.873  0.00  0.00    +0.100 C 
BRANCH  12  15
ATOM      1  O   UNL     1      16.344  -6.364  29.802  0.00  0.00    -0.276 OA
ATOM      5  N   UNL     1      17.646  -4.968  28.480  0.00  0.00    -0.298 N 
ATOM      6  N   UNL     1      17.713  -3.713  25.954  0.00  0.00    -0.324 N 
ATOM     15  C   UNL     1      17.048  -5.358  29.677  0.00  0.00    +0.216 C 
ATOM     17  C   UNL     1      17.483  -5.776  27.276  0.00  0.00    +0.126 C 
ATOM     18  C   UNL     1      18.486  -3.783  28.291  0.00  0.00    +0.126 C 
ATOM     19  C   UNL     1      16.916  -4.936  26.133  0.00  0.00    +0.124 C 
ATOM     20  C   UNL     1      17.940  -2.909  27.163  0.00  0.00    +0.124 C 
BRANCH   6  22
ATOM     22  C   UNL     1      17.667  -3.084  24.704  0.00  0.00    +0.072 A 
ATOM     25  C   UNL     1      18.322  -3.639  23.606  0.00  0.00    +0.141 A 
ATOM     26  C   UNL     1      16.956  -1.892  24.563  0.00  0.00    +0.027 A 
ATOM     31  C   UNL     1      18.266  -3.004  22.366  0.00  0.00    +0.047 A 
ATOM     34  C   UNL     1      16.901  -1.256  23.323  0.00  0.00    +0.002 A 
ATOM     38  C   UNL     1      17.556  -1.811  22.225  0.00  0.00    +0.004 A 
BRANCH  25   3
ATOM      3  O   UNL     1      19.022  -4.803  23.723  0.00  0.00    -0.493 OA
ATOM     39  C   UNL     1      19.221  -5.562  22.533  0.00  0.00    +0.277 C 
ENDBRANCH  25   3
ENDBRANCH   6  22
ENDBRANCH  12  15
ENDBRANCH   8  12
BRANCH   9  14
ATOM     14  C   UNL     1      15.242  -4.840  33.078  0.00  0.00    +0.064 C 
BRANCH  14  16
ATOM      2  O   UNL     1      11.734  -4.917  32.274  0.00  0.00    -0.354 OA
ATOM      7  N   UNL     1      12.983  -4.308  32.272  0.00  0.00    -0.083 NA
ATOM     16  C   UNL     1      13.790  -5.172  32.895  0.00  0.00    +0.085 A 
ATOM     21  C   UNL     1      13.113  -6.332  33.308  0.00  0.00    +0.076 A 
ATOM     23  C   UNL     1      11.824  -6.122  32.894  0.00  0.00    +0.167 A 
BRANCH  23  24
ATOM     24  C   UNL     1      10.605  -6.872  32.973  0.00  0.00    +0.020 A 
ATOM     28  C   UNL     1       8.235  -8.334  33.130  0.00  0.00    -0.042 A 
ATOM     29  C   UNL     1      10.426  -7.999  32.170  0.00  0.00    +0.012 A 
ATOM     30  C   UNL     1       9.599  -6.478  33.856  0.00  0.00    +0.012 A 
ATOM     32  C   UNL     1       9.240  -8.729  32.248  0.00  0.00    +0.005 A 
ATOM     33  C   UNL     1       8.413  -7.209  33.934  0.00  0.00    +0.005 A 
BRANCH  28  27
ATOM     27  C   UNL     1       6.966  -9.116  33.213  0.00  0.00    -0.013 C 
ATOM     35  C   UNL     1       6.830 -10.286  32.184  0.00  0.00    +0.015 C 
ATOM     36  C   UNL     1       6.798  -9.775  34.617  0.00  0.00    +0.015 C 
ATOM     37  C   UNL     1       5.724  -8.203  32.971  0.00  0.00    +0.015 C 
ENDBRANCH  28  27
ENDBRANCH  23  24
ENDBRANCH  14  16
ENDBRANCH   9  14
TORSDOF 8
ENDMDL
MODEL 8
REMARK VINA RESULT:      -6.5     18.405     23.128
REMARK  Name = 45360525
REMARK  12 active torsions:
REMARK  status: ('A' for Active; 'I' for Inactive)
REMARK    1  A    between atoms: O_3  and  C_25
REMARK    2  A    between atoms: O_3  and  C_39
REMARK    3  A    between atoms: N_6  and  C_22
REMARK    4  A    between atoms: C_8  and  C_12
REMARK    5  A    between atoms: C_9  and  C_14
REMARK    6  A    between atoms: C_12  and  C_15
REMARK    7  A    between atoms: C_14  and  C_16
REMARK    8  A    between atoms: C_23  and  C_24
REMARK    9  A    between atoms: C_27  and  C_28
REMARK   10  A    between atoms: C_27  and  C_35
REMARK   11  A    between atoms: C_27  and  C_36
REMARK   12  A    between atoms: C_27  and  C_37
REMARK                            x       y       z     vdW  Elec       q    Type
REMARK                         _______ _______ _______ _____ _____    ______ ____
ROOT
ATOM      4  N   UNL     1       8.065   7.616   6.163  0.00  0.00    -0.316 NA
ATOM      8  C   UNL     1      10.475   6.352   5.023  0.00  0.00    +0.004 C 
ATOM      9  C   UNL     1      10.415   7.852   5.396  0.00  0.00    +0.012 C 
ATOM     10  C   UNL     1       9.437   5.585   5.860  0.00  0.00    +0.019 C 
ATOM     11  C   UNL     1       8.978   8.397   5.328  0.00  0.00    +0.085 C 
ATOM     13  C   UNL     1       8.044   6.208   5.775  0.00  0.00    +0.081 C 
ATOM     40  H   UNL     1       7.124   8.002   6.086  0.00  0.00    +0.122 HD
ENDROOT
BRANCH   8  12
ATOM     12  C   UNL     1      10.283   6.072   3.527  0.00  0.00    +0.100 C 
BRANCH  12  15
ATOM      1  O   UNL     1      10.633   3.728   3.536  0.00  0.00    -0.276 OA
ATOM      5  N   UNL     1      12.152   5.000   2.325  0.00  0.00    -0.298 N 
ATOM      6  N   UNL     1      13.532   5.081  -0.136  0.00  0.00    -0.324 N 
ATOM     15  C   UNL     1      11.033   4.824   3.135  0.00  0.00    +0.216 C 
ATOM     17  C   UNL     1      12.953   3.849   1.915  0.00  0.00    +0.126 C 
ATOM     18  C   UNL     1      12.657   6.282   1.829  0.00  0.00    +0.126 C 
ATOM     19  C   UNL     1      13.073   3.788   0.394  0.00  0.00    +0.124 C 
ATOM     20  C   UNL     1      12.776   6.263   0.306  0.00  0.00    +0.124 C 
BRANCH   6  22
ATOM     22  C   UNL     1      14.153   5.087  -1.390  0.00  0.00    +0.072 A 
ATOM     25  C   UNL     1      15.537   5.207  -1.496  0.00  0.00    +0.141 A 
ATOM     26  C   UNL     1      13.373   4.969  -2.541  0.00  0.00    +0.027 A 
ATOM     31  C   UNL     1      16.144   5.209  -2.752  0.00  0.00    +0.047 A 
ATOM     34  C   UNL     1      13.979   4.972  -3.797  0.00  0.00    +0.002 A 
ATOM     38  C   UNL     1      15.364   5.092  -3.903  0.00  0.00    +0.004 A 
BRANCH  25   3
ATOM      3  O   UNL     1      16.317   5.324  -0.384  0.00  0.00    -0.493 OA
ATOM     39  C   UNL     1      16.828   6.620  -0.084  0.00  0.00    +0.277 C 
ENDBRANCH  25   3
ENDBRANCH   6  22
ENDBRANCH  12  15
ENDBRANCH   8  12
BRANCH   9  14
ATOM     14  C   UNL     1      11.358   8.717   4.557  0.00  0.00    +0.064 C 
BRANCH  14  16
ATOM      2  O   UNL     1      14.400   8.449   6.463  0.00  0.00    -0.354 OA
ATOM      7  N   UNL     1      13.016   8.519   6.359  0.00  0.00    -0.083 NA
ATOM     16  C   UNL     1      12.772   8.619   5.049  0.00  0.00    +0.085 A 
ATOM     21  C   UNL     1      13.952   8.616   4.285  0.00  0.00    +0.076 A 
ATOM     23  C   UNL     1      14.946   8.507   5.221  0.00  0.00    +0.167 A 
BRANCH  23  24
ATOM     24  C   UNL     1      16.378   8.444   5.169  0.00  0.00    +0.020 A 
ATOM     28  C   UNL     1      19.162   8.326   5.065  0.00  0.00    -0.042 A 
ATOM     29  C   UNL     1      17.016   8.059   3.990  0.00  0.00    +0.012 A 
ATOM     30  C   UNL     1      17.132   8.772   6.296  0.00  0.00    +0.012 A 
ATOM     32  C   UNL     1      18.409   7.998   3.938  0.00  0.00    +0.005 A 
ATOM     33  C   UNL     1      18.525   8.711   6.244  0.00  0.00    +0.005 A 
BRANCH  28  27
ATOM     27  C   UNL     1      20.652   8.260   5.010  0.00  0.00    -0.013 C 
ATOM     35  C   UNL     1      21.393   8.733   6.304  0.00  0.00    +0.015 C 
ATOM     36  C   UNL     1      21.146   6.802   4.759  0.00  0.00    +0.015 C 
ATOM     37  C   UNL     1      21.214   9.152   3.860  0.00  0.00    +0.015 C 
ENDBRANCH  28  27
ENDBRANCH  23  24
ENDBRANCH  14  16
ENDBRANCH   9  14
TORSDOF 8
ENDMDL
MODEL 9
REMARK VINA RESULT:      -6.4      2.629      4.095
REMARK  Name = 45360525
REMARK  12 active torsions:
REMARK  status: ('A' for Active; 'I' for Inactive)
REMARK    1  A    between atoms: O_3  and  C_25
REMARK    2  A    between atoms: O_3  and  C_39
REMARK    3  A    between atoms: N_6  and  C_22
REMARK    4  A    between atoms: C_8  and  C_12
REMARK    5  A    between atoms: C_9  and  C_14
REMARK    6  A    between atoms: C_12  and  C_15
REMARK    7  A    between atoms: C_14  and  C_16
REMARK    8  A    between atoms: C_23  and  C_24
REMARK    9  A    between atoms: C_27  and  C_28
REMARK   10  A    between atoms: C_27  and  C_35
REMARK   11  A    between atoms: C_27  and  C_36
REMARK   12  A    between atoms: C_27  and  C_37
REMARK                            x       y       z     vdW  Elec       q    Type
REMARK                         _______ _______ _______ _____ _____    ______ ____
ROOT
ATOM      4  N   UNL     1      26.232   4.134  20.212  0.00  0.00    -0.316 NA
ATOM      8  C   UNL     1      24.495   2.764  22.166  0.00  0.00    +0.004 C 
ATOM      9  C   UNL     1      24.074   4.063  21.438  0.00  0.00    +0.012 C 
ATOM     10  C   UNL     1      25.548   2.032  21.315  0.00  0.00    +0.019 C 
ATOM     11  C   UNL     1      25.294   4.906  21.028  0.00  0.00    +0.085 C 
ATOM     13  C   UNL     1      26.707   2.943  20.912  0.00  0.00    +0.081 C 
ATOM     40  H   UNL     1      27.028   4.722  19.967  0.00  0.00    +0.122 HD
ENDROOT
BRANCH   8  12
ATOM     12  C   UNL     1      25.008   2.986  23.594  0.00  0.00    +0.100 C 
BRANCH  12  15
ATOM      1  O   UNL     1      26.531   1.322  24.321  0.00  0.00    -0.276 OA
ATOM      5  N   UNL     1      24.277   0.898  24.689  0.00  0.00    -0.298 N 
ATOM      6  N   UNL     1      22.477  -0.059  26.639  0.00  0.00    -0.324 N 
ATOM     15  C   UNL     1      25.349   1.663  24.232  0.00  0.00    +0.216 C 
ATOM     17  C   UNL     1      24.511  -0.408  25.298  0.00  0.00    +0.126 C 
ATOM     18  C   UNL     1      22.863   1.268  24.601  0.00  0.00    +0.126 C 
ATOM     19  C   UNL     1      23.887  -0.475  26.690  0.00  0.00    +0.124 C 
ATOM     20  C   UNL     1      22.208   1.227  25.980  0.00  0.00    +0.124 C 
BRANCH   6  22
ATOM     22  C   UNL     1      21.630  -0.502  27.662  0.00  0.00    +0.072 A 
ATOM     25  C   UNL     1      20.611  -1.415  27.395  0.00  0.00    +0.141 A 
ATOM     26  C   UNL     1      21.816  -0.024  28.959  0.00  0.00    +0.027 A 
ATOM     31  C   UNL     1      19.777  -1.850  28.424  0.00  0.00    +0.047 A 
ATOM     34  C   UNL     1      20.980  -0.458  29.988  0.00  0.00    +0.002 A 
ATOM     38  C   UNL     1      19.961  -1.371  29.721  0.00  0.00    +0.004 A 
BRANCH  25   3
ATOM      3  O   UNL     1      20.414  -1.895  26.134  0.00  0.00    -0.493 OA
ATOM     39  C   UNL     1      19.329  -1.342  25.393  0.00  0.00    +0.277 C 
ENDBRANCH  25   3
ENDBRANCH   6  22
ENDBRANCH  12  15
ENDBRANCH   8  12
BRANCH   9  14
ATOM     14  C   UNL     1      23.085   4.907  22.245  0.00  0.00    +0.064 C 
BRANCH  14  16
ATOM      2  O   UNL     1      20.155   4.521  20.189  0.00  0.00    -0.354 OA
ATOM      7  N   UNL     1      21.401   4.106  20.645  0.00  0.00    -0.083 NA
ATOM     16  C   UNL     1      21.768   5.032  21.537  0.00  0.00    +0.085 A 
ATOM     21  C   UNL     1      20.804   6.044  21.683  0.00  0.00    +0.076 A 
ATOM     23  C   UNL     1      19.810   5.675  20.814  0.00  0.00    +0.167 A 
BRANCH  23  24
ATOM     24  C   UNL     1      18.540   6.227  20.443  0.00  0.00    +0.020 A 
ATOM     28  C   UNL     1      16.070   7.302  19.720  0.00  0.00    -0.042 A 
ATOM     29  C   UNL     1      18.033   7.332  21.127  0.00  0.00    +0.012 A 
ATOM     30  C   UNL     1      17.812   5.660  19.397  0.00  0.00    +0.012 A 
ATOM     32  C   UNL     1      16.797   7.870  20.765  0.00  0.00    +0.005 A 
ATOM     33  C   UNL     1      16.576   6.197  19.036  0.00  0.00    +0.005 A 
BRANCH  28  27
ATOM     27  C   UNL     1      14.748   7.876  19.333  0.00  0.00    -0.013 C 
ATOM     35  C   UNL     1      14.610   9.425  19.512  0.00  0.00    +0.015 C 
ATOM     36  C   UNL     1      14.430   7.602  17.831  0.00  0.00    +0.015 C 
ATOM     37  C   UNL     1      13.594   7.256  20.180  0.00  0.00    +0.015 C 
ENDBRANCH  28  27
ENDBRANCH  23  24
ENDBRANCH  14  16
ENDBRANCH   9  14
TORSDOF 8
ENDMDL
MODEL 10
REMARK VINA RESULT:      -6.3     14.197     16.412
REMARK  Name = 45360525
REMARK  12 active torsions:
REMARK  status: ('A' for Active; 'I' for Inactive)
REMARK    1  A    between atoms: O_3  and  C_25
REMARK    2  A    between atoms: O_3  and  C_39
REMARK    3  A    between atoms: N_6  and  C_22
REMARK    4  A    between atoms: C_8  and  C_12
REMARK    5  A    between atoms: C_9  and  C_14
REMARK    6  A    between atoms: C_12  and  C_15
REMARK    7  A    between atoms: C_14  and  C_16
REMARK    8  A    between atoms: C_23  and  C_24
REMARK    9  A    between atoms: C_27  and  C_28
REMARK   10  A    between atoms: C_27  and  C_35
REMARK   11  A    between atoms: C_27  and  C_36
REMARK   12  A    between atoms: C_27  and  C_37
REMARK                            x       y       z     vdW  Elec       q    Type
REMARK                         _______ _______ _______ _____ _____    ______ ____
ROOT
ATOM      4  N   UNL     1      16.413  -2.454  33.103  0.00  0.00    -0.316 NA
ATOM      8  C   UNL     1      15.485  -4.288  30.986  0.00  0.00    +0.004 C 
ATOM      9  C   UNL     1      14.812  -4.207  32.378  0.00  0.00    +0.012 C 
ATOM     10  C   UNL     1      16.194  -2.955  30.695  0.00  0.00    +0.019 C 
ATOM     11  C   UNL     1      15.798  -3.733  33.459  0.00  0.00    +0.085 C 
ATOM     13  C   UNL     1      17.125  -2.529  31.830  0.00  0.00    +0.081 C 
ATOM     40  H   UNL     1      17.064  -2.177  33.838  0.00  0.00    +0.122 HD
ENDROOT
BRANCH   8  12
ATOM     12  C   UNL     1      16.454  -5.467  30.829  0.00  0.00    +0.100 C 
BRANCH  12  15
ATOM      1  O   UNL     1      15.209  -7.079  29.617  0.00  0.00    -0.276 OA
ATOM      5  N   UNL     1      16.879  -5.966  28.450  0.00  0.00    -0.298 N 
ATOM      6  N   UNL     1      17.413  -4.693  25.989  0.00  0.00    -0.324 N 
ATOM     15  C   UNL     1      16.119  -6.247  29.583  0.00  0.00    +0.216 C 
ATOM     17  C   UNL     1      16.642  -6.690  27.205  0.00  0.00    +0.126 C 
ATOM     18  C   UNL     1      17.966  -4.987  28.371  0.00  0.00    +0.126 C 
ATOM     19  C   UNL     1      16.360  -5.718  26.060  0.00  0.00    +0.124 C 
ATOM     20  C   UNL     1      17.711  -3.987  27.244  0.00  0.00    +0.124 C 
BRANCH   6  22
ATOM     22  C   UNL     1      17.602  -4.038  24.767  0.00  0.00    +0.072 A 
ATOM     25  C   UNL     1      18.522  -4.520  23.838  0.00  0.00    +0.141 A 
ATOM     26  C   UNL     1      16.856  -2.894  24.481  0.00  0.00    +0.027 A 
ATOM     31  C   UNL     1      18.699  -3.860  22.622  0.00  0.00    +0.047 A 
ATOM     34  C   UNL     1      17.033  -2.232  23.265  0.00  0.00    +0.002 A 
ATOM     38  C   UNL     1      17.954  -2.715  22.336  0.00  0.00    +0.004 A 
BRANCH  25   3
ATOM      3  O   UNL     1      19.260  -5.637  24.098  0.00  0.00    -0.493 OA
ATOM     39  C   UNL     1      18.848  -6.847  23.468  0.00  0.00    +0.277 C 
ENDBRANCH  25   3
ENDBRANCH   6  22
ENDBRANCH  12  15
ENDBRANCH   8  12
BRANCH   9  14
ATOM     14  C   UNL     1      14.145  -5.519  32.797  0.00  0.00    +0.064 C 
BRANCH  14  16
ATOM      2  O   UNL     1      10.592  -4.994  33.050  0.00  0.00    -0.354 OA
ATOM      7  N   UNL     1      11.757  -5.193  32.318  0.00  0.00    -0.083 NA
ATOM     16  C   UNL     1      12.726  -5.295  33.233  0.00  0.00    +0.085 A 
ATOM     21  C   UNL     1      12.237  -5.169  34.545  0.00  0.00    +0.076 A 
ATOM     23  C   UNL     1      10.891  -4.981  34.374  0.00  0.00    +0.167 A 
BRANCH  23  24
ATOM     24  C   UNL     1       9.781  -4.784  35.260  0.00  0.00    +0.020 A 
ATOM     28  C   UNL     1       7.620  -4.397  36.981  0.00  0.00    -0.042 A 
ATOM     29  C   UNL     1       9.948  -4.053  36.436  0.00  0.00    +0.012 A 
ATOM     30  C   UNL     1       8.533  -5.321  34.944  0.00  0.00    +0.012 A 
ATOM     32  C   UNL     1       8.867  -3.860  37.297  0.00  0.00    +0.005 A 
ATOM     33  C   UNL     1       7.452  -5.129  35.806  0.00  0.00    +0.005 A 
BRANCH  28  27
ATOM     27  C   UNL     1       6.465  -4.192  37.903  0.00  0.00    -0.013 C 
ATOM     35  C   UNL     1       5.393  -3.160  37.417  0.00  0.00    +0.015 C 
ATOM     36  C   UNL     1       5.684  -5.522  38.136  0.00  0.00    +0.015 C 
ATOM     37  C   UNL     1       6.939  -3.674  39.296  0.00  0.00    +0.015 C 
ENDBRANCH  28  27
ENDBRANCH  23  24
ENDBRANCH  14  16
ENDBRANCH   9  14
TORSDOF 8
ENDMDL
