MODEL 1
REMARK VINA RESULT:      -6.4      0.000      0.000
REMARK  Name = 45784200
REMARK  5 active torsions:
REMARK  status: ('A' for Active; 'I' for Inactive)
REMARK    1  A    between atoms: N_2  and  C_8
REMARK    2  A    between atoms: C_4  and  C_9
REMARK    3  A    between atoms: C_8  and  C_10
REMARK    4  A    between atoms: C_8  and  C_11
REMARK    5  A    between atoms: C_16  and  C_18
REMARK                            x       y       z     vdW  Elec       q    Type
REMARK                         _______ _______ _______ _____ _____    ______ ____
ROOT
ATOM      1  O   UNL     1       9.776   6.436   4.975  0.00  0.00    -0.439 OA
ATOM      3  N   UNL     1      10.249   4.249   5.338  0.00  0.00    -0.213 NA
ATOM      9  C   UNL     1      10.177   5.235   4.470  0.00  0.00    +0.201 A 
ATOM     12  C   UNL     1       9.865   4.838   6.518  0.00  0.00    +0.110 A 
ATOM     13  C   UNL     1       9.575   6.176   6.300  0.00  0.00    +0.155 A 
ATOM     14  C   UNL     1       9.735   4.318   7.814  0.00  0.00    +0.035 A 
ATOM     15  C   UNL     1       9.156   7.065   7.282  0.00  0.00    +0.049 A 
ATOM     16  C   UNL     1       9.314   5.185   8.832  0.00  0.00    -0.048 A 
ATOM     17  C   UNL     1       9.031   6.532   8.569  0.00  0.00    +0.007 A 
ATOM     18  C   UNL     1       9.165   4.662  10.224  0.00  0.00    +0.044 C 
ENDROOT
BRANCH   9   4
ATOM      2  N   UNL     1      11.946   4.298   1.401  0.00  0.00    -0.299 NA
ATOM      4  C   UNL     1      10.481   5.209   2.990  0.00  0.00    +0.090 C 
ATOM      5  C   UNL     1      11.112   3.887   2.533  0.00  0.00    +0.097 C 
ATOM      6  C   UNL     1      11.461   6.295   2.512  0.00  0.00    +0.029 C 
ATOM      7  C   UNL     1      12.596   5.533   1.841  0.00  0.00    +0.085 C 
BRANCH   2   8
ATOM      8  C   UNL     1      12.904   3.273   1.016  0.00  0.00    +0.050 C 
ATOM     10  C   UNL     1      14.275   3.579   1.614  0.00  0.00    +0.024 C 
ATOM     11  C   UNL     1      12.976   3.192  -0.505  0.00  0.00    +0.024 C 
ENDBRANCH   2   8
ENDBRANCH   9   4
TORSDOF 2
ENDMDL
MODEL 2
REMARK VINA RESULT:      -6.4     13.026     16.384
REMARK  Name = 45784200
REMARK  5 active torsions:
REMARK  status: ('A' for Active; 'I' for Inactive)
REMARK    1  A    between atoms: N_2  and  C_8
REMARK    2  A    between atoms: C_4  and  C_9
REMARK    3  A    between atoms: C_8  and  C_10
REMARK    4  A    between atoms: C_8  and  C_11
REMARK    5  A    between atoms: C_16  and  C_18
REMARK                            x       y       z     vdW  Elec       q    Type
REMARK                         _______ _______ _______ _____ _____    ______ ____
ROOT
ATOM      1  O   UNL     1      15.781   7.941  20.474  0.00  0.00    -0.439 OA
ATOM      3  N   UNL     1      16.127   6.068  19.245  0.00  0.00    -0.213 NA
ATOM      9  C   UNL     1      15.279   6.998  19.627  0.00  0.00    +0.201 A 
ATOM     12  C   UNL     1      17.290   6.416  19.888  0.00  0.00    +0.110 A 
ATOM     13  C   UNL     1      17.082   7.561  20.641  0.00  0.00    +0.155 A 
ATOM     14  C   UNL     1      18.561   5.824  19.891  0.00  0.00    +0.035 A 
ATOM     15  C   UNL     1      18.051   8.186  21.416  0.00  0.00    +0.049 A 
ATOM     16  C   UNL     1      19.566   6.425  20.662  0.00  0.00    -0.048 A 
ATOM     17  C   UNL     1      19.313   7.582  21.409  0.00  0.00    +0.007 A 
ATOM     18  C   UNL     1      20.931   5.818  20.687  0.00  0.00    +0.044 C 
ENDROOT
BRANCH   9   4
ATOM      2  N   UNL     1      12.371   8.420  17.911  0.00  0.00    -0.299 NA
ATOM      4  C   UNL     1      13.824   7.157  19.249  0.00  0.00    +0.090 C 
ATOM      5  C   UNL     1      13.632   7.681  17.819  0.00  0.00    +0.097 C 
ATOM      6  C   UNL     1      13.029   8.134  20.133  0.00  0.00    +0.029 C 
ATOM      7  C   UNL     1      12.459   9.164  19.167  0.00  0.00    +0.085 C 
BRANCH   2   8
ATOM      8  C   UNL     1      12.153   9.289  16.765  0.00  0.00    +0.050 C 
ATOM     10  C   UNL     1      10.842   8.931  16.070  0.00  0.00    +0.024 C 
ATOM     11  C   UNL     1      13.331   9.169  15.805  0.00  0.00    +0.024 C 
ENDBRANCH   2   8
ENDBRANCH   9   4
TORSDOF 2
ENDMDL
MODEL 3
REMARK VINA RESULT:      -6.4     15.007     17.538
REMARK  Name = 45784200
REMARK  5 active torsions:
REMARK  status: ('A' for Active; 'I' for Inactive)
REMARK    1  A    between atoms: N_2  and  C_8
REMARK    2  A    between atoms: C_4  and  C_9
REMARK    3  A    between atoms: C_8  and  C_10
REMARK    4  A    between atoms: C_8  and  C_11
REMARK    5  A    between atoms: C_16  and  C_18
REMARK                            x       y       z     vdW  Elec       q    Type
REMARK                         _______ _______ _______ _____ _____    ______ ____
ROOT
ATOM      1  O   UNL     1      16.447   8.421  20.723  0.00  0.00    -0.439 OA
ATOM      3  N   UNL     1      16.215   6.681  19.289  0.00  0.00    -0.213 NA
ATOM      9  C   UNL     1      15.684   7.771  19.800  0.00  0.00    +0.201 A 
ATOM     12  C   UNL     1      17.432   6.596  19.921  0.00  0.00    +0.110 A 
ATOM     13  C   UNL     1      17.577   7.659  20.800  0.00  0.00    +0.155 A 
ATOM     14  C   UNL     1      18.469   5.659  19.813  0.00  0.00    +0.035 A 
ATOM     15  C   UNL     1      18.691   7.877  21.600  0.00  0.00    +0.049 A 
ATOM     16  C   UNL     1      19.610   5.845  20.606  0.00  0.00    -0.048 A 
ATOM     17  C   UNL     1      19.717   6.933  21.481  0.00  0.00    +0.007 A 
ATOM     18  C   UNL     1      20.733   4.864  20.515  0.00  0.00    +0.044 C 
ENDROOT
BRANCH   9   4
ATOM      2  N   UNL     1      12.055   8.238  19.996  0.00  0.00    -0.299 NA
ATOM      4  C   UNL     1      14.341   8.394  19.496  0.00  0.00    +0.090 C 
ATOM      5  C   UNL     1      13.355   8.291  20.669  0.00  0.00    +0.097 C 
ATOM      6  C   UNL     1      13.594   7.771  18.303  0.00  0.00    +0.029 C 
ATOM      7  C   UNL     1      12.250   7.329  18.867  0.00  0.00    +0.085 C 
BRANCH   2   8
ATOM      8  C   UNL     1      10.989   7.798  20.884  0.00  0.00    +0.050 C 
ATOM     10  C   UNL     1      10.783   8.812  22.006  0.00  0.00    +0.024 C 
ATOM     11  C   UNL     1      11.331   6.423  21.445  0.00  0.00    +0.024 C 
ENDBRANCH   2   8
ENDBRANCH   9   4
TORSDOF 2
ENDMDL
MODEL 4
REMARK VINA RESULT:      -6.4     15.977     17.988
REMARK  Name = 45784200
REMARK  5 active torsions:
REMARK  status: ('A' for Active; 'I' for Inactive)
REMARK    1  A    between atoms: N_2  and  C_8
REMARK    2  A    between atoms: C_4  and  C_9
REMARK    3  A    between atoms: C_8  and  C_10
REMARK    4  A    between atoms: C_8  and  C_11
REMARK    5  A    between atoms: C_16  and  C_18
REMARK                            x       y       z     vdW  Elec       q    Type
REMARK                         _______ _______ _______ _____ _____    ______ ____
ROOT
ATOM      1  O   UNL     1      14.582   6.675  19.317  0.00  0.00    -0.439 OA
ATOM      3  N   UNL     1      15.104   7.666  21.287  0.00  0.00    -0.213 NA
ATOM      9  C   UNL     1      14.175   7.402  20.394  0.00  0.00    +0.201 A 
ATOM     12  C   UNL     1      16.224   7.066  20.764  0.00  0.00    +0.110 A 
ATOM     13  C   UNL     1      15.908   6.459  19.558  0.00  0.00    +0.155 A 
ATOM     14  C   UNL     1      17.541   6.987  21.239  0.00  0.00    +0.035 A 
ATOM     15  C   UNL     1      16.810   5.762  18.763  0.00  0.00    +0.049 A 
ATOM     16  C   UNL     1      18.480   6.291  20.464  0.00  0.00    -0.048 A 
ATOM     17  C   UNL     1      18.119   5.692  19.251  0.00  0.00    +0.007 A 
ATOM     18  C   UNL     1      19.892   6.189  20.943  0.00  0.00    +0.044 C 
ENDROOT
BRANCH   9   4
ATOM      2  N   UNL     1      11.218   9.363  21.310  0.00  0.00    -0.299 NA
ATOM      4  C   UNL     1      12.717   7.800  20.410  0.00  0.00    +0.090 C 
ATOM      5  C   UNL     1      12.510   9.306  20.624  0.00  0.00    +0.097 C 
ATOM      6  C   UNL     1      11.875   7.131  21.511  0.00  0.00    +0.029 C 
ATOM      7  C   UNL     1      11.267   8.284  22.297  0.00  0.00    +0.085 C 
BRANCH   2   8
ATOM      8  C   UNL     1      10.969  10.661  21.919  0.00  0.00    +0.050 C 
ATOM     10  C   UNL     1      12.017  11.670  21.459  0.00  0.00    +0.024 C 
ATOM     11  C   UNL     1      10.974  10.519  23.437  0.00  0.00    +0.024 C 
ENDBRANCH   2   8
ENDBRANCH   9   4
TORSDOF 2
ENDMDL
MODEL 5
REMARK VINA RESULT:      -6.2     14.292     16.154
REMARK  Name = 45784200
REMARK  5 active torsions:
REMARK  status: ('A' for Active; 'I' for Inactive)
REMARK    1  A    between atoms: N_2  and  C_8
REMARK    2  A    between atoms: C_4  and  C_9
REMARK    3  A    between atoms: C_8  and  C_10
REMARK    4  A    between atoms: C_8  and  C_11
REMARK    5  A    between atoms: C_16  and  C_18
REMARK                            x       y       z     vdW  Elec       q    Type
REMARK                         _______ _______ _______ _____ _____    ______ ____
ROOT
ATOM      1  O   UNL     1       0.071   2.033  -6.838  0.00  0.00    -0.439 OA
ATOM      3  N   UNL     1       0.648   0.335  -5.451  0.00  0.00    -0.213 NA
ATOM      9  C   UNL     1       0.911   1.551  -5.880  0.00  0.00    +0.201 A 
ATOM     12  C   UNL     1      -0.458  -0.025  -6.183  0.00  0.00    +0.110 A 
ATOM     13  C   UNL     1      -0.814   1.012  -7.032  0.00  0.00    +0.155 A 
ATOM     14  C   UNL     1      -1.220  -1.202  -6.192  0.00  0.00    +0.035 A 
ATOM     15  C   UNL     1      -1.889   0.980  -7.912  0.00  0.00    +0.049 A 
ATOM     16  C   UNL     1      -2.313  -1.272  -7.067  0.00  0.00    -0.048 A 
ATOM     17  C   UNL     1      -2.639  -0.201  -7.910  0.00  0.00    +0.007 A 
ATOM     18  C   UNL     1      -3.145  -2.512  -7.102  0.00  0.00    +0.044 C 
ENDROOT
BRANCH   9   4
ATOM      2  N   UNL     1       2.550   4.746  -5.149  0.00  0.00    -0.299 NA
ATOM      4  C   UNL     1       2.021   2.481  -5.446  0.00  0.00    +0.090 C 
ATOM      5  C   UNL     1       1.501   3.779  -4.814  0.00  0.00    +0.097 C 
ATOM      6  C   UNL     1       2.955   2.944  -6.578  0.00  0.00    +0.029 C 
ATOM      7  C   UNL     1       2.892   4.465  -6.543  0.00  0.00    +0.085 C 
BRANCH   2   8
ATOM      8  C   UNL     1       2.120   6.122  -4.949  0.00  0.00    +0.050 C 
ATOM     10  C   UNL     1       1.130   6.530  -6.035  0.00  0.00    +0.024 C 
ATOM     11  C   UNL     1       3.339   7.038  -4.946  0.00  0.00    +0.024 C 
ENDBRANCH   2   8
ENDBRANCH   9   4
TORSDOF 2
ENDMDL
MODEL 6
REMARK VINA RESULT:      -6.1     15.246     17.866
REMARK  Name = 45784200
REMARK  5 active torsions:
REMARK  status: ('A' for Active; 'I' for Inactive)
REMARK    1  A    between atoms: N_2  and  C_8
REMARK    2  A    between atoms: C_4  and  C_9
REMARK    3  A    between atoms: C_8  and  C_10
REMARK    4  A    between atoms: C_8  and  C_11
REMARK    5  A    between atoms: C_16  and  C_18
REMARK                            x       y       z     vdW  Elec       q    Type
REMARK                         _______ _______ _______ _____ _____    ______ ____
ROOT
ATOM      1  O   UNL     1      16.227   6.953  19.606  0.00  0.00    -0.439 OA
ATOM      3  N   UNL     1      16.486   8.642  21.096  0.00  0.00    -0.213 NA
ATOM      9  C   UNL     1      15.703   8.052  20.218  0.00  0.00    +0.201 A 
ATOM     12  C   UNL     1      17.626   7.875  21.069  0.00  0.00    +0.110 A 
ATOM     13  C   UNL     1      17.471   6.841  20.158  0.00  0.00    +0.155 A 
ATOM     14  C   UNL     1      18.831   7.980  21.777  0.00  0.00    +0.035 A 
ATOM     15  C   UNL     1      18.434   5.878  19.883  0.00  0.00    +0.049 A 
ATOM     16  C   UNL     1      19.828   7.027  21.526  0.00  0.00    -0.048 A 
ATOM     17  C   UNL     1      19.631   5.997  20.597  0.00  0.00    +0.007 A 
ATOM     18  C   UNL     1      21.125   7.113  22.263  0.00  0.00    +0.044 C 
ENDROOT
BRANCH   9   4
ATOM      2  N   UNL     1      12.040   7.991  20.236  0.00  0.00    -0.299 NA
ATOM      4  C   UNL     1      14.301   8.434  19.802  0.00  0.00    +0.090 C 
ATOM      5  C   UNL     1      13.283   8.304  20.944  0.00  0.00    +0.097 C 
ATOM      6  C   UNL     1      13.714   7.591  18.657  0.00  0.00    +0.029 C 
ATOM      7  C   UNL     1      12.421   7.013  19.218  0.00  0.00    +0.085 C 
BRANCH   2   8
ATOM      8  C   UNL     1      11.005   7.490  21.127  0.00  0.00    +0.050 C 
ATOM     10  C   UNL     1      10.921   8.356  22.381  0.00  0.00    +0.024 C 
ATOM     11  C   UNL     1      11.303   6.038  21.484  0.00  0.00    +0.024 C 
ENDBRANCH   2   8
ENDBRANCH   9   4
TORSDOF 2
ENDMDL
MODEL 7
REMARK VINA RESULT:      -5.7     21.498     23.870
REMARK  Name = 45784200
REMARK  5 active torsions:
REMARK  status: ('A' for Active; 'I' for Inactive)
REMARK    1  A    between atoms: N_2  and  C_8
REMARK    2  A    between atoms: C_4  and  C_9
REMARK    3  A    between atoms: C_8  and  C_10
REMARK    4  A    between atoms: C_8  and  C_11
REMARK    5  A    between atoms: C_16  and  C_18
REMARK                            x       y       z     vdW  Elec       q    Type
REMARK                         _______ _______ _______ _____ _____    ______ ____
ROOT
ATOM      1  O   UNL     1      -4.797 -10.204  14.368  0.00  0.00    -0.439 OA
ATOM      3  N   UNL     1      -3.129 -11.245  15.497  0.00  0.00    -0.213 NA
ATOM      9  C   UNL     1      -3.558 -10.772  14.347  0.00  0.00    +0.201 A 
ATOM     12  C   UNL     1      -4.165 -10.972  16.358  0.00  0.00    +0.110 A 
ATOM     13  C   UNL     1      -5.187 -10.335  15.670  0.00  0.00    +0.155 A 
ATOM     14  C   UNL     1      -4.324 -11.225  17.728  0.00  0.00    +0.035 A 
ATOM     15  C   UNL     1      -6.384  -9.918  16.240  0.00  0.00    +0.049 A 
ATOM     16  C   UNL     1      -5.519 -10.819  18.338  0.00  0.00    -0.048 A 
ATOM     17  C   UNL     1      -6.527 -10.178  17.607  0.00  0.00    +0.007 A 
ATOM     18  C   UNL     1      -5.719 -11.075  19.796  0.00  0.00    +0.044 C 
ENDROOT
BRANCH   9   4
ATOM      2  N   UNL     1      -3.246 -10.749  10.697  0.00  0.00    -0.299 NA
ATOM      4  C   UNL     1      -2.856 -10.776  13.009  0.00  0.00    +0.090 C 
ATOM      5  C   UNL     1      -3.648 -10.045  11.916  0.00  0.00    +0.097 C 
ATOM      6  C   UNL     1      -2.585 -12.174  12.425  0.00  0.00    +0.029 C 
ATOM      7  C   UNL     1      -3.256 -12.166  11.058  0.00  0.00    +0.085 C 
BRANCH   2   8
ATOM      8  C   UNL     1      -4.122 -10.456   9.572  0.00  0.00    +0.050 C 
ATOM     10  C   UNL     1      -4.024  -8.980   9.196  0.00  0.00    +0.024 C 
ATOM     11  C   UNL     1      -5.554 -10.836   9.933  0.00  0.00    +0.024 C 
ENDBRANCH   2   8
ENDBRANCH   9   4
TORSDOF 2
ENDMDL
MODEL 8
REMARK VINA RESULT:      -5.6     22.064     24.639
REMARK  Name = 45784200
REMARK  5 active torsions:
REMARK  status: ('A' for Active; 'I' for Inactive)
REMARK    1  A    between atoms: N_2  and  C_8
REMARK    2  A    between atoms: C_4  and  C_9
REMARK    3  A    between atoms: C_8  and  C_10
REMARK    4  A    between atoms: C_8  and  C_11
REMARK    5  A    between atoms: C_16  and  C_18
REMARK                            x       y       z     vdW  Elec       q    Type
REMARK                         _______ _______ _______ _____ _____    ______ ____
ROOT
ATOM      1  O   UNL     1      -3.307 -11.246  17.027  0.00  0.00    -0.439 OA
ATOM      3  N   UNL     1      -5.001 -10.561  15.685  0.00  0.00    -0.213 NA
ATOM      9  C   UNL     1      -3.716 -10.823  15.798  0.00  0.00    +0.201 A 
ATOM     12  C   UNL     1      -5.490 -10.830  16.941  0.00  0.00    +0.110 A 
ATOM     13  C   UNL     1      -4.456 -11.249  17.764  0.00  0.00    +0.155 A 
ATOM     14  C   UNL     1      -6.787 -10.748  17.468  0.00  0.00    +0.035 A 
ATOM     15  C   UNL     1      -4.602 -11.603  19.100  0.00  0.00    +0.049 A 
ATOM     16  C   UNL     1      -6.974 -11.097  18.813  0.00  0.00    -0.048 A 
ATOM     17  C   UNL     1      -5.902 -11.515  19.611  0.00  0.00    +0.007 A 
ATOM     18  C   UNL     1      -8.344 -11.019  19.404  0.00  0.00    +0.044 C 
ENDROOT
BRANCH   9   4
ATOM      2  N   UNL     1      -2.232 -11.020  12.454  0.00  0.00    -0.299 NA
ATOM      4  C   UNL     1      -2.639 -10.716  14.743  0.00  0.00    +0.090 C 
ATOM      5  C   UNL     1      -3.196 -10.380  13.353  0.00  0.00    +0.097 C 
ATOM      6  C   UNL     1      -1.812 -11.997  14.533  0.00  0.00    +0.029 C 
ATOM      7  C   UNL     1      -1.966 -12.327  13.054  0.00  0.00    +0.085 C 
BRANCH   2   8
ATOM      8  C   UNL     1      -2.731 -11.126  11.091  0.00  0.00    +0.050 C 
ATOM     10  C   UNL     1      -3.252  -9.775  10.611  0.00  0.00    +0.024 C 
ATOM     11  C   UNL     1      -3.826 -12.187  11.033  0.00  0.00    +0.024 C 
ENDBRANCH   2   8
ENDBRANCH   9   4
TORSDOF 2
ENDMDL
MODEL 9
REMARK VINA RESULT:      -5.6     23.425     26.933
REMARK  Name = 45784200
REMARK  5 active torsions:
REMARK  status: ('A' for Active; 'I' for Inactive)
REMARK    1  A    between atoms: N_2  and  C_8
REMARK    2  A    between atoms: C_4  and  C_9
REMARK    3  A    between atoms: C_8  and  C_10
REMARK    4  A    between atoms: C_8  and  C_11
REMARK    5  A    between atoms: C_16  and  C_18
REMARK                            x       y       z     vdW  Elec       q    Type
REMARK                         _______ _______ _______ _____ _____    ______ ____
ROOT
ATOM      1  O   UNL     1      -3.376 -11.090  17.584  0.00  0.00    -0.439 OA
ATOM      3  N   UNL     1      -5.166 -11.316  16.212  0.00  0.00    -0.213 NA
ATOM      9  C   UNL     1      -4.706 -11.350  17.444  0.00  0.00    +0.201 A 
ATOM     12  C   UNL     1      -4.053 -11.009  15.468  0.00  0.00    +0.110 A 
ATOM     13  C   UNL     1      -2.956 -10.870  16.304  0.00  0.00    +0.155 A 
ATOM     14  C   UNL     1      -3.881 -10.829  14.088  0.00  0.00    +0.035 A 
ATOM     15  C   UNL     1      -1.670 -10.560  15.878  0.00  0.00    +0.049 A 
ATOM     16  C   UNL     1      -2.597 -10.516  13.619  0.00  0.00    -0.048 A 
ATOM     17  C   UNL     1      -1.515 -10.384  14.498  0.00  0.00    +0.007 A 
ATOM     18  C   UNL     1      -2.381 -10.318  12.154  0.00  0.00    +0.044 C 
ENDROOT
BRANCH   9   4
ATOM      2  N   UNL     1      -7.521 -12.402  19.541  0.00  0.00    -0.299 NA
ATOM      4  C   UNL     1      -5.461 -11.638  18.722  0.00  0.00    +0.090 C 
ATOM      5  C   UNL     1      -6.490 -12.767  18.566  0.00  0.00    +0.097 C 
ATOM      6  C   UNL     1      -6.265 -10.451  19.280  0.00  0.00    +0.029 C 
ATOM      7  C   UNL     1      -7.697 -10.959  19.382  0.00  0.00    +0.085 C 
BRANCH   2   8
ATOM      8  C   UNL     1      -8.760 -13.138  19.338  0.00  0.00    +0.050 C 
ATOM     10  C   UNL     1      -9.913 -12.172  19.083  0.00  0.00    +0.024 C 
ATOM     11  C   UNL     1      -9.037 -14.011  20.558  0.00  0.00    +0.024 C 
ENDBRANCH   2   8
ENDBRANCH   9   4
TORSDOF 2
ENDMDL
MODEL 10
REMARK VINA RESULT:      -5.6     35.722     37.795
REMARK  Name = 45784200
REMARK  5 active torsions:
REMARK  status: ('A' for Active; 'I' for Inactive)
REMARK    1  A    between atoms: N_2  and  C_8
REMARK    2  A    between atoms: C_4  and  C_9
REMARK    3  A    between atoms: C_8  and  C_10
REMARK    4  A    between atoms: C_8  and  C_11
REMARK    5  A    between atoms: C_16  and  C_18
REMARK                            x       y       z     vdW  Elec       q    Type
REMARK                         _______ _______ _______ _____ _____    ______ ____
ROOT
ATOM      1  O   UNL     1     -16.013   3.652  31.455  0.00  0.00    -0.439 OA
ATOM      3  N   UNL     1     -14.044   3.073  32.419  0.00  0.00    -0.213 NA
ATOM      9  C   UNL     1     -15.059   3.909  32.395  0.00  0.00    +0.201 A 
ATOM     12  C   UNL     1     -14.343   2.184  31.414  0.00  0.00    +0.110 A 
ATOM     13  C   UNL     1     -15.546   2.536  30.822  0.00  0.00    +0.155 A 
ATOM     14  C   UNL     1     -13.656   1.058  30.938  0.00  0.00    +0.035 A 
ATOM     15  C   UNL     1     -16.142   1.849  29.772  0.00  0.00    +0.049 A 
ATOM     16  C   UNL     1     -14.226   0.339  29.878  0.00  0.00    -0.048 A 
ATOM     17  C   UNL     1     -15.445   0.729  29.308  0.00  0.00    +0.007 A 
ATOM     18  C   UNL     1     -13.519  -0.865  29.347  0.00  0.00    +0.044 C 
ENDROOT
BRANCH   9   4
ATOM      2  N   UNL     1     -14.341   7.127  33.993  0.00  0.00    -0.299 NA
ATOM      4  C   UNL     1     -15.305   5.115  33.273  0.00  0.00    +0.090 C 
ATOM      5  C   UNL     1     -14.603   6.380  32.760  0.00  0.00    +0.097 C 
ATOM      6  C   UNL     1     -14.826   4.964  34.727  0.00  0.00    +0.029 C 
ATOM      7  C   UNL     1     -13.866   6.126  34.947  0.00  0.00    +0.085 C 
BRANCH   2   8
ATOM      8  C   UNL     1     -13.382   8.204  33.795  0.00  0.00    +0.050 C 
ATOM     10  C   UNL     1     -12.521   7.927  32.566  0.00  0.00    +0.024 C 
ATOM     11  C   UNL     1     -12.520   8.351  35.044  0.00  0.00    +0.024 C 
ENDBRANCH   2   8
ENDBRANCH   9   4
TORSDOF 2
ENDMDL
