MODEL 1
REMARK VINA RESULT:      -6.6      0.000      0.000
REMARK  Name = 26763402
REMARK  5 active torsions:
REMARK  status: ('A' for Active; 'I' for Inactive)
REMARK    1  A    between atoms: O_3  and  C_12
REMARK    2  A    between atoms: O_3  and  C_22
REMARK    3  A    between atoms: N_6  and  C_11
REMARK    4  A    between atoms: N_7  and  C_15
REMARK    5  A    between atoms: C_22  and  C_23
REMARK                            x       y       z     vdW  Elec       q    Type
REMARK                         _______ _______ _______ _____ _____    ______ ____
ROOT
ATOM      1  O   UNL     1      10.750   5.169   6.071  0.00  0.00    -0.369 OA
ATOM      2  O   UNL     1       9.011   7.452   4.991  0.00  0.00    -0.369 OA
ATOM      9  C   UNL     1      10.354   7.038   4.667  0.00  0.00    +0.172 C 
ATOM     10  C   UNL     1      10.997   6.580   5.960  0.00  0.00    +0.180 C 
ATOM     11  C   UNL     1      10.322   5.789   3.816  0.00  0.00    +0.131 C 
ATOM     12  C   UNL     1      10.234   7.365   6.999  0.00  0.00    +0.176 C 
ATOM     13  C   UNL     1      10.147   4.696   4.856  0.00  0.00    +0.185 C 
ATOM     14  C   UNL     1       8.840   7.398   6.415  0.00  0.00    +0.194 C 
ENDROOT
BRANCH  11   6
ATOM      4  O   UNL     1      11.248   3.393   2.525  0.00  0.00    -0.253 OA
ATOM      6  N   UNL     1      11.553   5.625   3.082  0.00  0.00    -0.292 N 
ATOM      7  N   UNL     1      13.154   4.531   1.843  0.00  0.00    -0.297 N 
ATOM     21  C   UNL     1      11.923   4.420   2.487  0.00  0.00    +0.300 C 
ATOM     24  H   UNL     1      12.210   6.399   3.050  0.00  0.00    +0.151 HD
ATOM     25  H   UNL     1      13.661   5.406   1.935  0.00  0.00    +0.151 HD
BRANCH   7  15
ATOM     15  C   UNL     1      13.780   3.434   1.140  0.00  0.00    +0.074 C 
ATOM     16  C   UNL     1      13.202   3.281  -0.271  0.00  0.00    +0.022 C 
ATOM     17  C   UNL     1      15.303   3.602   1.100  0.00  0.00    +0.022 C 
ATOM     18  C   UNL     1      13.645   4.404  -1.209  0.00  0.00    +0.002 C 
ATOM     19  C   UNL     1      15.742   4.725   0.160  0.00  0.00    +0.002 C 
ATOM     20  C   UNL     1      15.164   4.545  -1.240  0.00  0.00    +0.000 C 
ENDBRANCH   7  15
ENDBRANCH  11   6
BRANCH  12   3
ATOM      3  O   UNL     1      10.258   6.776   8.280  0.00  0.00    -0.362 OA
BRANCH   3  22
ATOM     22  C   UNL     1       9.046   6.083   8.572  0.00  0.00    +0.255 C 
BRANCH  22  23
ATOM      5  O   UNL     1       8.884   4.504  10.393  0.00  0.00    -0.274 OA
ATOM      8  N   UNL     1      10.240   4.001   8.604  0.00  0.00    -0.327 N 
ATOM     23  C   UNL     1       9.361   4.800   9.302  0.00  0.00    +0.236 C 
ATOM     26  H   UNL     1      10.619   4.271   7.702  0.00  0.00    +0.145 HD
ATOM     27  H   UNL     1      10.540   3.105   8.976  0.00  0.00    +0.145 HD
ENDBRANCH  22  23
ENDBRANCH   3  22
ENDBRANCH  12   3
TORSDOF 5
ENDMDL
MODEL 2
REMARK VINA RESULT:      -6.5     15.492     17.798
REMARK  Name = 26763402
REMARK  5 active torsions:
REMARK  status: ('A' for Active; 'I' for Inactive)
REMARK    1  A    between atoms: O_3  and  C_12
REMARK    2  A    between atoms: O_3  and  C_22
REMARK    3  A    between atoms: N_6  and  C_11
REMARK    4  A    between atoms: N_7  and  C_15
REMARK    5  A    between atoms: C_22  and  C_23
REMARK                            x       y       z     vdW  Elec       q    Type
REMARK                         _______ _______ _______ _____ _____    ______ ____
ROOT
ATOM      1  O   UNL     1      14.399   7.413  21.186  0.00  0.00    -0.369 OA
ATOM      2  O   UNL     1      14.293   7.420  18.121  0.00  0.00    -0.369 OA
ATOM      9  C   UNL     1      15.302   7.881  19.044  0.00  0.00    +0.172 C 
ATOM     10  C   UNL     1      14.573   8.474  20.233  0.00  0.00    +0.180 C 
ATOM     11  C   UNL     1      16.049   6.704  19.627  0.00  0.00    +0.131 C 
ATOM     12  C   UNL     1      13.258   8.902  19.628  0.00  0.00    +0.176 C 
ATOM     13  C   UNL     1      15.119   6.252  20.740  0.00  0.00    +0.185 C 
ATOM     14  C   UNL     1      13.003   7.811  18.612  0.00  0.00    +0.194 C 
ENDROOT
BRANCH  11   6
ATOM      4  O   UNL     1      18.484   5.177  19.561  0.00  0.00    -0.253 OA
ATOM      6  N   UNL     1      17.333   7.105  20.146  0.00  0.00    -0.292 N 
ATOM      7  N   UNL     1      19.572   6.919  20.645  0.00  0.00    -0.297 N 
ATOM     21  C   UNL     1      18.466   6.296  20.071  0.00  0.00    +0.300 C 
ATOM     24  H   UNL     1      17.405   7.986  20.645  0.00  0.00    +0.151 HD
ATOM     25  H   UNL     1      19.429   7.814  21.102  0.00  0.00    +0.151 HD
BRANCH   7  15
ATOM     15  C   UNL     1      20.881   6.308  20.705  0.00  0.00    +0.074 C 
ATOM     16  C   UNL     1      21.985   7.347  20.481  0.00  0.00    +0.022 C 
ATOM     17  C   UNL     1      21.081   5.561  22.028  0.00  0.00    +0.022 C 
ATOM     18  C   UNL     1      22.147   8.293  21.672  0.00  0.00    +0.002 C 
ATOM     19  C   UNL     1      21.244   6.510  23.216  0.00  0.00    +0.002 C 
ATOM     20  C   UNL     1      22.355   7.527  22.975  0.00  0.00    +0.000 C 
ENDBRANCH   7  15
ENDBRANCH  11   6
BRANCH  12   3
ATOM      3  O   UNL     1      12.212   9.006  20.568  0.00  0.00    -0.362 OA
BRANCH   3  22
ATOM     22  C   UNL     1      11.173   8.062  20.318  0.00  0.00    +0.255 C 
BRANCH  22  23
ATOM      5  O   UNL     1      10.232   7.540  22.481  0.00  0.00    -0.274 OA
ATOM      8  N   UNL     1      11.661   6.028  21.497  0.00  0.00    -0.327 N 
ATOM     23  C   UNL     1      10.957   7.212  21.546  0.00  0.00    +0.236 C 
ATOM     26  H   UNL     1      12.253   5.782  20.710  0.00  0.00    +0.145 HD
ATOM     27  H   UNL     1      11.608   5.357  22.257  0.00  0.00    +0.145 HD
ENDBRANCH  22  23
ENDBRANCH   3  22
ENDBRANCH  12   3
TORSDOF 5
ENDMDL
MODEL 3
REMARK VINA RESULT:      -6.4     13.625     19.007
REMARK  Name = 26763402
REMARK  5 active torsions:
REMARK  status: ('A' for Active; 'I' for Inactive)
REMARK    1  A    between atoms: O_3  and  C_12
REMARK    2  A    between atoms: O_3  and  C_22
REMARK    3  A    between atoms: N_6  and  C_11
REMARK    4  A    between atoms: N_7  and  C_15
REMARK    5  A    between atoms: C_22  and  C_23
REMARK                            x       y       z     vdW  Elec       q    Type
REMARK                         _______ _______ _______ _____ _____    ______ ____
ROOT
ATOM      1  O   UNL     1      10.647   8.316  20.036  0.00  0.00    -0.369 OA
ATOM      2  O   UNL     1      13.295   7.716  21.462  0.00  0.00    -0.369 OA
ATOM      9  C   UNL     1      12.468   8.897  21.440  0.00  0.00    +0.172 C 
ATOM     10  C   UNL     1      11.903   9.013  20.038  0.00  0.00    +0.180 C 
ATOM     11  C   UNL     1      11.246   8.693  22.306  0.00  0.00    +0.131 C 
ATOM     12  C   UNL     1      12.942   8.297  19.209  0.00  0.00    +0.176 C 
ATOM     13  C   UNL     1      10.320   7.925  21.379  0.00  0.00    +0.185 C 
ATOM     14  C   UNL     1      13.374   7.181  20.133  0.00  0.00    +0.194 C 
ENDROOT
BRANCH  11   6
ATOM      4  O   UNL     1      12.649  10.983  23.332  0.00  0.00    -0.253 OA
ATOM      6  N   UNL     1      10.668   9.953  22.701  0.00  0.00    -0.292 N 
ATOM      7  N   UNL     1      10.627  12.112  23.497  0.00  0.00    -0.297 N 
ATOM     21  C   UNL     1      11.428  11.014  23.191  0.00  0.00    +0.300 C 
ATOM     24  H   UNL     1       9.657  10.054  22.683  0.00  0.00    +0.151 HD
ATOM     25  H   UNL     1       9.621  12.005  23.410  0.00  0.00    +0.151 HD
BRANCH   7  15
ATOM     15  C   UNL     1      11.152  13.352  24.023  0.00  0.00    +0.074 C 
ATOM     16  C   UNL     1      11.986  14.088  22.969  0.00  0.00    +0.022 C 
ATOM     17  C   UNL     1      10.028  14.242  24.563  0.00  0.00    +0.022 C 
ATOM     18  C   UNL     1      11.125  14.688  21.857  0.00  0.00    +0.002 C 
ATOM     19  C   UNL     1       9.170  14.841  23.449  0.00  0.00    +0.002 C 
ATOM     20  C   UNL     1      10.020  15.578  22.419  0.00  0.00    +0.000 C 
ENDBRANCH   7  15
ENDBRANCH  11   6
BRANCH  12   3
ATOM      3  O   UNL     1      12.445   7.808  17.983  0.00  0.00    -0.362 OA
BRANCH   3  22
ATOM     22  C   UNL     1      12.543   8.778  16.943  0.00  0.00    +0.255 C 
BRANCH  22  23
ATOM      5  O   UNL     1      11.045   9.533  15.203  0.00  0.00    -0.274 OA
ATOM      8  N   UNL     1      10.201   8.250  16.918  0.00  0.00    -0.327 N 
ATOM     23  C   UNL     1      11.209   8.910  16.248  0.00  0.00    +0.236 C 
ATOM     26  H   UNL     1      10.365   7.742  17.780  0.00  0.00    +0.145 HD
ATOM     27  H   UNL     1       9.250   8.254  16.563  0.00  0.00    +0.145 HD
ENDBRANCH  22  23
ENDBRANCH   3  22
ENDBRANCH  12   3
TORSDOF 5
ENDMDL
MODEL 4
REMARK VINA RESULT:      -6.2     22.496     25.754
REMARK  Name = 26763402
REMARK  5 active torsions:
REMARK  status: ('A' for Active; 'I' for Inactive)
REMARK    1  A    between atoms: O_3  and  C_12
REMARK    2  A    between atoms: O_3  and  C_22
REMARK    3  A    between atoms: N_6  and  C_11
REMARK    4  A    between atoms: N_7  and  C_15
REMARK    5  A    between atoms: C_22  and  C_23
REMARK                            x       y       z     vdW  Elec       q    Type
REMARK                         _______ _______ _______ _____ _____    ______ ____
ROOT
ATOM      1  O   UNL     1      -6.687 -11.001  16.632  0.00  0.00    -0.369 OA
ATOM      2  O   UNL     1      -3.820 -11.500  17.596  0.00  0.00    -0.369 OA
ATOM      9  C   UNL     1      -4.447 -11.710  16.315  0.00  0.00    +0.172 C 
ATOM     10  C   UNL     1      -5.862 -12.176  16.588  0.00  0.00    +0.180 C 
ATOM     11  C   UNL     1      -4.632 -10.389  15.604  0.00  0.00    +0.131 C 
ATOM     12  C   UNL     1      -5.736 -12.820  17.948  0.00  0.00    +0.176 C 
ATOM     13  C   UNL     1      -5.909  -9.860  16.236  0.00  0.00    +0.185 C 
ATOM     14  C   UNL     1      -4.718 -11.933  18.628  0.00  0.00    +0.194 C 
ENDROOT
BRANCH  11   6
ATOM      4  O   UNL     1      -2.539 -10.416  13.633  0.00  0.00    -0.253 OA
ATOM      6  N   UNL     1      -4.788 -10.576  14.183  0.00  0.00    -0.292 N 
ATOM      7  N   UNL     1      -4.135 -10.776  11.985  0.00  0.00    -0.297 N 
ATOM     21  C   UNL     1      -3.712 -10.574  13.297  0.00  0.00    +0.300 C 
ATOM     24  H   UNL     1      -5.726 -10.650  13.800  0.00  0.00    +0.151 HD
ATOM     25  H   UNL     1      -5.134 -10.823  11.810  0.00  0.00    +0.151 HD
BRANCH   7  15
ATOM     15  C   UNL     1      -3.229 -10.821  10.860  0.00  0.00    +0.074 C 
ATOM     16  C   UNL     1      -3.770 -11.732   9.753  0.00  0.00    +0.022 C 
ATOM     17  C   UNL     1      -2.939  -9.413  10.328  0.00  0.00    +0.022 C 
ATOM     18  C   UNL     1      -4.968 -11.120   9.025  0.00  0.00    +0.002 C 
ATOM     19  C   UNL     1      -4.139  -8.805   9.601  0.00  0.00    +0.002 C 
ATOM     20  C   UNL     1      -4.652  -9.724   8.496  0.00  0.00    +0.000 C 
ENDBRANCH   7  15
ENDBRANCH  11   6
BRANCH  12   3
ATOM      3  O   UNL     1      -6.951 -12.876  18.661  0.00  0.00    -0.362 OA
BRANCH   3  22
ATOM     22  C   UNL     1      -7.015 -11.887  19.685  0.00  0.00    +0.255 C 
BRANCH  22  23
ATOM      5  O   UNL     1      -9.361 -11.634  20.205  0.00  0.00    -0.274 OA
ATOM      8  N   UNL     1      -8.332 -10.038  18.905  0.00  0.00    -0.327 N 
ATOM     23  C   UNL     1      -8.359 -11.201  19.643  0.00  0.00    +0.236 C 
ATOM     26  H   UNL     1      -7.489  -9.703  18.451  0.00  0.00    +0.145 HD
ATOM     27  H   UNL     1      -9.167  -9.472  18.792  0.00  0.00    +0.145 HD
ENDBRANCH  22  23
ENDBRANCH   3  22
ENDBRANCH  12   3
TORSDOF 5
ENDMDL
MODEL 5
REMARK VINA RESULT:      -6.2     36.370     38.116
REMARK  Name = 26763402
REMARK  5 active torsions:
REMARK  status: ('A' for Active; 'I' for Inactive)
REMARK    1  A    between atoms: O_3  and  C_12
REMARK    2  A    between atoms: O_3  and  C_22
REMARK    3  A    between atoms: N_6  and  C_11
REMARK    4  A    between atoms: N_7  and  C_15
REMARK    5  A    between atoms: C_22  and  C_23
REMARK                            x       y       z     vdW  Elec       q    Type
REMARK                         _______ _______ _______ _____ _____    ______ ____
ROOT
ATOM      1  O   UNL     1     -14.706   4.339  30.999  0.00  0.00    -0.369 OA
ATOM      2  O   UNL     1     -14.965   3.237  33.849  0.00  0.00    -0.369 OA
ATOM      9  C   UNL     1     -13.968   4.081  33.238  0.00  0.00    +0.172 C 
ATOM     10  C   UNL     1     -13.789   3.592  31.815  0.00  0.00    +0.180 C 
ATOM     11  C   UNL     1     -14.505   5.484  33.074  0.00  0.00    +0.131 C 
ATOM     12  C   UNL     1     -14.189   2.139  31.917  0.00  0.00    +0.176 C 
ATOM     13  C   UNL     1     -15.314   5.371  31.793  0.00  0.00    +0.185 C 
ATOM     14  C   UNL     1     -15.308   2.187  32.932  0.00  0.00    +0.194 C 
ENDROOT
BRANCH  11   6
ATOM      4  O   UNL     1     -14.516   8.217  33.967  0.00  0.00    -0.253 OA
ATOM      6  N   UNL     1     -13.435   6.441  32.936  0.00  0.00    -0.292 N 
ATOM      7  N   UNL     1     -12.359   8.465  33.143  0.00  0.00    -0.297 N 
ATOM     21  C   UNL     1     -13.528   7.752  33.401  0.00  0.00    +0.300 C 
ATOM     24  H   UNL     1     -12.601   6.171  32.424  0.00  0.00    +0.151 HD
ATOM     25  H   UNL     1     -11.631   8.005  32.605  0.00  0.00    +0.151 HD
BRANCH   7  15
ATOM     15  C   UNL     1     -12.178   9.849  33.518  0.00  0.00    +0.074 C 
ATOM     16  C   UNL     1     -11.894   9.981  35.018  0.00  0.00    +0.022 C 
ATOM     17  C   UNL     1     -11.073  10.506  32.684  0.00  0.00    +0.022 C 
ATOM     18  C   UNL     1     -10.498   9.484  35.395  0.00  0.00    +0.002 C 
ATOM     19  C   UNL     1      -9.679  10.008  33.064  0.00  0.00    +0.002 C 
ATOM     20  C   UNL     1      -9.415  10.160  34.559  0.00  0.00    +0.000 C 
ENDBRANCH   7  15
ENDBRANCH  11   6
BRANCH  12   3
ATOM      3  O   UNL     1     -14.608   1.583  30.691  0.00  0.00    -0.362 OA
BRANCH   3  22
ATOM     22  C   UNL     1     -13.536   0.945  30.001  0.00  0.00    +0.255 C 
BRANCH  22  23
ATOM      5  O   UNL     1     -14.964  -1.005  29.992  0.00  0.00    -0.274 OA
ATOM      8  N   UNL     1     -12.733  -1.258  29.484  0.00  0.00    -0.327 N 
ATOM     23  C   UNL     1     -13.845  -0.524  29.834  0.00  0.00    +0.236 C 
ATOM     26  H   UNL     1     -11.820  -0.834  29.360  0.00  0.00    +0.145 HD
ATOM     27  H   UNL     1     -12.795  -2.261  29.338  0.00  0.00    +0.145 HD
ENDBRANCH  22  23
ENDBRANCH   3  22
ENDBRANCH  12   3
TORSDOF 5
ENDMDL
MODEL 6
REMARK VINA RESULT:      -6.0      5.297      6.191
REMARK  Name = 26763402
REMARK  5 active torsions:
REMARK  status: ('A' for Active; 'I' for Inactive)
REMARK    1  A    between atoms: O_3  and  C_12
REMARK    2  A    between atoms: O_3  and  C_22
REMARK    3  A    between atoms: N_6  and  C_11
REMARK    4  A    between atoms: N_7  and  C_15
REMARK    5  A    between atoms: C_22  and  C_23
REMARK                            x       y       z     vdW  Elec       q    Type
REMARK                         _______ _______ _______ _____ _____    ______ ____
ROOT
ATOM      1  O   UNL     1      12.969   7.027   5.165  0.00  0.00    -0.369 OA
ATOM      2  O   UNL     1      11.983   9.170   7.124  0.00  0.00    -0.369 OA
ATOM      9  C   UNL     1      13.233   8.456   7.039  0.00  0.00    +0.172 C 
ATOM     10  C   UNL     1      12.904   7.043   6.600  0.00  0.00    +0.180 C 
ATOM     11  C   UNL     1      14.068   9.002   5.903  0.00  0.00    +0.131 C 
ATOM     12  C   UNL     1      11.489   6.870   7.097  0.00  0.00    +0.176 C 
ATOM     13  C   UNL     1      13.480   8.286   4.699  0.00  0.00    +0.185 C 
ATOM     14  C   UNL     1      10.906   8.250   6.892  0.00  0.00    +0.194 C 
ENDROOT
BRANCH  11   6
ATOM      4  O   UNL     1      16.314  10.485   4.893  0.00  0.00    -0.253 OA
ATOM      6  N   UNL     1      15.463   8.681   6.078  0.00  0.00    -0.292 N 
ATOM      7  N   UNL     1      17.740   8.930   5.862  0.00  0.00    -0.297 N 
ATOM     21  C   UNL     1      16.491   9.460   5.550  0.00  0.00    +0.300 C 
ATOM     24  H   UNL     1      15.709   7.816   6.550  0.00  0.00    +0.151 HD
ATOM     25  H   UNL     1      17.770   8.039   6.349  0.00  0.00    +0.151 HD
BRANCH   7  15
ATOM     15  C   UNL     1      18.984   9.535   5.442  0.00  0.00    +0.074 C 
ATOM     16  C   UNL     1      19.992   9.580   6.596  0.00  0.00    +0.022 C 
ATOM     17  C   UNL     1      19.566   8.811   4.224  0.00  0.00    +0.022 C 
ATOM     18  C   UNL     1      20.546   8.197   6.942  0.00  0.00    +0.002 C 
ATOM     19  C   UNL     1      20.119   7.430   4.574  0.00  0.00    +0.002 C 
ATOM     20  C   UNL     1      21.129   7.501   5.716  0.00  0.00    +0.000 C 
ENDBRANCH   7  15
ENDBRANCH  11   6
BRANCH  12   3
ATOM      3  O   UNL     1      10.765   5.880   6.401  0.00  0.00    -0.362 OA
BRANCH   3  22
ATOM     22  C   UNL     1       9.474   5.665   6.968  0.00  0.00    +0.255 C 
BRANCH  22  23
ATOM      5  O   UNL     1       9.167   5.415   9.352  0.00  0.00    -0.274 OA
ATOM      8  N   UNL     1      10.309   3.782   8.202  0.00  0.00    -0.327 N 
ATOM     23  C   UNL     1       9.618   4.970   8.301  0.00  0.00    +0.236 C 
ATOM     26  H   UNL     1      10.672   3.438   7.319  0.00  0.00    +0.145 HD
ATOM     27  H   UNL     1      10.480   3.207   9.021  0.00  0.00    +0.145 HD
ENDBRANCH  22  23
ENDBRANCH   3  22
ENDBRANCH  12   3
TORSDOF 5
ENDMDL
MODEL 7
REMARK VINA RESULT:      -6.0      1.783      2.258
REMARK  Name = 26763402
REMARK  5 active torsions:
REMARK  status: ('A' for Active; 'I' for Inactive)
REMARK    1  A    between atoms: O_3  and  C_12
REMARK    2  A    between atoms: O_3  and  C_22
REMARK    3  A    between atoms: N_6  and  C_11
REMARK    4  A    between atoms: N_7  and  C_15
REMARK    5  A    between atoms: C_22  and  C_23
REMARK                            x       y       z     vdW  Elec       q    Type
REMARK                         _______ _______ _______ _____ _____    ______ ____
ROOT
ATOM      1  O   UNL     1       9.059   5.818   5.267  0.00  0.00    -0.369 OA
ATOM      2  O   UNL     1      11.520   7.285   6.361  0.00  0.00    -0.369 OA
ATOM      9  C   UNL     1      11.384   6.278   5.338  0.00  0.00    +0.172 C 
ATOM     10  C   UNL     1      10.300   5.325   5.798  0.00  0.00    +0.180 C 
ATOM     11  C   UNL     1      10.817   6.891   4.078  0.00  0.00    +0.131 C 
ATOM     12  C   UNL     1      10.360   5.466   7.301  0.00  0.00    +0.176 C 
ATOM     13  C   UNL     1       9.327   6.911   4.373  0.00  0.00    +0.185 C 
ATOM     14  C   UNL     1      10.681   6.933   7.472  0.00  0.00    +0.194 C 
ENDROOT
BRANCH  11   6
ATOM      4  O   UNL     1      13.270   6.864   2.580  0.00  0.00    -0.253 OA
ATOM      6  N   UNL     1      11.113   6.080   2.923  0.00  0.00    -0.292 N 
ATOM      7  N   UNL     1      12.362   5.252   1.176  0.00  0.00    -0.297 N 
ATOM     21  C   UNL     1      12.336   6.133   2.255  0.00  0.00    +0.300 C 
ATOM     24  H   UNL     1      10.381   5.492   2.538  0.00  0.00    +0.151 HD
ATOM     25  H   UNL     1      11.509   4.748   0.954  0.00  0.00    +0.151 HD
BRANCH   7  15
ATOM     15  C   UNL     1      13.507   5.099   0.308  0.00  0.00    +0.074 C 
ATOM     16  C   UNL     1      13.759   3.623  -0.018  0.00  0.00    +0.022 C 
ATOM     17  C   UNL     1      13.346   5.930  -0.970  0.00  0.00    +0.022 C 
ATOM     18  C   UNL     1      12.707   3.046  -0.966  0.00  0.00    +0.002 C 
ATOM     19  C   UNL     1      12.294   5.350  -1.915  0.00  0.00    +0.002 C 
ATOM     20  C   UNL     1      12.571   3.884  -2.234  0.00  0.00    +0.000 C 
ENDBRANCH   7  15
ENDBRANCH  11   6
BRANCH  12   3
ATOM      3  O   UNL     1       9.159   5.107   7.948  0.00  0.00    -0.362 OA
BRANCH   3  22
ATOM     22  C   UNL     1       8.995   5.795   9.186  0.00  0.00    +0.255 C 
BRANCH  22  23
ATOM      5  O   UNL     1      10.272   4.315  10.605  0.00  0.00    -0.274 OA
ATOM      8  N   UNL     1       8.029   4.599  11.030  0.00  0.00    -0.327 N 
ATOM     23  C   UNL     1       9.193   4.831  10.330  0.00  0.00    +0.236 C 
ATOM     26  H   UNL     1       7.150   5.040  10.780  0.00  0.00    +0.145 HD
ATOM     27  H   UNL     1       8.014   3.971  11.827  0.00  0.00    +0.145 HD
ENDBRANCH  22  23
ENDBRANCH   3  22
ENDBRANCH  12   3
TORSDOF 5
ENDMDL
MODEL 8
REMARK VINA RESULT:      -5.8     17.185     20.183
REMARK  Name = 26763402
REMARK  5 active torsions:
REMARK  status: ('A' for Active; 'I' for Inactive)
REMARK    1  A    between atoms: O_3  and  C_12
REMARK    2  A    between atoms: O_3  and  C_22
REMARK    3  A    between atoms: N_6  and  C_11
REMARK    4  A    between atoms: N_7  and  C_15
REMARK    5  A    between atoms: C_22  and  C_23
REMARK                            x       y       z     vdW  Elec       q    Type
REMARK                         _______ _______ _______ _____ _____    ______ ____
ROOT
ATOM      1  O   UNL     1      21.031   5.462  23.048  0.00  0.00    -0.369 OA
ATOM      2  O   UNL     1      22.182   7.278  20.863  0.00  0.00    -0.369 OA
ATOM      9  C   UNL     1      20.848   6.777  21.084  0.00  0.00    +0.172 C 
ATOM     10  C   UNL     1      20.991   5.365  21.615  0.00  0.00    +0.180 C 
ATOM     11  C   UNL     1      20.193   7.527  22.221  0.00  0.00    +0.131 C 
ATOM     12  C   UNL     1      22.322   4.936  21.047  0.00  0.00    +0.176 C 
ATOM     13  C   UNL     1      20.753   6.815  23.440  0.00  0.00    +0.185 C 
ATOM     14  C   UNL     1      23.121   6.219  21.101  0.00  0.00    +0.194 C 
ENDROOT
BRANCH  11   6
ATOM      4  O   UNL     1      18.375   9.389  20.998  0.00  0.00    -0.253 OA
ATOM      6  N   UNL     1      18.756   7.417  22.161  0.00  0.00    -0.292 N 
ATOM      7  N   UNL     1      16.602   8.027  21.627  0.00  0.00    -0.297 N 
ATOM     21  C   UNL     1      17.950   8.373  21.545  0.00  0.00    +0.300 C 
ATOM     24  H   UNL     1      18.305   6.645  22.642  0.00  0.00    +0.151 HD
ATOM     25  H   UNL     1      16.356   7.202  22.164  0.00  0.00    +0.151 HD
BRANCH   7  15
ATOM     15  C   UNL     1      15.543   8.838  21.072  0.00  0.00    +0.074 C 
ATOM     16  C   UNL     1      15.304   8.498  19.597  0.00  0.00    +0.022 C 
ATOM     17  C   UNL     1      14.254   8.698  21.890  0.00  0.00    +0.022 C 
ATOM     18  C   UNL     1      14.635   7.135  19.412  0.00  0.00    +0.002 C 
ATOM     19  C   UNL     1      13.588   7.335  21.702  0.00  0.00    +0.002 C 
ATOM     20  C   UNL     1      13.350   7.023  20.227  0.00  0.00    +0.000 C 
ENDBRANCH   7  15
ENDBRANCH  11   6
BRANCH  12   3
ATOM      3  O   UNL     1      22.937   3.897  21.775  0.00  0.00    -0.362 OA
BRANCH   3  22
ATOM     22  C   UNL     1      24.307   3.733  21.417  0.00  0.00    +0.255 C 
BRANCH  22  23
ATOM      5  O   UNL     1      24.952   2.992  19.209  0.00  0.00    -0.274 OA
ATOM      8  N   UNL     1      23.853   1.522  20.597  0.00  0.00    -0.327 N 
ATOM     23  C   UNL     1      24.418   2.740  20.284  0.00  0.00    +0.236 C 
ATOM     26  H   UNL     1      23.418   1.341  21.495  0.00  0.00    +0.145 HD
ATOM     27  H   UNL     1      23.856   0.759  19.928  0.00  0.00    +0.145 HD
ENDBRANCH  22  23
ENDBRANCH   3  22
ENDBRANCH  12   3
TORSDOF 5
ENDMDL
MODEL 9
REMARK VINA RESULT:      -5.7      5.654      8.279
REMARK  Name = 26763402
REMARK  5 active torsions:
REMARK  status: ('A' for Active; 'I' for Inactive)
REMARK    1  A    between atoms: O_3  and  C_12
REMARK    2  A    between atoms: O_3  and  C_22
REMARK    3  A    between atoms: N_6  and  C_11
REMARK    4  A    between atoms: N_7  and  C_15
REMARK    5  A    between atoms: C_22  and  C_23
REMARK                            x       y       z     vdW  Elec       q    Type
REMARK                         _______ _______ _______ _____ _____    ______ ____
ROOT
ATOM      1  O   UNL     1      15.158   9.402   5.895  0.00  0.00    -0.369 OA
ATOM      2  O   UNL     1      16.426   7.753   3.642  0.00  0.00    -0.369 OA
ATOM      9  C   UNL     1      15.645   7.361   4.789  0.00  0.00    +0.172 C 
ATOM     10  C   UNL     1      16.048   8.275   5.929  0.00  0.00    +0.180 C 
ATOM     11  C   UNL     1      14.187   7.689   4.562  0.00  0.00    +0.131 C 
ATOM     12  C   UNL     1      17.457   8.664   5.551  0.00  0.00    +0.176 C 
ATOM     13  C   UNL     1      14.129   9.163   4.921  0.00  0.00    +0.185 C 
ATOM     14  C   UNL     1      17.369   8.757   4.044  0.00  0.00    +0.194 C 
ENDROOT
BRANCH  11   6
ATOM      4  O   UNL     1      11.393   7.135   4.172  0.00  0.00    -0.253 OA
ATOM      6  N   UNL     1      13.335   6.904   5.421  0.00  0.00    -0.292 N 
ATOM      7  N   UNL     1      11.393   5.899   6.138  0.00  0.00    -0.297 N 
ATOM     21  C   UNL     1      11.984   6.687   5.153  0.00  0.00    +0.300 C 
ATOM     24  H   UNL     1      13.715   6.547   6.292  0.00  0.00    +0.151 HD
ATOM     25  H   UNL     1      11.955   5.643   6.943  0.00  0.00    +0.151 HD
BRANCH   7  15
ATOM     15  C   UNL     1       9.999   5.516   6.113  0.00  0.00    +0.074 C 
ATOM     16  C   UNL     1       9.777   4.198   6.862  0.00  0.00    +0.022 C 
ATOM     17  C   UNL     1       9.111   6.631   6.675  0.00  0.00    +0.022 C 
ATOM     18  C   UNL     1       9.917   4.355   8.376  0.00  0.00    +0.002 C 
ATOM     19  C   UNL     1       9.253   6.784   8.190  0.00  0.00    +0.002 C 
ATOM     20  C   UNL     1       9.016   5.462   8.914  0.00  0.00    +0.000 C 
ENDBRANCH   7  15
ENDBRANCH  11   6
BRANCH  12   3
ATOM      3  O   UNL     1      17.882   9.877   6.133  0.00  0.00    -0.362 OA
BRANCH   3  22
ATOM     22  C   UNL     1      19.302  10.008   6.116  0.00  0.00    +0.255 C 
BRANCH  22  23
ATOM      5  O   UNL     1      19.651  10.850   8.354  0.00  0.00    -0.274 OA
ATOM      8  N   UNL     1      20.531   8.800   7.788  0.00  0.00    -0.327 N 
ATOM     23  C   UNL     1      19.830   9.958   7.530  0.00  0.00    +0.236 C 
ATOM     26  H   UNL     1      20.663   8.079   7.087  0.00  0.00    +0.145 HD
ATOM     27  H   UNL     1      20.943   8.631   8.700  0.00  0.00    +0.145 HD
ENDBRANCH  22  23
ENDBRANCH   3  22
ENDBRANCH  12   3
TORSDOF 5
ENDMDL
MODEL 10
REMARK VINA RESULT:      -5.7     36.717     39.392
REMARK  Name = 26763402
REMARK  5 active torsions:
REMARK  status: ('A' for Active; 'I' for Inactive)
REMARK    1  A    between atoms: O_3  and  C_12
REMARK    2  A    between atoms: O_3  and  C_22
REMARK    3  A    between atoms: N_6  and  C_11
REMARK    4  A    between atoms: N_7  and  C_15
REMARK    5  A    between atoms: C_22  and  C_23
REMARK                            x       y       z     vdW  Elec       q    Type
REMARK                         _______ _______ _______ _____ _____    ______ ____
ROOT
ATOM      1  O   UNL     1     -14.143   5.060  32.303  0.00  0.00    -0.369 OA
ATOM      2  O   UNL     1     -16.621   5.264  34.098  0.00  0.00    -0.369 OA
ATOM      9  C   UNL     1     -15.213   5.311  34.405  0.00  0.00    +0.172 C 
ATOM     10  C   UNL     1     -14.527   4.327  33.478  0.00  0.00    +0.180 C 
ATOM     11  C   UNL     1     -14.637   6.649  34.001  0.00  0.00    +0.131 C 
ATOM     12  C   UNL     1     -15.628   3.336  33.184  0.00  0.00    +0.176 C 
ATOM     13  C   UNL     1     -14.393   6.459  32.514  0.00  0.00    +0.185 C 
ATOM     14  C   UNL     1     -16.852   4.223  33.138  0.00  0.00    +0.194 C 
ENDROOT
BRANCH  11   6
ATOM      4  O   UNL     1     -13.662   9.228  34.816  0.00  0.00    -0.253 OA
ATOM      6  N   UNL     1     -13.409   6.924  34.705  0.00  0.00    -0.292 N 
ATOM      7  N   UNL     1     -11.791   8.200  35.731  0.00  0.00    -0.297 N 
ATOM     21  C   UNL     1     -13.013   8.212  35.061  0.00  0.00    +0.300 C 
ATOM     24  H   UNL     1     -12.772   6.156  34.895  0.00  0.00    +0.151 HD
ATOM     25  H   UNL     1     -11.306   7.313  35.817  0.00  0.00    +0.151 HD
BRANCH   7  15
ATOM     15  C   UNL     1     -11.143   9.397  36.216  0.00  0.00    +0.074 C 
ATOM     16  C   UNL     1     -11.412   9.602  37.711  0.00  0.00    +0.022 C 
ATOM     17  C   UNL     1      -9.640   9.369  35.921  0.00  0.00    +0.022 C 
ATOM     18  C   UNL     1     -10.661   8.597  38.583  0.00  0.00    +0.002 C 
ATOM     19  C   UNL     1      -8.892   8.363  36.796  0.00  0.00    +0.002 C 
ATOM     20  C   UNL     1      -9.165   8.594  38.279  0.00  0.00    +0.000 C 
ENDBRANCH   7  15
ENDBRANCH  11   6
BRANCH  12   3
ATOM      3  O   UNL     1     -15.441   2.628  31.979  0.00  0.00    -0.362 OA
BRANCH   3  22
ATOM     22  C   UNL     1     -14.378   1.682  32.077  0.00  0.00    +0.255 C 
BRANCH  22  23
ATOM      5  O   UNL     1     -13.617   0.605  30.052  0.00  0.00    -0.274 OA
ATOM      8  N   UNL     1     -13.018   2.793  30.440  0.00  0.00    -0.327 N 
ATOM     23  C   UNL     1     -13.646   1.608  30.758  0.00  0.00    +0.236 C 
ATOM     26  H   UNL     1     -13.059   3.607  31.043  0.00  0.00    +0.145 HD
ATOM     27  H   UNL     1     -12.487   2.888  29.580  0.00  0.00    +0.145 HD
ENDBRANCH  22  23
ENDBRANCH   3  22
ENDBRANCH  12   3
TORSDOF 5
ENDMDL
