MODEL 1
REMARK VINA RESULT:      -5.9      0.000      0.000
REMARK  Name = 44716320
REMARK  7 active torsions:
REMARK  status: ('A' for Active; 'I' for Inactive)
REMARK    1  A    between atoms: N_2  and  C_18
REMARK    2  A    between atoms: N_3  and  C_13
REMARK    3  A    between atoms: N_3  and  C_17
REMARK    4  A    between atoms: C_7  and  C_14
REMARK    5  A    between atoms: C_8  and  C_13
REMARK    6  A    between atoms: C_16  and  C_19
REMARK    7  A    between atoms: C_17  and  C_20
REMARK                            x       y       z     vdW  Elec       q    Type
REMARK                         _______ _______ _______ _____ _____    ______ ____
ROOT
ATOM      1  N   UNL     1      -6.100 -12.030  17.708  0.00  0.00    -0.298 NA
ATOM      6  C   UNL     1      -7.134  -9.738  17.029  0.00  0.00    +0.002 C 
ATOM      7  C   UNL     1      -7.410 -10.805  15.934  0.00  0.00    +0.055 C 
ATOM      8  C   UNL     1      -5.086 -10.953  17.852  0.00  0.00    +0.071 C 
ATOM      9  C   UNL     1      -5.612  -9.626  17.261  0.00  0.00    +0.024 C 
ATOM     10  C   UNL     1      -7.753 -10.273  18.338  0.00  0.00    +0.019 C 
ATOM     11  C   UNL     1      -6.598 -12.076  16.311  0.00  0.00    +0.094 C 
ATOM     12  C   UNL     1      -7.242 -11.701  18.594  0.00  0.00    +0.085 C 
ENDROOT
BRANCH   7  14
ATOM      2  N   UNL     1      -8.183  -9.785  13.742  0.00  0.00    -0.270 N 
ATOM      4  N   UNL     1      -7.816  -9.518  12.477  0.00  0.00    -0.171 NA
ATOM     14  C   UNL     1      -7.217 -10.406  14.478  0.00  0.00    +0.044 A 
ATOM     15  C   UNL     1      -6.143 -10.557  13.635  0.00  0.00    +0.053 A 
ATOM     16  C   UNL     1      -6.568  -9.993  12.418  0.00  0.00    +0.093 A 
ATOM     18  C   UNL     1      -9.505  -9.410  14.187  0.00  0.00    +0.172 C 
BRANCH  16  19
ATOM     19  C   UNL     1      -5.807  -9.898  11.200  0.00  0.00    +0.002 A 
ATOM     21  C   UNL     1      -5.126  -8.719  10.892  0.00  0.00    +0.010 A 
ATOM     22  C   UNL     1      -5.747 -10.985  10.328  0.00  0.00    +0.010 A 
ATOM     24  C   UNL     1      -4.388  -8.627   9.713  0.00  0.00    +0.001 A 
ATOM     25  C   UNL     1      -5.008 -10.893   9.149  0.00  0.00    +0.001 A 
ATOM     26  C   UNL     1      -4.330  -9.715   8.841  0.00  0.00    +0.000 A 
ENDBRANCH  16  19
ENDBRANCH   7  14
BRANCH   8  13
ATOM     13  C   UNL     1      -3.731 -11.344  17.257  0.00  0.00    +0.100 C 
BRANCH  13   3
ATOM      3  N   UNL     1      -3.273 -10.339  16.312  0.00  0.00    -0.309 NA
ATOM     30  H   UNL     1      -3.122  -9.462  16.811  0.00  0.00    +0.122 HD
BRANCH   3  17
ATOM     17  C   UNL     1      -2.024 -10.745  15.680  0.00  0.00    +0.136 C 
BRANCH  17  20
ATOM      5  N   UNL     1      -2.532 -12.582  14.173  0.00  0.00    -0.259 NA
ATOM     20  C   UNL     1      -2.242 -11.266  14.289  0.00  0.00    +0.055 A 
ATOM     23  C   UNL     1      -2.141 -10.396  13.214  0.00  0.00    +0.024 A 
ATOM     27  C   UNL     1      -2.351 -10.910  11.940  0.00  0.00    +0.003 A 
ATOM     28  C   UNL     1      -2.730 -13.044  12.918  0.00  0.00    +0.111 A 
ATOM     29  C   UNL     1      -2.651 -12.257  11.780  0.00  0.00    +0.020 A 
ENDBRANCH  17  20
ENDBRANCH   3  17
ENDBRANCH  13   3
ENDBRANCH   8  13
TORSDOF 6
ENDMDL
MODEL 2
REMARK VINA RESULT:      -5.9      2.601      5.558
REMARK  Name = 44716320
REMARK  7 active torsions:
REMARK  status: ('A' for Active; 'I' for Inactive)
REMARK    1  A    between atoms: N_2  and  C_18
REMARK    2  A    between atoms: N_3  and  C_13
REMARK    3  A    between atoms: N_3  and  C_17
REMARK    4  A    between atoms: C_7  and  C_14
REMARK    5  A    between atoms: C_8  and  C_13
REMARK    6  A    between atoms: C_16  and  C_19
REMARK    7  A    between atoms: C_17  and  C_20
REMARK                            x       y       z     vdW  Elec       q    Type
REMARK                         _______ _______ _______ _____ _____    ______ ____
ROOT
ATOM      1  N   UNL     1      -5.408 -12.295  16.905  0.00  0.00    -0.298 NA
ATOM      6  C   UNL     1      -6.029 -10.740  18.900  0.00  0.00    +0.002 C 
ATOM      7  C   UNL     1      -7.295 -11.457  18.355  0.00  0.00    +0.055 C 
ATOM      8  C   UNL     1      -4.829 -10.942  16.694  0.00  0.00    +0.071 C 
ATOM      9  C   UNL     1      -5.356  -9.952  17.757  0.00  0.00    +0.024 C 
ATOM     10  C   UNL     1      -5.042 -11.846  19.331  0.00  0.00    +0.019 C 
ATOM     11  C   UNL     1      -6.882 -12.200  17.053  0.00  0.00    +0.094 C 
ATOM     12  C   UNL     1      -4.852 -12.836  18.168  0.00  0.00    +0.085 C 
ENDROOT
BRANCH   7  14
ATOM      2  N   UNL     1      -9.670 -10.791  18.956  0.00  0.00    -0.270 N 
ATOM      4  N   UNL     1     -10.684  -9.971  18.633  0.00  0.00    -0.171 NA
ATOM     14  C   UNL     1      -8.563 -10.635  18.173  0.00  0.00    +0.044 A 
ATOM     15  C   UNL     1      -8.876  -9.643  17.276  0.00  0.00    +0.053 A 
ATOM     16  C   UNL     1     -10.193  -9.272  17.605  0.00  0.00    +0.093 A 
ATOM     18  C   UNL     1      -9.835 -11.722  20.048  0.00  0.00    +0.172 C 
BRANCH  16  19
ATOM     19  C   UNL     1     -10.991  -8.264  16.958  0.00  0.00    +0.002 A 
ATOM     21  C   UNL     1     -10.409  -7.055  16.573  0.00  0.00    +0.010 A 
ATOM     22  C   UNL     1     -12.345  -8.495  16.714  0.00  0.00    +0.010 A 
ATOM     24  C   UNL     1     -11.182  -6.078  15.946  0.00  0.00    +0.001 A 
ATOM     25  C   UNL     1     -13.117  -7.518  16.086  0.00  0.00    +0.001 A 
ATOM     26  C   UNL     1     -12.536  -6.310  15.703  0.00  0.00    +0.000 A 
ENDBRANCH  16  19
ENDBRANCH   7  14
BRANCH   8  13
ATOM     13  C   UNL     1      -5.058 -10.426  15.271  0.00  0.00    +0.100 C 
BRANCH  13   3
ATOM      3  N   UNL     1      -3.802 -10.354  14.541  0.00  0.00    -0.309 NA
ATOM     30  H   UNL     1      -3.058 -10.732  15.127  0.00  0.00    +0.122 HD
BRANCH   3  17
ATOM     17  C   UNL     1      -3.870 -11.124  13.306  0.00  0.00    +0.136 C 
BRANCH  17  20
ATOM      5  N   UNL     1      -5.209  -9.599  11.969  0.00  0.00    -0.259 NA
ATOM     20  C   UNL     1      -4.026 -10.241  12.101  0.00  0.00    +0.055 A 
ATOM     23  C   UNL     1      -2.976 -10.125  11.204  0.00  0.00    +0.024 A 
ATOM     27  C   UNL     1      -3.152  -9.299  10.100  0.00  0.00    +0.003 A 
ATOM     28  C   UNL     1      -5.342  -8.804  10.884  0.00  0.00    +0.111 A 
ATOM     29  C   UNL     1      -4.354  -8.622   9.930  0.00  0.00    +0.020 A 
ENDBRANCH  17  20
ENDBRANCH   3  17
ENDBRANCH  13   3
ENDBRANCH   8  13
TORSDOF 6
ENDMDL
MODEL 3
REMARK VINA RESULT:      -5.9      2.330      6.083
REMARK  Name = 44716320
REMARK  7 active torsions:
REMARK  status: ('A' for Active; 'I' for Inactive)
REMARK    1  A    between atoms: N_2  and  C_18
REMARK    2  A    between atoms: N_3  and  C_13
REMARK    3  A    between atoms: N_3  and  C_17
REMARK    4  A    between atoms: C_7  and  C_14
REMARK    5  A    between atoms: C_8  and  C_13
REMARK    6  A    between atoms: C_16  and  C_19
REMARK    7  A    between atoms: C_17  and  C_20
REMARK                            x       y       z     vdW  Elec       q    Type
REMARK                         _______ _______ _______ _____ _____    ______ ____
ROOT
ATOM      1  N   UNL     1      -5.563 -10.402  18.084  0.00  0.00    -0.298 NA
ATOM      6  C   UNL     1      -4.986 -12.460  16.596  0.00  0.00    +0.002 C 
ATOM      7  C   UNL     1      -3.988 -11.300  16.330  0.00  0.00    +0.055 C 
ATOM      8  C   UNL     1      -6.784 -10.881  17.384  0.00  0.00    +0.071 C 
ATOM      9  C   UNL     1      -6.425 -11.965  16.343  0.00  0.00    +0.024 C 
ATOM     10  C   UNL     1      -4.881 -12.801  18.098  0.00  0.00    +0.019 C 
ATOM     11  C   UNL     1      -4.514 -10.052  17.095  0.00  0.00    +0.094 C 
ATOM     12  C   UNL     1      -5.054 -11.514  18.923  0.00  0.00    +0.085 C 
ENDROOT
BRANCH   7  14
ATOM      2  N   UNL     1      -2.382 -10.572  14.503  0.00  0.00    -0.270 N 
ATOM      4  N   UNL     1      -2.268 -10.341  13.185  0.00  0.00    -0.171 NA
ATOM     14  C   UNL     1      -3.626 -10.982  14.885  0.00  0.00    +0.044 A 
ATOM     15  C   UNL     1      -4.377 -11.021  13.736  0.00  0.00    +0.053 A 
ATOM     16  C   UNL     1      -3.490 -10.618  12.721  0.00  0.00    +0.093 A 
ATOM     18  C   UNL     1      -1.234 -10.372  15.357  0.00  0.00    +0.172 C 
BRANCH  16  19
ATOM     19  C   UNL     1      -3.787 -10.490  11.319  0.00  0.00    +0.002 A 
ATOM     21  C   UNL     1      -4.105 -11.623  10.567  0.00  0.00    +0.010 A 
ATOM     22  C   UNL     1      -3.760  -9.235  10.710  0.00  0.00    +0.010 A 
ATOM     24  C   UNL     1      -4.393 -11.499   9.209  0.00  0.00    +0.001 A 
ATOM     25  C   UNL     1      -4.049  -9.113   9.351  0.00  0.00    +0.001 A 
ATOM     26  C   UNL     1      -4.365 -10.244   8.601  0.00  0.00    +0.000 A 
ENDBRANCH  16  19
ENDBRANCH   7  14
BRANCH   8  13
ATOM     13  C   UNL     1      -7.586  -9.736  16.762  0.00  0.00    +0.100 C 
BRANCH  13   3
ATOM      3  N   UNL     1      -8.362  -9.039  17.776  0.00  0.00    -0.309 NA
ATOM     30  H   UNL     1      -8.356  -8.041  17.567  0.00  0.00    +0.122 HD
BRANCH   3  17
ATOM     17  C   UNL     1      -9.740  -9.512  17.795  0.00  0.00    +0.136 C 
BRANCH  17  20
ATOM      5  N   UNL     1     -10.155  -7.340  16.787  0.00  0.00    -0.259 NA
ATOM     20  C   UNL     1     -10.678  -8.533  17.149  0.00  0.00    +0.055 A 
ATOM     23  C   UNL     1     -12.004  -8.890  16.955  0.00  0.00    +0.024 A 
ATOM     27  C   UNL     1     -12.845  -7.962  16.352  0.00  0.00    +0.003 A 
ATOM     28  C   UNL     1     -11.004  -6.464  16.204  0.00  0.00    +0.111 A 
ATOM     29  C   UNL     1     -12.344  -6.724  15.966  0.00  0.00    +0.020 A 
ENDBRANCH  17  20
ENDBRANCH   3  17
ENDBRANCH  13   3
ENDBRANCH   8  13
TORSDOF 6
ENDMDL
MODEL 4
REMARK VINA RESULT:      -5.9      1.543      4.411
REMARK  Name = 44716320
REMARK  7 active torsions:
REMARK  status: ('A' for Active; 'I' for Inactive)
REMARK    1  A    between atoms: N_2  and  C_18
REMARK    2  A    between atoms: N_3  and  C_13
REMARK    3  A    between atoms: N_3  and  C_17
REMARK    4  A    between atoms: C_7  and  C_14
REMARK    5  A    between atoms: C_8  and  C_13
REMARK    6  A    between atoms: C_16  and  C_19
REMARK    7  A    between atoms: C_17  and  C_20
REMARK                            x       y       z     vdW  Elec       q    Type
REMARK                         _______ _______ _______ _____ _____    ______ ____
ROOT
ATOM      1  N   UNL     1      -6.416 -10.476  17.961  0.00  0.00    -0.298 NA
ATOM      6  C   UNL     1      -4.411 -12.053  17.437  0.00  0.00    +0.002 C 
ATOM      7  C   UNL     1      -4.222 -10.681  16.731  0.00  0.00    +0.055 C 
ATOM      8  C   UNL     1      -6.916 -11.799  17.504  0.00  0.00    +0.071 C 
ATOM      9  C   UNL     1      -5.751 -12.675  16.993  0.00  0.00    +0.024 C 
ATOM     10  C   UNL     1      -4.523 -11.764  18.949  0.00  0.00    +0.019 C 
ATOM     11  C   UNL     1      -5.540  -9.877  16.922  0.00  0.00    +0.094 C 
ATOM     12  C   UNL     1      -5.603 -10.693  19.181  0.00  0.00    +0.085 C 
ENDROOT
BRANCH   7  14
ATOM      2  N   UNL     1      -2.428 -10.671  14.935  0.00  0.00    -0.270 N 
ATOM      4  N   UNL     1      -2.219 -10.667  13.608  0.00  0.00    -0.171 NA
ATOM     14  C   UNL     1      -3.747 -10.677  15.285  0.00  0.00    +0.044 A 
ATOM     15  C   UNL     1      -4.448 -10.675  14.104  0.00  0.00    +0.053 A 
ATOM     16  C   UNL     1      -3.457 -10.669  13.105  0.00  0.00    +0.093 A 
ATOM     18  C   UNL     1      -1.294 -10.668  15.829  0.00  0.00    +0.172 C 
BRANCH  16  19
ATOM     19  C   UNL     1      -3.668 -10.665  11.682  0.00  0.00    +0.002 A 
ATOM     21  C   UNL     1      -3.980 -11.853  11.019  0.00  0.00    +0.010 A 
ATOM     22  C   UNL     1      -3.565  -9.473  10.963  0.00  0.00    +0.010 A 
ATOM     24  C   UNL     1      -4.186 -11.849   9.640  0.00  0.00    +0.001 A 
ATOM     25  C   UNL     1      -3.771  -9.470   9.584  0.00  0.00    +0.001 A 
ATOM     26  C   UNL     1      -4.081 -10.658   8.923  0.00  0.00    +0.000 A 
ENDBRANCH  16  19
ENDBRANCH   7  14
BRANCH   8  13
ATOM     13  C   UNL     1      -8.033 -11.673  16.465  0.00  0.00    +0.100 C 
BRANCH  13   3
ATOM      3  N   UNL     1      -7.586 -12.150  15.167  0.00  0.00    -0.309 NA
ATOM     30  H   UNL     1      -7.367 -13.144  15.239  0.00  0.00    +0.122 HD
BRANCH   3  17
ATOM     17  C   UNL     1      -8.619 -11.964  14.156  0.00  0.00    +0.136 C 
BRANCH  17  20
ATOM      5  N   UNL     1      -7.761  -9.886  13.234  0.00  0.00    -0.259 NA
ATOM     20  C   UNL     1      -8.122 -11.165  12.986  0.00  0.00    +0.055 A 
ATOM     23  C   UNL     1      -8.056 -11.761  11.736  0.00  0.00    +0.024 A 
ATOM     27  C   UNL     1      -7.590 -10.996  10.674  0.00  0.00    +0.003 A 
ATOM     28  C   UNL     1      -7.313  -9.173  12.177  0.00  0.00    +0.111 A 
ATOM     29  C   UNL     1      -7.210  -9.676  10.890  0.00  0.00    +0.020 A 
ENDBRANCH  17  20
ENDBRANCH   3  17
ENDBRANCH  13   3
ENDBRANCH   8  13
TORSDOF 6
ENDMDL
MODEL 5
REMARK VINA RESULT:      -5.9      1.725      7.410
REMARK  Name = 44716320
REMARK  7 active torsions:
REMARK  status: ('A' for Active; 'I' for Inactive)
REMARK    1  A    between atoms: N_2  and  C_18
REMARK    2  A    between atoms: N_3  and  C_13
REMARK    3  A    between atoms: N_3  and  C_17
REMARK    4  A    between atoms: C_7  and  C_14
REMARK    5  A    between atoms: C_8  and  C_13
REMARK    6  A    between atoms: C_16  and  C_19
REMARK    7  A    between atoms: C_17  and  C_20
REMARK                            x       y       z     vdW  Elec       q    Type
REMARK                         _______ _______ _______ _____ _____    ______ ____
ROOT
ATOM      1  N   UNL     1      -6.138 -10.435   9.577  0.00  0.00    -0.298 NA
ATOM      6  C   UNL     1      -4.299  -8.951  10.670  0.00  0.00    +0.002 C 
ATOM      7  C   UNL     1      -4.182 -10.418  11.170  0.00  0.00    +0.055 C 
ATOM      8  C   UNL     1      -6.750  -9.207  10.149  0.00  0.00    +0.071 C 
ATOM      9  C   UNL     1      -5.714  -8.418  10.979  0.00  0.00    +0.024 C 
ATOM     10  C   UNL     1      -4.155  -8.991   9.134  0.00  0.00    +0.019 C 
ATOM     11  C   UNL     1      -5.423 -11.188  10.637  0.00  0.00    +0.094 C 
ATOM     12  C   UNL     1      -5.146 -10.017   8.559  0.00  0.00    +0.085 C 
ENDROOT
BRANCH   7  14
ATOM      2  N   UNL     1      -2.724 -10.527  13.245  0.00  0.00    -0.270 N 
ATOM      4  N   UNL     1      -2.728 -10.780  14.564  0.00  0.00    -0.171 NA
ATOM     14  C   UNL     1      -3.948 -10.654  12.655  0.00  0.00    +0.044 A 
ATOM     15  C   UNL     1      -4.812 -11.015  13.659  0.00  0.00    +0.053 A 
ATOM     16  C   UNL     1      -4.008 -11.078  14.812  0.00  0.00    +0.093 A 
ATOM     18  C   UNL     1      -1.484 -10.164  12.600  0.00  0.00    +0.172 C 
BRANCH  16  19
ATOM     19  C   UNL     1      -4.435 -11.417  16.144  0.00  0.00    +0.002 A 
ATOM     21  C   UNL     1      -4.746 -12.740  16.461  0.00  0.00    +0.010 A 
ATOM     22  C   UNL     1      -4.537 -10.424  17.119  0.00  0.00    +0.010 A 
ATOM     24  C   UNL     1      -5.160 -13.069  17.751  0.00  0.00    +0.001 A 
ATOM     25  C   UNL     1      -4.951 -10.754  18.409  0.00  0.00    +0.001 A 
ATOM     26  C   UNL     1      -5.263 -12.076  18.725  0.00  0.00    +0.000 A 
ENDBRANCH  16  19
ENDBRANCH   7  14
BRANCH   8  13
ATOM     13  C   UNL     1      -8.016  -9.508  10.955  0.00  0.00    +0.100 C 
BRANCH  13   3
ATOM      3  N   UNL     1      -7.764  -9.374  12.381  0.00  0.00    -0.309 NA
ATOM     30  H   UNL     1      -7.746  -8.383  12.621  0.00  0.00    +0.122 HD
BRANCH   3  17
ATOM     17  C   UNL     1      -8.804 -10.033  13.161  0.00  0.00    +0.136 C 
BRANCH  17  20
ATOM      5  N   UNL     1      -9.873  -8.610  14.816  0.00  0.00    -0.259 NA
ATOM     20  C   UNL     1      -8.882  -9.495  14.561  0.00  0.00    +0.055 A 
ATOM     23  C   UNL     1      -7.959  -9.920  15.504  0.00  0.00    +0.024 A 
ATOM     27  C   UNL     1      -8.060  -9.404  16.790  0.00  0.00    +0.003 A 
ATOM     28  C   UNL     1      -9.939  -8.131  16.078  0.00  0.00    +0.111 A 
ATOM     29  C   UNL     1      -9.065  -8.492  17.092  0.00  0.00    +0.020 A 
ENDBRANCH  17  20
ENDBRANCH   3  17
ENDBRANCH  13   3
ENDBRANCH   8  13
TORSDOF 6
ENDMDL
MODEL 6
REMARK VINA RESULT:      -5.8      2.452      6.172
REMARK  Name = 44716320
REMARK  7 active torsions:
REMARK  status: ('A' for Active; 'I' for Inactive)
REMARK    1  A    between atoms: N_2  and  C_18
REMARK    2  A    between atoms: N_3  and  C_13
REMARK    3  A    between atoms: N_3  and  C_17
REMARK    4  A    between atoms: C_7  and  C_14
REMARK    5  A    between atoms: C_8  and  C_13
REMARK    6  A    between atoms: C_16  and  C_19
REMARK    7  A    between atoms: C_17  and  C_20
REMARK                            x       y       z     vdW  Elec       q    Type
REMARK                         _______ _______ _______ _____ _____    ______ ____
ROOT
ATOM      1  N   UNL     1      -5.386 -10.503  18.058  0.00  0.00    -0.298 NA
ATOM      6  C   UNL     1      -5.197 -12.485  16.379  0.00  0.00    +0.002 C 
ATOM      7  C   UNL     1      -4.032 -11.479  16.167  0.00  0.00    +0.055 C 
ATOM      8  C   UNL     1      -6.689 -10.717  17.375  0.00  0.00    +0.071 C 
ATOM      9  C   UNL     1      -6.543 -11.746  16.233  0.00  0.00    +0.024 C 
ATOM     10  C   UNL     1      -5.103 -12.971  17.841  0.00  0.00    +0.019 C 
ATOM     11  C   UNL     1      -4.324 -10.238  17.056  0.00  0.00    +0.094 C 
ATOM     12  C   UNL     1      -5.039 -11.752  18.778  0.00  0.00    +0.085 C 
ENDROOT
BRANCH   7  14
ATOM      2  N   UNL     1      -2.416 -10.689  14.375  0.00  0.00    -0.270 N 
ATOM      4  N   UNL     1      -2.300 -10.394  13.069  0.00  0.00    -0.171 NA
ATOM     14  C   UNL     1      -3.667 -11.095  14.739  0.00  0.00    +0.044 A 
ATOM     15  C   UNL     1      -4.421 -11.063  13.592  0.00  0.00    +0.053 A 
ATOM     16  C   UNL     1      -3.529 -10.625  12.595  0.00  0.00    +0.093 A 
ATOM     18  C   UNL     1      -1.264 -10.553  15.235  0.00  0.00    +0.172 C 
BRANCH  16  19
ATOM     19  C   UNL     1      -3.826 -10.421  11.202  0.00  0.00    +0.002 A 
ATOM     21  C   UNL     1      -3.813  -9.132  10.668  0.00  0.00    +0.010 A 
ATOM     22  C   UNL     1      -4.124 -11.512  10.385  0.00  0.00    +0.010 A 
ATOM     24  C   UNL     1      -4.100  -8.934   9.318  0.00  0.00    +0.001 A 
ATOM     25  C   UNL     1      -4.411 -11.313   9.035  0.00  0.00    +0.001 A 
ATOM     26  C   UNL     1      -4.399 -10.025   8.501  0.00  0.00    +0.000 A 
ENDBRANCH  16  19
ENDBRANCH   7  14
BRANCH   8  13
ATOM     13  C   UNL     1      -7.313  -9.407  16.887  0.00  0.00    +0.100 C 
BRANCH  13   3
ATOM      3  N   UNL     1      -8.347  -8.955  17.804  0.00  0.00    -0.309 NA
ATOM     30  H   UNL     1      -8.254  -7.948  17.934  0.00  0.00    +0.122 HD
BRANCH   3  17
ATOM     17  C   UNL     1      -9.675  -9.244  17.278  0.00  0.00    +0.136 C 
BRANCH  17  20
ATOM      5  N   UNL     1     -10.084 -10.535  19.296  0.00  0.00    -0.259 NA
ATOM     20  C   UNL     1     -10.611  -9.725  18.351  0.00  0.00    +0.055 A 
ATOM     23  C   UNL     1     -11.937  -9.324  18.324  0.00  0.00    +0.024 A 
ATOM     27  C   UNL     1     -12.776  -9.785  19.331  0.00  0.00    +0.003 A 
ATOM     28  C   UNL     1     -10.930 -10.962  20.260  0.00  0.00    +0.111 A 
ATOM     29  C   UNL     1     -12.272 -10.620  20.321  0.00  0.00    +0.020 A 
ENDBRANCH  17  20
ENDBRANCH   3  17
ENDBRANCH  13   3
ENDBRANCH   8  13
TORSDOF 6
ENDMDL
MODEL 7
REMARK VINA RESULT:      -5.7     23.347     26.560
REMARK  Name = 44716320
REMARK  7 active torsions:
REMARK  status: ('A' for Active; 'I' for Inactive)
REMARK    1  A    between atoms: N_2  and  C_18
REMARK    2  A    between atoms: N_3  and  C_13
REMARK    3  A    between atoms: N_3  and  C_17
REMARK    4  A    between atoms: C_7  and  C_14
REMARK    5  A    between atoms: C_8  and  C_13
REMARK    6  A    between atoms: C_16  and  C_19
REMARK    7  A    between atoms: C_17  and  C_20
REMARK                            x       y       z     vdW  Elec       q    Type
REMARK                         _______ _______ _______ _____ _____    ______ ____
ROOT
ATOM      1  N   UNL     1      12.291   6.461  -0.105  0.00  0.00    -0.298 NA
ATOM      6  C   UNL     1      10.856   4.588   0.997  0.00  0.00    +0.002 C 
ATOM      7  C   UNL     1      10.281   5.989   1.345  0.00  0.00    +0.055 C 
ATOM      8  C   UNL     1      13.171   5.508   0.622  0.00  0.00    +0.071 C 
ATOM      9  C   UNL     1      12.328   4.513   1.451  0.00  0.00    +0.024 C 
ATOM     10  C   UNL     1      10.849   4.474  -0.542  0.00  0.00    +0.019 C 
ATOM     11  C   UNL     1      11.296   7.047   0.828  0.00  0.00    +0.094 C 
ATOM     12  C   UNL     1      11.557   5.700  -1.144  0.00  0.00    +0.085 C 
ENDROOT
BRANCH   7  14
ATOM      2  N   UNL     1       9.049   7.296   3.139  0.00  0.00    -0.270 N 
ATOM      4  N   UNL     1       8.789   7.355   4.456  0.00  0.00    -0.171 NA
ATOM     14  C   UNL     1       9.853   6.253   2.782  0.00  0.00    +0.044 A 
ATOM     15  C   UNL     1      10.139   5.584   3.947  0.00  0.00    +0.053 A 
ATOM     16  C   UNL     1       9.457   6.306   4.945  0.00  0.00    +0.093 A 
ATOM     18  C   UNL     1       8.483   8.294   2.262  0.00  0.00    +0.172 C 
BRANCH  16  19
ATOM     19  C   UNL     1       9.433   6.014   6.353  0.00  0.00    +0.002 A 
ATOM     21  C   UNL     1       8.967   6.972   7.256  0.00  0.00    +0.010 A 
ATOM     22  C   UNL     1       9.874   4.775   6.819  0.00  0.00    +0.010 A 
ATOM     24  C   UNL     1       8.943   6.690   8.621  0.00  0.00    +0.001 A 
ATOM     25  C   UNL     1       9.849   4.494   8.184  0.00  0.00    +0.001 A 
ATOM     26  C   UNL     1       9.384   5.451   9.085  0.00  0.00    +0.000 A 
ENDBRANCH  16  19
ENDBRANCH   7  14
BRANCH   8  13
ATOM     13  C   UNL     1      14.219   6.221   1.481  0.00  0.00    +0.100 C 
BRANCH  13   3
ATOM      3  N   UNL     1      13.974   5.985   2.895  0.00  0.00    -0.309 NA
ATOM     30  H   UNL     1      14.365   5.078   3.149  0.00  0.00    +0.122 HD
BRANCH   3  17
ATOM     17  C   UNL     1      14.598   7.017   3.713  0.00  0.00    +0.136 C 
BRANCH  17  20
ATOM      5  N   UNL     1      12.712   8.514   4.037  0.00  0.00    -0.259 NA
ATOM     20  C   UNL     1      13.609   7.688   4.622  0.00  0.00    +0.055 A 
ATOM     23  C   UNL     1      13.657   7.434   5.983  0.00  0.00    +0.024 A 
ATOM     27  C   UNL     1      12.726   8.069   6.797  0.00  0.00    +0.003 A 
ATOM     28  C   UNL     1      11.823   9.114   4.860  0.00  0.00    +0.111 A 
ATOM     29  C   UNL     1      11.788   8.926   6.233  0.00  0.00    +0.020 A 
ENDBRANCH  17  20
ENDBRANCH   3  17
ENDBRANCH  13   3
ENDBRANCH   8  13
TORSDOF 6
ENDMDL
MODEL 8
REMARK VINA RESULT:      -5.5      3.708      6.536
REMARK  Name = 44716320
REMARK  7 active torsions:
REMARK  status: ('A' for Active; 'I' for Inactive)
REMARK    1  A    between atoms: N_2  and  C_18
REMARK    2  A    between atoms: N_3  and  C_13
REMARK    3  A    between atoms: N_3  and  C_17
REMARK    4  A    between atoms: C_7  and  C_14
REMARK    5  A    between atoms: C_8  and  C_13
REMARK    6  A    between atoms: C_16  and  C_19
REMARK    7  A    between atoms: C_17  and  C_20
REMARK                            x       y       z     vdW  Elec       q    Type
REMARK                         _______ _______ _______ _____ _____    ______ ____
ROOT
ATOM      1  N   UNL     1      -5.339 -10.427  11.170  0.00  0.00    -0.298 NA
ATOM      6  C   UNL     1      -4.822  -8.620   9.367  0.00  0.00    +0.002 C 
ATOM      7  C   UNL     1      -5.901  -9.611   8.850  0.00  0.00    +0.055 C 
ATOM      8  C   UNL     1      -3.870 -10.318  10.967  0.00  0.00    +0.071 C 
ATOM      9  C   UNL     1      -3.554  -9.406   9.761  0.00  0.00    +0.024 C 
ATOM     10  C   UNL     1      -5.382  -7.987  10.659  0.00  0.00    +0.019 C 
ATOM     11  C   UNL     1      -6.006 -10.764   9.888  0.00  0.00    +0.094 C 
ATOM     12  C   UNL     1      -5.836  -9.103  11.615  0.00  0.00    +0.085 C 
ENDROOT
BRANCH   7  14
ATOM      2  N   UNL     1      -6.575  -9.696   6.404  0.00  0.00    -0.270 N 
ATOM      4  N   UNL     1      -6.306 -10.275   5.222  0.00  0.00    -0.171 NA
ATOM     14  C   UNL     1      -5.776 -10.127   7.423  0.00  0.00    +0.044 A 
ATOM     15  C   UNL     1      -4.927 -11.053   6.868  0.00  0.00    +0.053 A 
ATOM     16  C   UNL     1      -5.298 -11.104   5.512  0.00  0.00    +0.093 A 
ATOM     18  C   UNL     1      -7.634  -8.719   6.486  0.00  0.00    +0.172 C 
BRANCH  16  19
ATOM     19  C   UNL     1      -4.710 -11.927   4.488  0.00  0.00    +0.002 A 
ATOM     21  C   UNL     1      -3.387 -12.356   4.613  0.00  0.00    +0.010 A 
ATOM     22  C   UNL     1      -5.461 -12.299   3.373  0.00  0.00    +0.010 A 
ATOM     24  C   UNL     1      -2.817 -13.154   3.622  0.00  0.00    +0.001 A 
ATOM     25  C   UNL     1      -4.890 -13.097   2.383  0.00  0.00    +0.001 A 
ATOM     26  C   UNL     1      -3.569 -13.525   2.506  0.00  0.00    +0.000 A 
ENDBRANCH  16  19
ENDBRANCH   7  14
BRANCH   8  13
ATOM     13  C   UNL     1      -3.196 -11.686  10.839  0.00  0.00    +0.100 C 
BRANCH  13   3
ATOM      3  N   UNL     1      -2.554 -12.064  12.088  0.00  0.00    -0.309 NA
ATOM     30  H   UNL     1      -1.791 -12.709  11.884  0.00  0.00    +0.122 HD
BRANCH   3  17
ATOM     17  C   UNL     1      -2.017 -10.895  12.774  0.00  0.00    +0.136 C 
BRANCH  17  20
ATOM      5  N   UNL     1      -1.466 -10.879  15.140  0.00  0.00    -0.259 NA
ATOM     20  C   UNL     1      -2.448 -10.841  14.211  0.00  0.00    +0.055 A 
ATOM     23  C   UNL     1      -3.798 -10.754  14.513  0.00  0.00    +0.024 A 
ATOM     27  C   UNL     1      -4.163 -10.703  15.853  0.00  0.00    +0.003 A 
ATOM     28  C   UNL     1      -1.860 -10.828  16.432  0.00  0.00    +0.111 A 
ATOM     29  C   UNL     1      -3.182 -10.741  16.837  0.00  0.00    +0.020 A 
ENDBRANCH  17  20
ENDBRANCH   3  17
ENDBRANCH  13   3
ENDBRANCH   8  13
TORSDOF 6
ENDMDL
MODEL 9
REMARK VINA RESULT:      -5.4     19.591     22.693
REMARK  Name = 44716320
REMARK  7 active torsions:
REMARK  status: ('A' for Active; 'I' for Inactive)
REMARK    1  A    between atoms: N_2  and  C_18
REMARK    2  A    between atoms: N_3  and  C_13
REMARK    3  A    between atoms: N_3  and  C_17
REMARK    4  A    between atoms: C_7  and  C_14
REMARK    5  A    between atoms: C_8  and  C_13
REMARK    6  A    between atoms: C_16  and  C_19
REMARK    7  A    between atoms: C_17  and  C_20
REMARK                            x       y       z     vdW  Elec       q    Type
REMARK                         _______ _______ _______ _____ _____    ______ ____
ROOT
ATOM      1  N   UNL     1     -17.026   5.069  23.578  0.00  0.00    -0.298 NA
ATOM      6  C   UNL     1     -17.571   3.052  25.132  0.00  0.00    +0.002 C 
ATOM      7  C   UNL     1     -17.637   4.384  25.928  0.00  0.00    +0.055 C 
ATOM      8  C   UNL     1     -15.985   4.018  23.430  0.00  0.00    +0.071 C 
ATOM      9  C   UNL     1     -16.176   2.910  24.488  0.00  0.00    +0.024 C 
ATOM     10  C   UNL     1     -18.592   3.171  23.980  0.00  0.00    +0.019 C 
ATOM     11  C   UNL     1     -17.107   5.509  24.994  0.00  0.00    +0.094 C 
ATOM     12  C   UNL     1     -18.331   4.474  23.205  0.00  0.00    +0.085 C 
ENDROOT
BRANCH   7  14
ATOM      2  N   UNL     1     -17.221   5.434  28.202  0.00  0.00    -0.270 N 
ATOM      4  N   UNL     1     -16.559   5.288  29.362  0.00  0.00    -0.171 NA
ATOM     14  C   UNL     1     -16.995   4.428  27.308  0.00  0.00    +0.044 A 
ATOM     15  C   UNL     1     -16.123   3.566  27.926  0.00  0.00    +0.053 A 
ATOM     16  C   UNL     1     -15.889   4.145  29.188  0.00  0.00    +0.093 A 
ATOM     18  C   UNL     1     -18.069   6.587  28.013  0.00  0.00    +0.172 C 
BRANCH  16  19
ATOM     19  C   UNL     1     -15.040   3.628  30.228  0.00  0.00    +0.002 A 
ATOM     21  C   UNL     1     -14.807   4.385  31.378  0.00  0.00    +0.010 A 
ATOM     22  C   UNL     1     -14.451   2.371  30.090  0.00  0.00    +0.010 A 
ATOM     24  C   UNL     1     -13.984   3.885  32.387  0.00  0.00    +0.001 A 
ATOM     25  C   UNL     1     -13.629   1.871  31.100  0.00  0.00    +0.001 A 
ATOM     26  C   UNL     1     -13.395   2.628  32.247  0.00  0.00    +0.000 A 
ENDBRANCH  16  19
ENDBRANCH   7  14
BRANCH   8  13
ATOM     13  C   UNL     1     -14.567   4.594  23.456  0.00  0.00    +0.100 C 
BRANCH  13   3
ATOM      3  N   UNL     1     -13.926   4.446  22.159  0.00  0.00    -0.309 NA
ATOM     30  H   UNL     1     -14.559   4.792  21.438  0.00  0.00    +0.122 HD
BRANCH   3  17
ATOM     17  C   UNL     1     -12.682   5.203  22.101  0.00  0.00    +0.136 C 
BRANCH  17  20
ATOM      5  N   UNL     1     -14.035   6.747  20.801  0.00  0.00    -0.259 NA
ATOM     20  C   UNL     1     -12.789   6.390  21.187  0.00  0.00    +0.055 A 
ATOM     23  C   UNL     1     -11.636   7.049  20.792  0.00  0.00    +0.024 A 
ATOM     27  C   UNL     1     -11.769   8.144  19.947  0.00  0.00    +0.003 A 
ATOM     28  C   UNL     1     -14.125   7.817  19.979  0.00  0.00    +0.111 A 
ATOM     29  C   UNL     1     -13.034   8.542  19.528  0.00  0.00    +0.020 A 
ENDBRANCH  17  20
ENDBRANCH   3  17
ENDBRANCH  13   3
ENDBRANCH   8  13
TORSDOF 6
ENDMDL
MODEL 10
REMARK VINA RESULT:      -5.3     23.121     26.490
REMARK  Name = 44716320
REMARK  7 active torsions:
REMARK  status: ('A' for Active; 'I' for Inactive)
REMARK    1  A    between atoms: N_2  and  C_18
REMARK    2  A    between atoms: N_3  and  C_13
REMARK    3  A    between atoms: N_3  and  C_17
REMARK    4  A    between atoms: C_7  and  C_14
REMARK    5  A    between atoms: C_8  and  C_13
REMARK    6  A    between atoms: C_16  and  C_19
REMARK    7  A    between atoms: C_17  and  C_20
REMARK                            x       y       z     vdW  Elec       q    Type
REMARK                         _______ _______ _______ _____ _____    ______ ____
ROOT
ATOM      1  N   UNL     1     -13.101   9.171  33.633  0.00  0.00    -0.298 NA
ATOM      6  C   UNL     1     -15.406   8.205  32.900  0.00  0.00    +0.002 C 
ATOM      7  C   UNL     1     -14.642   7.179  33.783  0.00  0.00    +0.055 C 
ATOM      8  C   UNL     1     -13.273   9.327  32.165  0.00  0.00    +0.071 C 
ATOM      9  C   UNL     1     -14.535   8.578  31.682  0.00  0.00    +0.024 C 
ATOM     10  C   UNL     1     -15.572   9.485  33.748  0.00  0.00    +0.019 C 
ATOM     11  C   UNL     1     -13.209   7.739  34.009  0.00  0.00    +0.094 C 
ATOM     12  C   UNL     1     -14.200   9.908  34.301  0.00  0.00    +0.085 C 
ENDROOT
BRANCH   7  14
ATOM      2  N   UNL     1     -14.440   4.685  34.209  0.00  0.00    -0.270 N 
ATOM      4  N   UNL     1     -14.464   3.477  33.623  0.00  0.00    -0.171 NA
ATOM     14  C   UNL     1     -14.631   5.722  33.343  0.00  0.00    +0.044 A 
ATOM     15  C   UNL     1     -14.790   5.151  32.104  0.00  0.00    +0.053 A 
ATOM     16  C   UNL     1     -14.678   3.768  32.336  0.00  0.00    +0.093 A 
ATOM     18  C   UNL     1     -14.223   4.774  35.634  0.00  0.00    +0.172 C 
BRANCH  16  19
ATOM     19  C   UNL     1     -14.770   2.720  31.354  0.00  0.00    +0.002 A 
ATOM     21  C   UNL     1     -15.915   2.604  30.564  0.00  0.00    +0.010 A 
ATOM     22  C   UNL     1     -13.716   1.821  31.190  0.00  0.00    +0.010 A 
ATOM     24  C   UNL     1     -16.005   1.589  29.612  0.00  0.00    +0.001 A 
ATOM     25  C   UNL     1     -13.806   0.807  30.237  0.00  0.00    +0.001 A 
ATOM     26  C   UNL     1     -14.950   0.690  29.449  0.00  0.00    +0.000 A 
ENDBRANCH  16  19
ENDBRANCH   7  14
BRANCH   8  13
ATOM     13  C   UNL     1     -12.026   8.905  31.384  0.00  0.00    +0.100 C 
BRANCH  13   3
ATOM      3  N   UNL     1     -11.521  10.009  30.583  0.00  0.00    -0.309 NA
ATOM     30  H   UNL     1     -10.768   9.666  29.988  0.00  0.00    +0.122 HD
BRANCH   3  17
ATOM     17  C   UNL     1     -12.572  10.568  29.743  0.00  0.00    +0.136 C 
BRANCH  17  20
ATOM      5  N   UNL     1     -12.929  11.419  27.495  0.00  0.00    -0.259 NA
ATOM     20  C   UNL     1     -12.147  10.672  28.306  0.00  0.00    +0.055 A 
ATOM     23  C   UNL     1     -11.000  10.015  27.889  0.00  0.00    +0.024 A 
ATOM     27  C   UNL     1     -10.633  10.132  26.553  0.00  0.00    +0.003 A 
ATOM     28  C   UNL     1     -12.540  11.509  26.203  0.00  0.00    +0.111 A 
ATOM     29  C   UNL     1     -11.412  10.891  25.688  0.00  0.00    +0.020 A 
ENDBRANCH  17  20
ENDBRANCH   3  17
ENDBRANCH  13   3
ENDBRANCH   8  13
TORSDOF 6
ENDMDL
