MODEL 1
REMARK VINA RESULT:      -7.6      0.000      0.000
REMARK  Name = 25317485
REMARK  6 active torsions:
REMARK  status: ('A' for Active; 'I' for Inactive)
REMARK    1  A    between atoms: O_6  and  C_13
REMARK    2  A    between atoms: N_8  and  C_12
REMARK    3  A    between atoms: N_9  and  C_14
REMARK    4  A    between atoms: N_10  and  C_23
REMARK    5  A    between atoms: N_11  and  C_28
REMARK    6  A    between atoms: C_32  and  C_35
REMARK                            x       y       z     vdW  Elec       q    Type
REMARK                         _______ _______ _______ _____ _____    ______ ____
ROOT
ATOM      4  O   UNL     1      20.028  -6.112   1.322  0.00  0.00    -0.342 OA
ATOM      5  O   UNL     1      22.234  -5.887   0.642  0.00  0.00    -0.347 OA
ATOM     12  C   UNL     1      20.590  -6.641  -0.963  0.00  0.00    +0.144 C 
ATOM     13  C   UNL     1      20.857  -8.114  -0.577  0.00  0.00    +0.159 C 
ATOM     14  C   UNL     1      20.524  -8.434   0.897  0.00  0.00    +0.136 C 
ATOM     15  C   UNL     1      20.868  -5.710   0.231  0.00  0.00    +0.270 C 
ATOM     16  C   UNL     1      20.745  -7.235   1.843  0.00  0.00    +0.170 C 
ATOM     17  C   UNL     1      22.160  -6.689   1.831  0.00  0.00    +0.196 C 
ENDROOT
BRANCH  14   9
ATOM      7  O   UNL     1      19.638 -10.842   2.167  0.00  0.00    -0.252 OA
ATOM      9  N   UNL     1      19.159  -8.900   1.009  0.00  0.00    -0.291 N 
ATOM     11  N   UNL     1      17.429 -10.283   1.602  0.00  0.00    -0.269 N 
ATOM     22  C   UNL     1      18.814 -10.093   1.649  0.00  0.00    +0.304 C 
ATOM     36  H   UNL     1      18.429  -8.376   0.535  0.00  0.00    +0.151 HD
ATOM     38  H   UNL     1      16.886  -9.563   1.132  0.00  0.00    +0.156 HD
BRANCH  11  28
ATOM     28  C   UNL     1      16.682 -11.361   2.131  0.00  0.00    +0.035 A 
ATOM     30  C   UNL     1      16.730 -11.637   3.498  0.00  0.00    +0.035 A 
ATOM     31  C   UNL     1      15.899 -12.148   1.287  0.00  0.00    +0.023 A 
ATOM     32  C   UNL     1      15.993 -12.701   4.020  0.00  0.00    +0.057 A 
ATOM     33  C   UNL     1      15.163 -13.211   1.810  0.00  0.00    +0.002 A 
ATOM     34  C   UNL     1      15.209 -13.487   3.177  0.00  0.00    +0.012 A 
BRANCH  32  35
ATOM      1  F   UNL     1      17.259 -12.741   6.050  0.00  0.00    -0.166 F 
ATOM      2  F   UNL     1      15.776 -14.305   5.761  0.00  0.00    -0.166 F 
ATOM      3  F   UNL     1      15.147 -12.273   6.217  0.00  0.00    -0.166 F 
ATOM     35  C   UNL     1      16.043 -12.996   5.481  0.00  0.00    +0.417 C 
ENDBRANCH  32  35
ENDBRANCH  11  28
ENDBRANCH  14   9
BRANCH  12   8
ATOM      8  N   UNL     1      19.204  -6.479  -1.405  0.00  0.00    -0.290 NA
ATOM     10  N   UNL     1      17.101  -6.043  -3.288  0.00  0.00    -0.327 N 
ATOM     18  C   UNL     1      18.847  -7.521  -2.375  0.00  0.00    +0.104 C 
ATOM     19  C   UNL     1      19.004  -5.152  -2.000  0.00  0.00    +0.104 C 
ATOM     20  C   UNL     1      17.383  -7.397  -2.803  0.00  0.00    +0.120 C 
ATOM     21  C   UNL     1      17.545  -4.950  -2.414  0.00  0.00    +0.120 C 
BRANCH  10  23
ATOM     23  C   UNL     1      15.993  -5.817  -4.112  0.00  0.00    +0.030 A 
ATOM     24  C   UNL     1      14.720  -5.701  -3.553  0.00  0.00    +0.023 A 
ATOM     25  C   UNL     1      16.160  -5.706  -5.492  0.00  0.00    +0.023 A 
ATOM     26  C   UNL     1      13.615  -5.476  -4.373  0.00  0.00    +0.002 A 
ATOM     27  C   UNL     1      15.055  -5.480  -6.313  0.00  0.00    +0.002 A 
ATOM     29  C   UNL     1      13.782  -5.366  -5.754  0.00  0.00    +0.000 A 
ENDBRANCH  10  23
ENDBRANCH  12   8
BRANCH  13   6
ATOM      6  O   UNL     1      22.248  -8.379  -0.803  0.00  0.00    -0.388 OA
ATOM     37  H   UNL     1      22.718  -8.215   0.032  0.00  0.00    +0.210 HD
ENDBRANCH  13   6
TORSDOF 6
ENDMDL
MODEL 2
REMARK VINA RESULT:      -7.4     15.343     17.583
REMARK  Name = 25317485
REMARK  6 active torsions:
REMARK  status: ('A' for Active; 'I' for Inactive)
REMARK    1  A    between atoms: O_6  and  C_13
REMARK    2  A    between atoms: N_8  and  C_12
REMARK    3  A    between atoms: N_9  and  C_14
REMARK    4  A    between atoms: N_10  and  C_23
REMARK    5  A    between atoms: N_11  and  C_28
REMARK    6  A    between atoms: C_32  and  C_35
REMARK                            x       y       z     vdW  Elec       q    Type
REMARK                         _______ _______ _______ _____ _____    ______ ____
ROOT
ATOM      4  O   UNL     1      14.210   3.847   1.584  0.00  0.00    -0.342 OA
ATOM      5  O   UNL     1      13.758   4.184  -0.666  0.00  0.00    -0.347 OA
ATOM     12  C   UNL     1      13.900   6.105   0.795  0.00  0.00    +0.144 C 
ATOM     13  C   UNL     1      12.385   6.021   1.089  0.00  0.00    +0.159 C 
ATOM     14  C   UNL     1      11.965   4.706   1.781  0.00  0.00    +0.136 C 
ATOM     15  C   UNL     1      14.466   4.711   0.468  0.00  0.00    +0.270 C 
ATOM     16  C   UNL     1      12.838   3.500   1.374  0.00  0.00    +0.170 C 
ATOM     17  C   UNL     1      12.849   3.218  -0.116  0.00  0.00    +0.196 C 
ENDROOT
BRANCH  14   9
ATOM      7  O   UNL     1       9.898   5.823   3.417  0.00  0.00    -0.252 OA
ATOM      9  N   UNL     1      11.993   4.868   3.218  0.00  0.00    -0.291 N 
ATOM     11  N   UNL     1      11.244   5.453   5.304  0.00  0.00    -0.269 N 
ATOM     22  C   UNL     1      10.935   5.425   3.941  0.00  0.00    +0.304 C 
ATOM     36  H   UNL     1      12.849   4.637   3.713  0.00  0.00    +0.151 HD
ATOM     38  H   UNL     1      12.152   5.082   5.574  0.00  0.00    +0.156 HD
BRANCH  11  28
ATOM     28  C   UNL     1      10.444   5.937   6.366  0.00  0.00    +0.035 A 
ATOM     30  C   UNL     1      10.208   5.135   7.482  0.00  0.00    +0.035 A 
ATOM     31  C   UNL     1       9.893   7.216   6.296  0.00  0.00    +0.023 A 
ATOM     32  C   UNL     1       9.419   5.612   8.529  0.00  0.00    +0.057 A 
ATOM     33  C   UNL     1       9.104   7.693   7.343  0.00  0.00    +0.002 A 
ATOM     34  C   UNL     1       8.868   6.891   8.460  0.00  0.00    +0.012 A 
BRANCH  32  35
ATOM      1  F   UNL     1       8.022   5.079  10.397  0.00  0.00    -0.166 F 
ATOM      2  F   UNL     1      10.167   4.832  10.647  0.00  0.00    -0.166 F 
ATOM      3  F   UNL     1       9.041   3.427   9.427  0.00  0.00    -0.166 F 
ATOM     35  C   UNL     1       9.166   4.755   9.723  0.00  0.00    +0.417 C 
ENDBRANCH  32  35
ENDBRANCH  11  28
ENDBRANCH  14   9
BRANCH  12   8
ATOM      8  N   UNL     1      14.607   6.668   1.948  0.00  0.00    -0.290 NA
ATOM     10  N   UNL     1      15.752   8.739   3.547  0.00  0.00    -0.327 N 
ATOM     18  C   UNL     1      13.746   7.613   2.668  0.00  0.00    +0.104 C 
ATOM     19  C   UNL     1      15.839   7.342   1.518  0.00  0.00    +0.104 C 
ATOM     20  C   UNL     1      14.452   8.167   3.908  0.00  0.00    +0.120 C 
ATOM     21  C   UNL     1      16.614   7.886   2.720  0.00  0.00    +0.120 C 
BRANCH  10  23
ATOM     23  C   UNL     1      16.366   9.662   4.400  0.00  0.00    +0.030 A 
ATOM     24  C   UNL     1      17.615  10.190   4.075  0.00  0.00    +0.023 A 
ATOM     25  C   UNL     1      15.729  10.056   5.577  0.00  0.00    +0.023 A 
ATOM     26  C   UNL     1      18.228  11.110   4.924  0.00  0.00    +0.002 A 
ATOM     27  C   UNL     1      16.341  10.977   6.428  0.00  0.00    +0.002 A 
ATOM     29  C   UNL     1      17.591  11.504   6.102  0.00  0.00    +0.000 A 
ENDBRANCH  10  23
ENDBRANCH  12   8
BRANCH  13   6
ATOM      6  O   UNL     1      11.692   6.127  -0.161  0.00  0.00    -0.388 OA
ATOM     37  H   UNL     1      10.932   6.719  -0.027  0.00  0.00    +0.210 HD
ENDBRANCH  13   6
TORSDOF 6
ENDMDL
MODEL 3
REMARK VINA RESULT:      -7.3     27.644     30.935
REMARK  Name = 25317485
REMARK  6 active torsions:
REMARK  status: ('A' for Active; 'I' for Inactive)
REMARK    1  A    between atoms: O_6  and  C_13
REMARK    2  A    between atoms: N_8  and  C_12
REMARK    3  A    between atoms: N_9  and  C_14
REMARK    4  A    between atoms: N_10  and  C_23
REMARK    5  A    between atoms: N_11  and  C_28
REMARK    6  A    between atoms: C_32  and  C_35
REMARK                            x       y       z     vdW  Elec       q    Type
REMARK                         _______ _______ _______ _____ _____    ______ ____
ROOT
ATOM      4  O   UNL     1      -9.460 -12.353  18.013  0.00  0.00    -0.342 OA
ATOM      5  O   UNL     1      -8.969 -11.944  20.242  0.00  0.00    -0.347 OA
ATOM     12  C   UNL     1      -9.231 -10.065  18.743  0.00  0.00    +0.144 C 
ATOM     13  C   UNL     1      -7.722 -10.090  18.413  0.00  0.00    +0.159 C 
ATOM     14  C   UNL     1      -7.260 -11.402  17.740  0.00  0.00    +0.136 C 
ATOM     15  C   UNL     1      -9.726 -11.475  19.115  0.00  0.00    +0.270 C 
ATOM     16  C   UNL     1      -8.069 -12.635  18.196  0.00  0.00    +0.170 C 
ATOM     17  C   UNL     1      -8.032 -12.882  19.692  0.00  0.00    +0.196 C 
ENDROOT
BRANCH  14   9
ATOM      7  O   UNL     1      -5.334 -10.139  16.039  0.00  0.00    -0.252 OA
ATOM      9  N   UNL     1      -7.330 -11.275  16.301  0.00  0.00    -0.291 N 
ATOM     11  N   UNL     1      -6.677 -10.671  14.188  0.00  0.00    -0.269 N 
ATOM     22  C   UNL     1      -6.341 -10.641  15.545  0.00  0.00    +0.304 C 
ATOM     36  H   UNL     1      -8.171 -11.594  15.829  0.00  0.00    +0.151 HD
ATOM     38  H   UNL     1      -7.552 -11.129  13.945  0.00  0.00    +0.156 HD
BRANCH  11  28
ATOM     28  C   UNL     1      -5.945 -10.141  13.101  0.00  0.00    +0.035 A 
ATOM     30  C   UNL     1      -4.591 -10.445  12.958  0.00  0.00    +0.035 A 
ATOM     31  C   UNL     1      -6.577  -9.314  12.172  0.00  0.00    +0.023 A 
ATOM     32  C   UNL     1      -3.869  -9.922  11.885  0.00  0.00    +0.057 A 
ATOM     33  C   UNL     1      -5.853  -8.791  11.099  0.00  0.00    +0.002 A 
ATOM     34  C   UNL     1      -4.500  -9.096  10.955  0.00  0.00    +0.012 A 
BRANCH  32  35
ATOM      1  F   UNL     1      -1.676  -9.968  12.842  0.00  0.00    -0.166 F 
ATOM      2  F   UNL     1      -1.833  -9.552  10.714  0.00  0.00    -0.166 F 
ATOM      3  F   UNL     1      -2.181 -11.564  11.462  0.00  0.00    -0.166 F 
ATOM     35  C   UNL     1      -2.421 -10.246  11.731  0.00  0.00    +0.417 C 
ENDBRANCH  32  35
ENDBRANCH  11  28
ENDBRANCH  14   9
BRANCH  12   8
ATOM      8  N   UNL     1      -9.989  -9.561  17.596  0.00  0.00    -0.290 NA
ATOM     10  N   UNL     1     -11.537  -7.665  16.123  0.00  0.00    -0.327 N 
ATOM     18  C   UNL     1      -9.363  -8.348  17.058  0.00  0.00    +0.104 C 
ATOM     19  C   UNL     1     -11.378  -9.278  17.981  0.00  0.00    +0.104 C 
ATOM     20  C   UNL     1     -10.114  -7.842  15.823  0.00  0.00    +0.120 C 
ATOM     21  C   UNL     1     -12.195  -8.804  16.777  0.00  0.00    +0.120 C 
BRANCH  10  23
ATOM     23  C   UNL     1     -12.318  -6.829  15.319  0.00  0.00    +0.030 A 
ATOM     24  C   UNL     1     -13.701  -7.002  15.269  0.00  0.00    +0.023 A 
ATOM     25  C   UNL     1     -11.715  -5.822  14.565  0.00  0.00    +0.023 A 
ATOM     26  C   UNL     1     -14.481  -6.169  14.467  0.00  0.00    +0.002 A 
ATOM     27  C   UNL     1     -12.493  -4.988  13.763  0.00  0.00    +0.002 A 
ATOM     29  C   UNL     1     -13.877  -5.161  13.713  0.00  0.00    +0.000 A 
ENDBRANCH  10  23
ENDBRANCH  12   8
BRANCH  13   6
ATOM      6  O   UNL     1      -7.003  -9.925  19.643  0.00  0.00    -0.388 OA
ATOM     37  H   UNL     1      -7.071  -8.989  19.899  0.00  0.00    +0.210 HD
ENDBRANCH  13   6
TORSDOF 6
ENDMDL
MODEL 4
REMARK VINA RESULT:      -7.1     27.858     31.184
REMARK  Name = 25317485
REMARK  6 active torsions:
REMARK  status: ('A' for Active; 'I' for Inactive)
REMARK    1  A    between atoms: O_6  and  C_13
REMARK    2  A    between atoms: N_8  and  C_12
REMARK    3  A    between atoms: N_9  and  C_14
REMARK    4  A    between atoms: N_10  and  C_23
REMARK    5  A    between atoms: N_11  and  C_28
REMARK    6  A    between atoms: C_32  and  C_35
REMARK                            x       y       z     vdW  Elec       q    Type
REMARK                         _______ _______ _______ _____ _____    ______ ____
ROOT
ATOM      4  O   UNL     1     -10.035 -12.537  17.342  0.00  0.00    -0.342 OA
ATOM      5  O   UNL     1     -11.101 -12.650  19.398  0.00  0.00    -0.347 OA
ATOM     12  C   UNL     1     -10.828 -10.491  18.344  0.00  0.00    +0.144 C 
ATOM     13  C   UNL     1      -9.471 -10.291  19.056  0.00  0.00    +0.159 C 
ATOM     14  C   UNL     1      -8.411 -11.345  18.668  0.00  0.00    +0.136 C 
ATOM     15  C   UNL     1     -11.106 -11.989  18.123  0.00  0.00    +0.270 C 
ATOM     16  C   UNL     1      -9.020 -12.723  18.333  0.00  0.00    +0.170 C 
ATOM     17  C   UNL     1      -9.838 -13.329  19.456  0.00  0.00    +0.196 C 
ENDROOT
BRANCH  14   9
ATOM      7  O   UNL     1      -5.617 -11.794  18.231  0.00  0.00    -0.252 OA
ATOM      9  N   UNL     1      -7.624 -10.872  17.550  0.00  0.00    -0.291 N 
ATOM     11  N   UNL     1      -5.768 -10.557  16.241  0.00  0.00    -0.269 N 
ATOM     22  C   UNL     1      -6.259 -11.139  17.415  0.00  0.00    +0.304 C 
ATOM     36  H   UNL     1      -8.067 -10.256  16.875  0.00  0.00    +0.151 HD
ATOM     38  H   UNL     1      -6.437 -10.044  15.672  0.00  0.00    +0.156 HD
BRANCH  11  28
ATOM     28  C   UNL     1      -4.445 -10.594  15.742  0.00  0.00    +0.035 A 
ATOM     30  C   UNL     1      -4.220 -10.599  14.365  0.00  0.00    +0.035 A 
ATOM     31  C   UNL     1      -3.367 -10.626  16.627  0.00  0.00    +0.023 A 
ATOM     32  C   UNL     1      -2.914 -10.635  13.874  0.00  0.00    +0.057 A 
ATOM     33  C   UNL     1      -2.062 -10.662  16.134  0.00  0.00    +0.002 A 
ATOM     34  C   UNL     1      -1.836 -10.666  14.757  0.00  0.00    +0.012 A 
BRANCH  32  35
ATOM      1  F   UNL     1      -3.646 -10.007  11.684  0.00  0.00    -0.166 F 
ATOM      2  F   UNL     1      -2.601 -11.902  11.886  0.00  0.00    -0.166 F 
ATOM      3  F   UNL     1      -1.506 -10.029  12.037  0.00  0.00    -0.166 F 
ATOM     35  C   UNL     1      -2.672 -10.641  12.402  0.00  0.00    +0.417 C 
ENDBRANCH  32  35
ENDBRANCH  11  28
ENDBRANCH  14   9
BRANCH  12   8
ATOM      8  N   UNL     1     -10.830  -9.792  17.058  0.00  0.00    -0.290 NA
ATOM     10  N   UNL     1     -11.679  -7.841  15.151  0.00  0.00    -0.327 N 
ATOM     18  C   UNL     1     -10.489  -8.376  17.240  0.00  0.00    +0.104 C 
ATOM     19  C   UNL     1     -12.143  -9.909  16.409  0.00  0.00    +0.104 C 
ATOM     20  C   UNL     1     -10.432  -7.645  15.896  0.00  0.00    +0.120 C 
ATOM     21  C   UNL     1     -12.140  -9.230  15.038  0.00  0.00    +0.120 C 
BRANCH  10  23
ATOM     23  C   UNL     1     -12.026  -6.948  14.132  0.00  0.00    +0.030 A 
ATOM     24  C   UNL     1     -12.019  -5.575  14.375  0.00  0.00    +0.023 A 
ATOM     25  C   UNL     1     -12.379  -7.430  12.871  0.00  0.00    +0.023 A 
ATOM     26  C   UNL     1     -12.365  -4.684  13.360  0.00  0.00    +0.002 A 
ATOM     27  C   UNL     1     -12.725  -6.540  11.855  0.00  0.00    +0.002 A 
ATOM     29  C   UNL     1     -12.719  -5.167  12.099  0.00  0.00    +0.000 A 
ENDBRANCH  10  23
ENDBRANCH  12   8
BRANCH  13   6
ATOM      6  O   UNL     1      -9.704 -10.369  20.468  0.00  0.00    -0.388 OA
ATOM     37  H   UNL     1      -8.916 -10.769  20.874  0.00  0.00    +0.210 HD
ENDBRANCH  13   6
TORSDOF 6
ENDMDL
MODEL 5
REMARK VINA RESULT:      -7.1     15.768     18.438
REMARK  Name = 25317485
REMARK  6 active torsions:
REMARK  status: ('A' for Active; 'I' for Inactive)
REMARK    1  A    between atoms: O_6  and  C_13
REMARK    2  A    between atoms: N_8  and  C_12
REMARK    3  A    between atoms: N_9  and  C_14
REMARK    4  A    between atoms: N_10  and  C_23
REMARK    5  A    between atoms: N_11  and  C_28
REMARK    6  A    between atoms: C_32  and  C_35
REMARK                            x       y       z     vdW  Elec       q    Type
REMARK                         _______ _______ _______ _____ _____    ______ ____
ROOT
ATOM      4  O   UNL     1       9.885   8.603   5.893  0.00  0.00    -0.342 OA
ATOM      5  O   UNL     1       9.152   7.701   7.900  0.00  0.00    -0.347 OA
ATOM     12  C   UNL     1      11.432   7.296   7.202  0.00  0.00    +0.144 C 
ATOM     13  C   UNL     1      11.000   6.009   6.464  0.00  0.00    +0.159 C 
ATOM     14  C   UNL     1      10.001   6.265   5.314  0.00  0.00    +0.136 C 
ATOM     15  C   UNL     1      10.275   8.311   7.242  0.00  0.00    +0.270 C 
ATOM     16  C   UNL     1       9.072   7.469   5.573  0.00  0.00    +0.170 C 
ATOM     17  C   UNL     1       8.248   7.354   6.841  0.00  0.00    +0.196 C 
ENDROOT
BRANCH  14   9
ATOM      7  O   UNL     1      10.969   4.214   3.566  0.00  0.00    -0.252 OA
ATOM      9  N   UNL     1      10.713   6.455   4.069  0.00  0.00    -0.291 N 
ATOM     11  N   UNL     1      11.806   5.878   2.138  0.00  0.00    -0.269 N 
ATOM     22  C   UNL     1      11.151   5.392   3.274  0.00  0.00    +0.304 C 
ATOM     36  H   UNL     1      10.973   7.400   3.801  0.00  0.00    +0.151 HD
ATOM     38  H   UNL     1      11.872   6.889   2.046  0.00  0.00    +0.156 HD
BRANCH  11  28
ATOM     28  C   UNL     1      12.393   5.133   1.089  0.00  0.00    +0.035 A 
ATOM     30  C   UNL     1      13.782   5.079   0.965  0.00  0.00    +0.035 A 
ATOM     31  C   UNL     1      11.584   4.451   0.180  0.00  0.00    +0.023 A 
ATOM     32  C   UNL     1      14.361   4.342  -0.069  0.00  0.00    +0.057 A 
ATOM     33  C   UNL     1      12.164   3.716  -0.854  0.00  0.00    +0.002 A 
ATOM     34  C   UNL     1      13.552   3.661  -0.978  0.00  0.00    +0.012 A 
BRANCH  32  35
ATOM      1  F   UNL     1      16.428   3.327   0.579  0.00  0.00    -0.166 F 
ATOM      2  F   UNL     1      16.450   5.457   0.145  0.00  0.00    -0.166 F 
ATOM      3  F   UNL     1      16.270   4.014  -1.473  0.00  0.00    -0.166 F 
ATOM     35  C   UNL     1      15.845   4.284  -0.203  0.00  0.00    +0.417 C 
ENDBRANCH  32  35
ENDBRANCH  11  28
ENDBRANCH  14   9
BRANCH  12   8
ATOM      8  N   UNL     1      12.592   7.892   6.537  0.00  0.00    -0.290 NA
ATOM     10  N   UNL     1      15.215   9.012   6.376  0.00  0.00    -0.327 N 
ATOM     18  C   UNL     1      13.775   7.040   6.702  0.00  0.00    +0.104 C 
ATOM     19  C   UNL     1      12.862   9.232   7.076  0.00  0.00    +0.104 C 
ATOM     20  C   UNL     1      14.982   7.625   5.964  0.00  0.00    +0.120 C 
ATOM     21  C   UNL     1      14.037   9.889   6.350  0.00  0.00    +0.120 C 
BRANCH  10  23
ATOM     23  C   UNL     1      16.472   9.593   6.178  0.00  0.00    +0.030 A 
ATOM     24  C   UNL     1      17.549   8.806   5.772  0.00  0.00    +0.023 A 
ATOM     25  C   UNL     1      16.649  10.961   6.386  0.00  0.00    +0.023 A 
ATOM     26  C   UNL     1      18.802   9.384   5.575  0.00  0.00    +0.002 A 
ATOM     27  C   UNL     1      17.902  11.541   6.188  0.00  0.00    +0.002 A 
ATOM     29  C   UNL     1      18.979  10.753   5.783  0.00  0.00    +0.000 A 
ENDBRANCH  10  23
ENDBRANCH  12   8
BRANCH  13   6
ATOM      6  O   UNL     1      10.383   5.140   7.424  0.00  0.00    -0.388 OA
ATOM     37  H   UNL     1       9.681   5.645   7.869  0.00  0.00    +0.210 HD
ENDBRANCH  13   6
TORSDOF 6
ENDMDL
MODEL 6
REMARK VINA RESULT:      -7.0     15.869     18.513
REMARK  Name = 25317485
REMARK  6 active torsions:
REMARK  status: ('A' for Active; 'I' for Inactive)
REMARK    1  A    between atoms: O_6  and  C_13
REMARK    2  A    between atoms: N_8  and  C_12
REMARK    3  A    between atoms: N_9  and  C_14
REMARK    4  A    between atoms: N_10  and  C_23
REMARK    5  A    between atoms: N_11  and  C_28
REMARK    6  A    between atoms: C_32  and  C_35
REMARK                            x       y       z     vdW  Elec       q    Type
REMARK                         _______ _______ _______ _____ _____    ______ ____
ROOT
ATOM      4  O   UNL     1       9.952   8.792   5.972  0.00  0.00    -0.342 OA
ATOM      5  O   UNL     1       9.248   8.099   8.070  0.00  0.00    -0.347 OA
ATOM     12  C   UNL     1      11.481   7.524   7.341  0.00  0.00    +0.144 C 
ATOM     13  C   UNL     1      10.964   6.202   6.729  0.00  0.00    +0.159 C 
ATOM     14  C   UNL     1       9.939   6.410   5.592  0.00  0.00    +0.136 C 
ATOM     15  C   UNL     1      10.375   8.595   7.328  0.00  0.00    +0.270 C 
ATOM     16  C   UNL     1       9.077   7.677   5.775  0.00  0.00    +0.170 C 
ATOM     17  C   UNL     1       8.292   7.710   7.072  0.00  0.00    +0.196 C 
ENDROOT
BRANCH  14   9
ATOM      7  O   UNL     1      10.536   4.190   3.885  0.00  0.00    -0.252 OA
ATOM      9  N   UNL     1      10.616   6.459   4.314  0.00  0.00    -0.291 N 
ATOM     11  N   UNL     1      11.533   5.675   2.365  0.00  0.00    -0.269 N 
ATOM     22  C   UNL     1      10.868   5.322   3.543  0.00  0.00    +0.304 C 
ATOM     36  H   UNL     1      10.992   7.350   4.002  0.00  0.00    +0.151 HD
ATOM     38  H   UNL     1      11.735   6.664   2.233  0.00  0.00    +0.156 HD
BRANCH  11  28
ATOM     28  C   UNL     1      11.965   4.822   1.323  0.00  0.00    +0.035 A 
ATOM     30  C   UNL     1      11.244   4.758   0.131  0.00  0.00    +0.035 A 
ATOM     31  C   UNL     1      13.112   4.046   1.488  0.00  0.00    +0.023 A 
ATOM     32  C   UNL     1      11.670   3.916  -0.897  0.00  0.00    +0.057 A 
ATOM     33  C   UNL     1      13.538   3.204   0.459  0.00  0.00    +0.002 A 
ATOM     34  C   UNL     1      12.817   3.140  -0.733  0.00  0.00    +0.012 A 
BRANCH  32  35
ATOM      1  F   UNL     1      11.527   4.449  -3.225  0.00  0.00    -0.166 F 
ATOM      2  F   UNL     1       9.679   4.450  -2.081  0.00  0.00    -0.166 F 
ATOM      3  F   UNL     1      10.648   2.570  -2.590  0.00  0.00    -0.166 F 
ATOM     35  C   UNL     1      10.899   3.846  -2.172  0.00  0.00    +0.417 C 
ENDBRANCH  32  35
ENDBRANCH  11  28
ENDBRANCH  14   9
BRANCH  12   8
ATOM      8  N   UNL     1      12.644   8.005   6.592  0.00  0.00    -0.290 NA
ATOM     10  N   UNL     1      15.343   8.869   6.241  0.00  0.00    -0.327 N 
ATOM     18  C   UNL     1      13.750   7.045   6.687  0.00  0.00    +0.104 C 
ATOM     19  C   UNL     1      13.075   9.315   7.096  0.00  0.00    +0.104 C 
ATOM     20  C   UNL     1      14.953   7.508   5.863  0.00  0.00    +0.120 C 
ATOM     21  C   UNL     1      14.254   9.854   6.284  0.00  0.00    +0.120 C 
BRANCH  10  23
ATOM     23  C   UNL     1      16.633   9.328   5.953  0.00  0.00    +0.030 A 
ATOM     24  C   UNL     1      16.973  10.657   6.205  0.00  0.00    +0.023 A 
ATOM     25  C   UNL     1      17.579   8.458   5.412  0.00  0.00    +0.023 A 
ATOM     26  C   UNL     1      18.259  11.116   5.918  0.00  0.00    +0.002 A 
ATOM     27  C   UNL     1      18.865   8.915   5.124  0.00  0.00    +0.002 A 
ATOM     29  C   UNL     1      19.205  10.245   5.376  0.00  0.00    +0.000 A 
ENDBRANCH  10  23
ENDBRANCH  12   8
BRANCH  13   6
ATOM      6  O   UNL     1      10.341   5.450   7.778  0.00  0.00    -0.388 OA
ATOM     37  H   UNL     1      10.508   4.508   7.604  0.00  0.00    +0.210 HD
ENDBRANCH  13   6
TORSDOF 6
ENDMDL
MODEL 7
REMARK VINA RESULT:      -7.0     22.812     25.705
REMARK  Name = 25317485
REMARK  6 active torsions:
REMARK  status: ('A' for Active; 'I' for Inactive)
REMARK    1  A    between atoms: O_6  and  C_13
REMARK    2  A    between atoms: N_8  and  C_12
REMARK    3  A    between atoms: N_9  and  C_14
REMARK    4  A    between atoms: N_10  and  C_23
REMARK    5  A    between atoms: N_11  and  C_28
REMARK    6  A    between atoms: C_32  and  C_35
REMARK                            x       y       z     vdW  Elec       q    Type
REMARK                         _______ _______ _______ _____ _____    ______ ____
ROOT
ATOM      4  O   UNL     1      -9.367  -9.765   8.373  0.00  0.00    -0.342 OA
ATOM      5  O   UNL     1      -9.950  -7.741   7.402  0.00  0.00    -0.347 OA
ATOM     12  C   UNL     1      -7.727  -8.615   7.030  0.00  0.00    +0.144 C 
ATOM     13  C   UNL     1      -7.201  -7.869   8.277  0.00  0.00    +0.159 C 
ATOM     14  C   UNL     1      -7.869  -8.323   9.594  0.00  0.00    +0.136 C 
ATOM     15  C   UNL     1      -9.218  -8.960   7.196  0.00  0.00    +0.270 C 
ATOM     16  C   UNL     1      -9.332  -8.777   9.407  0.00  0.00    +0.170 C 
ATOM     17  C   UNL     1     -10.238  -7.718   8.809  0.00  0.00    +0.196 C 
ENDROOT
BRANCH  14   9
ATOM      7  O   UNL     1      -5.443  -8.042  11.088  0.00  0.00    -0.252 OA
ATOM      9  N   UNL     1      -7.099  -9.387  10.201  0.00  0.00    -0.291 N 
ATOM     11  N   UNL     1      -5.400 -10.371  11.384  0.00  0.00    -0.269 N 
ATOM     22  C   UNL     1      -5.921  -9.160  10.917  0.00  0.00    +0.304 C 
ATOM     36  H   UNL     1      -7.388 -10.346  10.033  0.00  0.00    +0.151 HD
ATOM     38  H   UNL     1      -5.923 -11.212  11.153  0.00  0.00    +0.156 HD
BRANCH  11  28
ATOM     28  C   UNL     1      -4.226 -10.573  12.147  0.00  0.00    +0.035 A 
ATOM     30  C   UNL     1      -4.306 -10.672  13.536  0.00  0.00    +0.035 A 
ATOM     31  C   UNL     1      -2.990 -10.674  11.509  0.00  0.00    +0.023 A 
ATOM     32  C   UNL     1      -3.148 -10.872  14.288  0.00  0.00    +0.057 A 
ATOM     33  C   UNL     1      -1.832 -10.874  12.263  0.00  0.00    +0.002 A 
ATOM     34  C   UNL     1      -1.911 -10.973  13.651  0.00  0.00    +0.012 A 
BRANCH  32  35
ATOM      1  F   UNL     1      -3.958  -9.976  16.353  0.00  0.00    -0.166 F 
ATOM      2  F   UNL     1      -2.007 -10.936  16.373  0.00  0.00    -0.166 F 
ATOM      3  F   UNL     1      -3.814 -12.136  16.207  0.00  0.00    -0.166 F 
ATOM     35  C   UNL     1      -3.232 -10.978  15.774  0.00  0.00    +0.417 C 
ENDBRANCH  32  35
ENDBRANCH  11  28
ENDBRANCH  14   9
BRANCH  12   8
ATOM      8  N   UNL     1      -6.956  -9.841   6.815  0.00  0.00    -0.290 NA
ATOM     10  N   UNL     1      -4.835 -11.437   5.758  0.00  0.00    -0.327 N 
ATOM     18  C   UNL     1      -5.586  -9.682   7.316  0.00  0.00    +0.104 C 
ATOM     19  C   UNL     1      -6.930 -10.190   5.389  0.00  0.00    +0.104 C 
ATOM     20  C   UNL     1      -4.784 -10.976   7.148  0.00  0.00    +0.120 C 
ATOM     21  C   UNL     1      -6.175 -11.501   5.159  0.00  0.00    +0.120 C 
BRANCH  10  23
ATOM     23  C   UNL     1      -3.860 -12.320   5.282  0.00  0.00    +0.030 A 
ATOM     24  C   UNL     1      -3.417 -12.224   3.963  0.00  0.00    +0.023 A 
ATOM     25  C   UNL     1      -3.329 -13.295   6.127  0.00  0.00    +0.023 A 
ATOM     26  C   UNL     1      -2.444 -13.104   3.488  0.00  0.00    +0.002 A 
ATOM     27  C   UNL     1      -2.357 -14.175   5.652  0.00  0.00    +0.002 A 
ATOM     29  C   UNL     1      -1.914 -14.080   4.333  0.00  0.00    +0.000 A 
ENDBRANCH  10  23
ENDBRANCH  12   8
BRANCH  13   6
ATOM      6  O   UNL     1      -7.458  -6.470   8.089  0.00  0.00    -0.388 OA
ATOM     37  H   UNL     1      -7.132  -6.228   7.205  0.00  0.00    +0.210 HD
ENDBRANCH  13   6
TORSDOF 6
ENDMDL
MODEL 8
REMARK VINA RESULT:      -6.9     39.310     41.351
REMARK  Name = 25317485
REMARK  6 active torsions:
REMARK  status: ('A' for Active; 'I' for Inactive)
REMARK    1  A    between atoms: O_6  and  C_13
REMARK    2  A    between atoms: N_8  and  C_12
REMARK    3  A    between atoms: N_9  and  C_14
REMARK    4  A    between atoms: N_10  and  C_23
REMARK    5  A    between atoms: N_11  and  C_28
REMARK    6  A    between atoms: C_32  and  C_35
REMARK                            x       y       z     vdW  Elec       q    Type
REMARK                         _______ _______ _______ _____ _____    ______ ____
ROOT
ATOM      4  O   UNL     1     -15.556   3.833  22.466  0.00  0.00    -0.342 OA
ATOM      5  O   UNL     1     -17.054   4.514  24.101  0.00  0.00    -0.347 OA
ATOM     12  C   UNL     1     -16.917   5.779  22.045  0.00  0.00    +0.144 C 
ATOM     13  C   UNL     1     -15.831   6.694  22.655  0.00  0.00    +0.159 C 
ATOM     14  C   UNL     1     -14.540   5.942  23.046  0.00  0.00    +0.136 C 
ATOM     15  C   UNL     1     -16.865   4.379  22.683  0.00  0.00    +0.270 C 
ATOM     16  C   UNL     1     -14.796   4.486  23.488  0.00  0.00    +0.170 C 
ATOM     17  C   UNL     1     -15.744   4.353  24.665  0.00  0.00    +0.196 C 
ENDROOT
BRANCH  14   9
ATOM      7  O   UNL     1     -13.421   8.260  21.792  0.00  0.00    -0.252 OA
ATOM      9  N   UNL     1     -13.600   5.961  21.946  0.00  0.00    -0.291 N 
ATOM     11  N   UNL     1     -12.218   6.853  20.349  0.00  0.00    -0.269 N 
ATOM     22  C   UNL     1     -13.103   7.144  21.392  0.00  0.00    +0.304 C 
ATOM     36  H   UNL     1     -13.352   5.079  21.508  0.00  0.00    +0.151 HD
ATOM     38  H   UNL     1     -12.062   5.869  20.144  0.00  0.00    +0.156 HD
BRANCH  11  28
ATOM     28  C   UNL     1     -11.505   7.765  19.536  0.00  0.00    +0.035 A 
ATOM     30  C   UNL     1     -11.558   7.649  18.147  0.00  0.00    +0.035 A 
ATOM     31  C   UNL     1     -10.749   8.779  20.124  0.00  0.00    +0.023 A 
ATOM     32  C   UNL     1     -10.855   8.549  17.346  0.00  0.00    +0.057 A 
ATOM     33  C   UNL     1     -10.046   9.678  19.322  0.00  0.00    +0.002 A 
ATOM     34  C   UNL     1     -10.100   9.564  17.933  0.00  0.00    +0.012 A 
BRANCH  32  35
ATOM      1  F   UNL     1     -12.167   8.188  15.378  0.00  0.00    -0.166 F 
ATOM      2  F   UNL     1     -10.138   7.406  15.388  0.00  0.00    -0.166 F 
ATOM      3  F   UNL     1     -10.484   9.546  15.202  0.00  0.00    -0.166 F 
ATOM     35  C   UNL     1     -10.912   8.427  15.860  0.00  0.00    +0.417 C 
ENDBRANCH  32  35
ENDBRANCH  11  28
ENDBRANCH  14   9
BRANCH  12   8
ATOM      8  N   UNL     1     -16.728   5.671  20.597  0.00  0.00    -0.290 NA
ATOM     10  N   UNL     1     -17.443   5.953  17.846  0.00  0.00    -0.327 N 
ATOM     18  C   UNL     1     -16.768   6.998  19.972  0.00  0.00    +0.104 C 
ATOM     19  C   UNL     1     -17.761   4.809  20.006  0.00  0.00    +0.104 C 
ATOM     20  C   UNL     1     -16.516   6.904  18.464  0.00  0.00    +0.120 C 
ATOM     21  C   UNL     1     -17.541   4.643  18.501  0.00  0.00    +0.120 C 
BRANCH  10  23
ATOM     23  C   UNL     1     -17.693   6.020  16.471  0.00  0.00    +0.030 A 
ATOM     24  C   UNL     1     -18.383   7.110  15.940  0.00  0.00    +0.023 A 
ATOM     25  C   UNL     1     -17.251   4.998  15.630  0.00  0.00    +0.023 A 
ATOM     26  C   UNL     1     -18.632   7.178  14.569  0.00  0.00    +0.002 A 
ATOM     27  C   UNL     1     -17.500   5.066  14.259  0.00  0.00    +0.002 A 
ATOM     29  C   UNL     1     -18.191   6.155  13.728  0.00  0.00    +0.000 A 
ENDBRANCH  10  23
ENDBRANCH  12   8
BRANCH  13   6
ATOM      6  O   UNL     1     -16.384   7.302  23.830  0.00  0.00    -0.388 OA
ATOM     37  H   UNL     1     -16.565   6.594  24.471  0.00  0.00    +0.210 HD
ENDBRANCH  13   6
TORSDOF 6
ENDMDL
MODEL 9
REMARK VINA RESULT:      -6.9     26.670     29.925
REMARK  Name = 25317485
REMARK  6 active torsions:
REMARK  status: ('A' for Active; 'I' for Inactive)
REMARK    1  A    between atoms: O_6  and  C_13
REMARK    2  A    between atoms: N_8  and  C_12
REMARK    3  A    between atoms: N_9  and  C_14
REMARK    4  A    between atoms: N_10  and  C_23
REMARK    5  A    between atoms: N_11  and  C_28
REMARK    6  A    between atoms: C_32  and  C_35
REMARK                            x       y       z     vdW  Elec       q    Type
REMARK                         _______ _______ _______ _____ _____    ______ ____
ROOT
ATOM      4  O   UNL     1      -4.683 -10.355  17.948  0.00  0.00    -0.342 OA
ATOM      5  O   UNL     1      -4.480 -12.532  18.723  0.00  0.00    -0.347 OA
ATOM     12  C   UNL     1      -5.317 -12.165  16.484  0.00  0.00    +0.144 C 
ATOM     13  C   UNL     1      -6.768 -12.109  17.013  0.00  0.00    +0.159 C 
ATOM     14  C   UNL     1      -7.020 -10.949  18.002  0.00  0.00    +0.136 C 
ATOM     15  C   UNL     1      -4.329 -11.692  17.567  0.00  0.00    +0.270 C 
ATOM     16  C   UNL     1      -5.776 -10.588  18.841  0.00  0.00    +0.170 C 
ATOM     17  C   UNL     1      -5.225 -11.739  19.660  0.00  0.00    +0.196 C 
ENDROOT
BRANCH  14   9
ATOM      7  O   UNL     1      -9.729 -10.341  17.302  0.00  0.00    -0.252 OA
ATOM      9  N   UNL     1      -7.487  -9.780  17.290  0.00  0.00    -0.291 N 
ATOM     11  N   UNL     1      -8.984  -8.355  16.298  0.00  0.00    -0.269 N 
ATOM     22  C   UNL     1      -8.834  -9.562  16.989  0.00  0.00    +0.304 C 
ATOM     36  H   UNL     1      -6.797  -9.129  16.926  0.00  0.00    +0.151 HD
ATOM     38  H   UNL     1      -8.135  -7.824  16.117  0.00  0.00    +0.156 HD
BRANCH  11  28
ATOM     28  C   UNL     1     -10.180  -7.774  15.816  0.00  0.00    +0.035 A 
ATOM     30  C   UNL     1     -10.740  -8.224  14.620  0.00  0.00    +0.035 A 
ATOM     31  C   UNL     1     -10.798  -6.752  16.536  0.00  0.00    +0.023 A 
ATOM     32  C   UNL     1     -11.921  -7.651  14.145  0.00  0.00    +0.057 A 
ATOM     33  C   UNL     1     -11.978  -6.179  16.060  0.00  0.00    +0.002 A 
ATOM     34  C   UNL     1     -12.539  -6.629  14.865  0.00  0.00    +0.012 A 
BRANCH  32  35
ATOM      1  F   UNL     1     -11.958  -7.573  11.754  0.00  0.00    -0.166 F 
ATOM      2  F   UNL     1     -13.855  -7.858  12.778  0.00  0.00    -0.166 F 
ATOM      3  F   UNL     1     -12.410  -9.481  12.684  0.00  0.00    -0.166 F 
ATOM     35  C   UNL     1     -12.521  -8.131  12.867  0.00  0.00    +0.417 C 
ENDBRANCH  32  35
ENDBRANCH  11  28
ENDBRANCH  14   9
BRANCH  12   8
ATOM      8  N   UNL     1      -5.183 -11.326  15.292  0.00  0.00    -0.290 NA
ATOM     10  N   UNL     1      -4.904 -10.788  12.500  0.00  0.00    -0.327 N 
ATOM     18  C   UNL     1      -6.308 -11.550  14.376  0.00  0.00    +0.104 C 
ATOM     19  C   UNL     1      -3.915 -11.606  14.604  0.00  0.00    +0.104 C 
ATOM     20  C   UNL     1      -6.209 -10.638  13.150  0.00  0.00    +0.120 C 
ATOM     21  C   UNL     1      -3.738 -10.695  13.388  0.00  0.00    +0.120 C 
BRANCH  10  23
ATOM     23  C   UNL     1      -4.745 -10.404  11.164  0.00  0.00    +0.030 A 
ATOM     24  C   UNL     1      -4.701 -11.372  10.161  0.00  0.00    +0.023 A 
ATOM     25  C   UNL     1      -4.632  -9.053  10.835  0.00  0.00    +0.023 A 
ATOM     26  C   UNL     1      -4.542 -10.990   8.829  0.00  0.00    +0.002 A 
ATOM     27  C   UNL     1      -4.474  -8.670   9.503  0.00  0.00    +0.002 A 
ATOM     29  C   UNL     1      -4.428  -9.639   8.500  0.00  0.00    +0.000 A 
ENDBRANCH  10  23
ENDBRANCH  12   8
BRANCH  13   6
ATOM      6  O   UNL     1      -7.038 -13.350  17.679  0.00  0.00    -0.388 OA
ATOM     37  H   UNL     1      -6.217 -13.631  18.119  0.00  0.00    +0.210 HD
ENDBRANCH  13   6
TORSDOF 6
ENDMDL
MODEL 10
REMARK VINA RESULT:      -6.7     31.017     34.172
REMARK  Name = 25317485
REMARK  6 active torsions:
REMARK  status: ('A' for Active; 'I' for Inactive)
REMARK    1  A    between atoms: O_6  and  C_13
REMARK    2  A    between atoms: N_8  and  C_12
REMARK    3  A    between atoms: N_9  and  C_14
REMARK    4  A    between atoms: N_10  and  C_23
REMARK    5  A    between atoms: N_11  and  C_28
REMARK    6  A    between atoms: C_32  and  C_35
REMARK                            x       y       z     vdW  Elec       q    Type
REMARK                         _______ _______ _______ _____ _____    ______ ____
ROOT
ATOM      4  O   UNL     1       8.595  -7.630  35.867  0.00  0.00    -0.342 OA
ATOM      5  O   UNL     1       6.784  -6.309  36.461  0.00  0.00    -0.347 OA
ATOM     12  C   UNL     1       6.884  -7.211  34.219  0.00  0.00    +0.144 C 
ATOM     13  C   UNL     1       7.639  -5.957  33.725  0.00  0.00    +0.159 C 
ATOM     14  C   UNL     1       9.010  -5.754  34.408  0.00  0.00    +0.136 C 
ATOM     15  C   UNL     1       7.179  -7.468  35.709  0.00  0.00    +0.270 C 
ATOM     16  C   UNL     1       9.045  -6.272  35.862  0.00  0.00    +0.170 C 
ATOM     17  C   UNL     1       8.013  -5.635  36.772  0.00  0.00    +0.196 C 
ENDROOT
BRANCH  14   9
ATOM      7  O   UNL     1      11.052  -4.452  32.882  0.00  0.00    -0.252 OA
ATOM      9  N   UNL     1      10.051  -6.394  33.635  0.00  0.00    -0.291 N 
ATOM     11  N   UNL     1      11.886  -6.560  32.270  0.00  0.00    -0.269 N 
ATOM     22  C   UNL     1      11.013  -5.679  32.917  0.00  0.00    +0.304 C 
ATOM     36  H   UNL     1      10.036  -7.406  33.550  0.00  0.00    +0.151 HD
ATOM     38  H   UNL     1      11.713  -7.554  32.403  0.00  0.00    +0.156 HD
BRANCH  11  28
ATOM     28  C   UNL     1      12.990  -6.239  31.446  0.00  0.00    +0.035 A 
ATOM     30  C   UNL     1      13.775  -5.124  31.738  0.00  0.00    +0.035 A 
ATOM     31  C   UNL     1      13.292  -7.038  30.344  0.00  0.00    +0.023 A 
ATOM     32  C   UNL     1      14.865  -4.807  30.925  0.00  0.00    +0.057 A 
ATOM     33  C   UNL     1      14.382  -6.720  29.532  0.00  0.00    +0.002 A 
ATOM     34  C   UNL     1      15.168  -5.606  29.823  0.00  0.00    +0.012 A 
BRANCH  32  35
ATOM      1  F   UNL     1      15.911  -2.796  30.163  0.00  0.00    -0.166 F 
ATOM      2  F   UNL     1      16.950  -3.953  31.682  0.00  0.00    -0.166 F 
ATOM      3  F   UNL     1      15.175  -2.809  32.203  0.00  0.00    -0.166 F 
ATOM     35  C   UNL     1      15.705  -3.615  31.236  0.00  0.00    +0.417 C 
ENDBRANCH  32  35
ENDBRANCH  11  28
ENDBRANCH  14   9
BRANCH  12   8
ATOM      8  N   UNL     1       7.275  -8.379  33.429  0.00  0.00    -0.290 NA
ATOM     10  N   UNL     1       6.895 -10.523  31.579  0.00  0.00    -0.327 N 
ATOM     18  C   UNL     1       7.122  -8.106  31.995  0.00  0.00    +0.104 C 
ATOM     19  C   UNL     1       6.470  -9.549  33.803  0.00  0.00    +0.104 C 
ATOM     20  C   UNL     1       7.581  -9.300  31.154  0.00  0.00    +0.120 C 
ATOM     21  C   UNL     1       6.908 -10.790  33.023  0.00  0.00    +0.120 C 
BRANCH  10  23
ATOM     23  C   UNL     1       6.821 -11.616  30.710  0.00  0.00    +0.030 A 
ATOM     24  C   UNL     1       7.709 -11.716  29.638  0.00  0.00    +0.023 A 
ATOM     25  C   UNL     1       5.861 -12.608  30.914  0.00  0.00    +0.023 A 
ATOM     26  C   UNL     1       7.637 -12.805  28.771  0.00  0.00    +0.002 A 
ATOM     27  C   UNL     1       5.789 -13.698  30.047  0.00  0.00    +0.002 A 
ATOM     29  C   UNL     1       6.676 -13.797  28.975  0.00  0.00    +0.000 A 
ENDBRANCH  10  23
ENDBRANCH  12   8
BRANCH  13   6
ATOM      6  O   UNL     1       6.816  -4.815  33.997  0.00  0.00    -0.388 OA
ATOM     37  H   UNL     1       6.895  -4.615  34.946  0.00  0.00    +0.210 HD
ENDBRANCH  13   6
TORSDOF 6
ENDMDL
