MODEL 1
REMARK VINA RESULT:      -7.1      0.000      0.000
REMARK  Name = 75368570
REMARK  4 active torsions:
REMARK  status: ('A' for Active; 'I' for Inactive)
REMARK    1  A    between atoms: N_4  and  C_14
REMARK    2  A    between atoms: N_7  and  C_24
REMARK    3  A    between atoms: C_14  and  C_16
REMARK    4  A    between atoms: C_26  and  C_27
REMARK                            x       y       z     vdW  Elec       q    Type
REMARK                         _______ _______ _______ _____ _____    ______ ____
ROOT
ATOM      1  O   UNL     1      17.027   5.477  18.655  0.00  0.00    -0.252 OA
ATOM      3  N   UNL     1      15.829   7.242  19.596  0.00  0.00    -0.278 N 
ATOM      4  N   UNL     1      14.201   9.532  19.735  0.00  0.00    -0.295 NA
ATOM      5  N   UNL     1      17.820   6.722  20.539  0.00  0.00    -0.238 N 
ATOM      6  N   UNL     1      19.479   5.065  20.087  0.00  0.00    -0.240 NA
ATOM      8  C   UNL     1      15.902   8.084  20.764  0.00  0.00    +0.109 C 
ATOM      9  C   UNL     1      15.510   9.520  20.418  0.00  0.00    +0.109 C 
ATOM     10  C   UNL     1      17.339   7.907  21.240  0.00  0.00    +0.140 C 
ATOM     11  C   UNL     1      14.644   7.288  18.765  0.00  0.00    +0.125 C 
ATOM     12  C   UNL     1      14.251   8.741  18.490  0.00  0.00    +0.104 C 
ATOM     13  C   UNL     1      16.916   6.358  19.498  0.00  0.00    +0.311 C 
ATOM     15  C   UNL     1      19.070   6.109  20.844  0.00  0.00    +0.129 A 
ATOM     17  C   UNL     1      19.794   6.627  21.906  0.00  0.00    +0.044 A 
ATOM     20  C   UNL     1      21.015   6.035  22.211  0.00  0.00    +0.005 A 
ATOM     23  C   UNL     1      20.671   4.517  20.414  0.00  0.00    +0.113 A 
ATOM     25  C   UNL     1      21.469   4.961  21.456  0.00  0.00    +0.020 A 
ENDROOT
BRANCH   4  14
ATOM     14  C   UNL     1      13.787  10.906  19.451  0.00  0.00    +0.119 C 
BRANCH  14  16
ATOM     16  C   UNL     1      13.172  11.567  20.655  0.00  0.00    -0.033 A 
ATOM     18  C   UNL     1      11.859  11.271  21.020  0.00  0.00    +0.007 A 
ATOM     19  C   UNL     1      13.916  12.477  21.408  0.00  0.00    +0.007 A 
ATOM     21  C   UNL     1      11.289  11.883  22.137  0.00  0.00    +0.023 A 
ATOM     22  C   UNL     1      13.346  13.089  22.525  0.00  0.00    +0.023 A 
ATOM     24  C   UNL     1      12.034  12.792  22.889  0.00  0.00    +0.033 A 
BRANCH  24   7
ATOM      2  O   UNL     1      11.173  11.626  25.528  0.00  0.00    -0.276 OA
ATOM      7  N   UNL     1      11.464  13.403  24.007  0.00  0.00    -0.286 N 
ATOM     26  C   UNL     1      11.080  12.808  25.216  0.00  0.00    +0.214 C 
ATOM     27  C   UNL     1      10.501  13.818  26.175  0.00  0.00    +0.109 C 
ATOM     28  H   UNL     1      11.314  14.406  23.924  0.00  0.00    +0.155 HD
ENDBRANCH  24   7
ENDBRANCH  14  16
ENDBRANCH   4  14
TORSDOF 3
ENDMDL
MODEL 2
REMARK VINA RESULT:      -6.9     28.759     30.402
REMARK  Name = 75368570
REMARK  4 active torsions:
REMARK  status: ('A' for Active; 'I' for Inactive)
REMARK    1  A    between atoms: N_4  and  C_14
REMARK    2  A    between atoms: N_7  and  C_24
REMARK    3  A    between atoms: C_14  and  C_16
REMARK    4  A    between atoms: C_26  and  C_27
REMARK                            x       y       z     vdW  Elec       q    Type
REMARK                         _______ _______ _______ _____ _____    ______ ____
ROOT
ATOM      1  O   UNL     1      -4.072 -11.525  17.608  0.00  0.00    -0.252 OA
ATOM      3  N   UNL     1      -6.073 -10.353  17.365  0.00  0.00    -0.278 N 
ATOM      4  N   UNL     1      -8.774  -9.664  17.741  0.00  0.00    -0.295 NA
ATOM      5  N   UNL     1      -4.813 -10.647  15.508  0.00  0.00    -0.238 N 
ATOM      6  N   UNL     1      -2.714 -11.703  15.085  0.00  0.00    -0.240 NA
ATOM      8  C   UNL     1      -6.746  -9.581  16.352  0.00  0.00    +0.109 C 
ATOM      9  C   UNL     1      -8.249  -9.857  16.374  0.00  0.00    +0.109 C 
ATOM     10  C   UNL     1      -6.038  -9.989  15.066  0.00  0.00    +0.140 C 
ATOM     11  C   UNL     1      -6.597 -10.355  18.716  0.00  0.00    +0.125 C 
ATOM     12  C   UNL     1      -8.111 -10.576  18.692  0.00  0.00    +0.104 C 
ATOM     13  C   UNL     1      -4.871 -10.916  16.907  0.00  0.00    +0.311 C 
ATOM     15  C   UNL     1      -3.777 -11.020  14.603  0.00  0.00    +0.129 A 
ATOM     17  C   UNL     1      -3.925 -10.655  13.275  0.00  0.00    +0.044 A 
ATOM     20  C   UNL     1      -2.919 -11.013  12.385  0.00  0.00    +0.005 A 
ATOM     23  C   UNL     1      -1.757 -12.035  14.191  0.00  0.00    +0.113 A 
ATOM     25  C   UNL     1      -1.812 -11.717  12.843  0.00  0.00    +0.020 A 
ENDROOT
BRANCH   4  14
ATOM     14  C   UNL     1     -10.223  -9.869  17.763  0.00  0.00    +0.119 C 
BRANCH  14  16
ATOM     16  C   UNL     1     -10.955  -8.775  17.032  0.00  0.00    -0.033 A 
ATOM     18  C   UNL     1     -12.122  -9.068  16.325  0.00  0.00    +0.007 A 
ATOM     19  C   UNL     1     -10.466  -7.469  17.059  0.00  0.00    +0.007 A 
ATOM     21  C   UNL     1     -12.800  -8.054  15.647  0.00  0.00    +0.023 A 
ATOM     22  C   UNL     1     -11.145  -6.455  16.382  0.00  0.00    +0.023 A 
ATOM     24  C   UNL     1     -12.311  -6.748  15.676  0.00  0.00    +0.033 A 
BRANCH  24   7
ATOM      2  O   UNL     1     -12.300  -6.000  12.760  0.00  0.00    -0.276 OA
ATOM      7  N   UNL     1     -12.990  -5.735  14.999  0.00  0.00    -0.286 N 
ATOM     26  C   UNL     1     -12.947  -5.429  13.632  0.00  0.00    +0.214 C 
ATOM     27  C   UNL     1     -13.831  -4.254  13.295  0.00  0.00    +0.109 C 
ATOM     28  H   UNL     1     -13.590  -5.151  15.578  0.00  0.00    +0.155 HD
ENDBRANCH  24   7
ENDBRANCH  14  16
ENDBRANCH   4  14
TORSDOF 3
ENDMDL
MODEL 3
REMARK VINA RESULT:      -6.6     30.283     32.815
REMARK  Name = 75368570
REMARK  4 active torsions:
REMARK  status: ('A' for Active; 'I' for Inactive)
REMARK    1  A    between atoms: N_4  and  C_14
REMARK    2  A    between atoms: N_7  and  C_24
REMARK    3  A    between atoms: C_14  and  C_16
REMARK    4  A    between atoms: C_26  and  C_27
REMARK                            x       y       z     vdW  Elec       q    Type
REMARK                         _______ _______ _______ _____ _____    ______ ____
ROOT
ATOM      1  O   UNL     1     -11.817 -13.379  21.164  0.00  0.00    -0.252 OA
ATOM      3  N   UNL     1     -10.202 -12.303  19.872  0.00  0.00    -0.278 N 
ATOM      4  N   UNL     1      -7.657 -11.481  19.000  0.00  0.00    -0.295 NA
ATOM      5  N   UNL     1     -12.115 -11.168  20.295  0.00  0.00    -0.238 N 
ATOM      6  N   UNL     1     -14.112 -11.687  21.496  0.00  0.00    -0.240 NA
ATOM      8  C   UNL     1     -10.086 -11.102  19.084  0.00  0.00    +0.109 C 
ATOM      9  C   UNL     1      -8.704 -10.474  19.262  0.00  0.00    +0.109 C 
ATOM     10  C   UNL     1     -11.249 -10.245  19.571  0.00  0.00    +0.140 C 
ATOM     11  C   UNL     1      -9.150 -13.296  19.805  0.00  0.00    +0.125 C 
ATOM     12  C   UNL     1      -7.781 -12.622  19.928  0.00  0.00    +0.104 C 
ATOM     13  C   UNL     1     -11.442 -12.405  20.524  0.00  0.00    +0.311 C 
ATOM     15  C   UNL     1     -13.410 -10.797  20.757  0.00  0.00    +0.129 A 
ATOM     17  C   UNL     1     -13.874  -9.536  20.418  0.00  0.00    +0.044 A 
ATOM     20  C   UNL     1     -15.137  -9.165  20.864  0.00  0.00    +0.005 A 
ATOM     23  C   UNL     1     -15.335 -11.290  21.913  0.00  0.00    +0.113 A 
ATOM     25  C   UNL     1     -15.888 -10.053  21.626  0.00  0.00    +0.020 A 
ENDROOT
BRANCH   4  14
ATOM     14  C   UNL     1      -6.329 -10.876  19.109  0.00  0.00    +0.119 C 
BRANCH  14  16
ATOM     16  C   UNL     1      -5.609 -10.862  17.787  0.00  0.00    -0.033 A 
ATOM     18  C   UNL     1      -4.517 -11.703  17.577  0.00  0.00    +0.007 A 
ATOM     19  C   UNL     1      -6.035 -10.006  16.771  0.00  0.00    +0.007 A 
ATOM     21  C   UNL     1      -3.850 -11.690  16.352  0.00  0.00    +0.023 A 
ATOM     22  C   UNL     1      -5.369  -9.992  15.545  0.00  0.00    +0.023 A 
ATOM     24  C   UNL     1      -4.277 -10.834  15.335  0.00  0.00    +0.033 A 
BRANCH  24   7
ATOM      2  O   UNL     1      -1.475  -9.975  14.644  0.00  0.00    -0.276 OA
ATOM      7  N   UNL     1      -3.610 -10.821  14.110  0.00  0.00    -0.286 N 
ATOM     26  C   UNL     1      -2.298 -10.408  13.843  0.00  0.00    +0.214 C 
ATOM     27  C   UNL     1      -1.954 -10.552  12.382  0.00  0.00    +0.109 C 
ATOM     28  H   UNL     1      -4.153 -11.157  13.317  0.00  0.00    +0.155 HD
ENDBRANCH  24   7
ENDBRANCH  14  16
ENDBRANCH   4  14
TORSDOF 3
ENDMDL
MODEL 4
REMARK VINA RESULT:      -6.6     28.096     31.908
REMARK  Name = 75368570
REMARK  4 active torsions:
REMARK  status: ('A' for Active; 'I' for Inactive)
REMARK    1  A    between atoms: N_4  and  C_14
REMARK    2  A    between atoms: N_7  and  C_24
REMARK    3  A    between atoms: C_14  and  C_16
REMARK    4  A    between atoms: C_26  and  C_27
REMARK                            x       y       z     vdW  Elec       q    Type
REMARK                         _______ _______ _______ _____ _____    ______ ____
ROOT
ATOM      1  O   UNL     1     -16.351   6.312  19.671  0.00  0.00    -0.252 OA
ATOM      3  N   UNL     1     -16.404   5.240  21.741  0.00  0.00    -0.278 N 
ATOM      4  N   UNL     1     -17.408   4.362  24.218  0.00  0.00    -0.295 NA
ATOM      5  N   UNL     1     -14.467   6.249  21.146  0.00  0.00    -0.238 N 
ATOM      6  N   UNL     1     -13.762   7.463  19.216  0.00  0.00    -0.240 NA
ATOM      8  C   UNL     1     -15.478   4.875  22.782  0.00  0.00    +0.109 C 
ATOM      9  C   UNL     1     -16.112   5.067  24.159  0.00  0.00    +0.109 C 
ATOM     10  C   UNL     1     -14.266   5.756  22.504  0.00  0.00    +0.140 C 
ATOM     11  C   UNL     1     -17.757   4.722  21.785  0.00  0.00    +0.125 C 
ATOM     12  C   UNL     1     -18.335   4.881  23.193  0.00  0.00    +0.104 C 
ATOM     13  C   UNL     1     -15.798   5.977  20.711  0.00  0.00    +0.311 C 
ATOM     15  C   UNL     1     -13.461   6.967  20.438  0.00  0.00    +0.129 A 
ATOM     17  C   UNL     1     -12.228   7.115  21.052  0.00  0.00    +0.044 A 
ATOM     20  C   UNL     1     -11.241   7.815  20.368  0.00  0.00    +0.005 A 
ATOM     23  C   UNL     1     -12.777   8.138  18.582  0.00  0.00    +0.113 A 
ATOM     25  C   UNL     1     -11.512   8.340  19.110  0.00  0.00    +0.020 A 
ENDROOT
BRANCH   4  14
ATOM     14  C   UNL     1     -17.998   4.490  25.551  0.00  0.00    +0.119 C 
BRANCH  14  16
ATOM     16  C   UNL     1     -17.456   3.459  26.505  0.00  0.00    -0.033 A 
ATOM     18  C   UNL     1     -17.304   2.136  26.091  0.00  0.00    +0.007 A 
ATOM     19  C   UNL     1     -17.105   3.827  27.804  0.00  0.00    +0.007 A 
ATOM     21  C   UNL     1     -16.800   1.181  26.975  0.00  0.00    +0.023 A 
ATOM     22  C   UNL     1     -16.602   2.873  28.688  0.00  0.00    +0.023 A 
ATOM     24  C   UNL     1     -16.449   1.550  28.274  0.00  0.00    +0.033 A 
BRANCH  24   7
ATOM      2  O   UNL     1     -13.841   1.460  29.774  0.00  0.00    -0.276 OA
ATOM      7  N   UNL     1     -15.946   0.595  29.158  0.00  0.00    -0.286 N 
ATOM     26  C   UNL     1     -14.717   0.603  29.831  0.00  0.00    +0.214 C 
ATOM     27  C   UNL     1     -14.548  -0.618  30.699  0.00  0.00    +0.109 C 
ATOM     28  H   UNL     1     -16.554  -0.202  29.329  0.00  0.00    +0.155 HD
ENDBRANCH  24   7
ENDBRANCH  14  16
ENDBRANCH   4  14
TORSDOF 3
ENDMDL
MODEL 5
REMARK VINA RESULT:      -6.5     27.892     30.396
REMARK  Name = 75368570
REMARK  4 active torsions:
REMARK  status: ('A' for Active; 'I' for Inactive)
REMARK    1  A    between atoms: N_4  and  C_14
REMARK    2  A    between atoms: N_7  and  C_24
REMARK    3  A    between atoms: C_14  and  C_16
REMARK    4  A    between atoms: C_26  and  C_27
REMARK                            x       y       z     vdW  Elec       q    Type
REMARK                         _______ _______ _______ _____ _____    ______ ____
ROOT
ATOM      1  O   UNL     1      -2.792 -11.041  16.794  0.00  0.00    -0.252 OA
ATOM      3  N   UNL     1      -3.284 -10.988  14.516  0.00  0.00    -0.278 N 
ATOM      4  N   UNL     1      -3.005 -10.383  11.783  0.00  0.00    -0.295 NA
ATOM      5  N   UNL     1      -5.020 -10.799  15.955  0.00  0.00    -0.238 N 
ATOM      6  N   UNL     1      -5.200 -10.799  18.336  0.00  0.00    -0.240 NA
ATOM      8  C   UNL     1      -4.451 -11.010  13.671  0.00  0.00    +0.109 C 
ATOM      9  C   UNL     1      -4.270 -10.072  12.478  0.00  0.00    +0.109 C 
ATOM     10  C   UNL     1      -5.582 -10.632  14.620  0.00  0.00    +0.140 C 
ATOM     11  C   UNL     1      -1.974 -11.133  13.914  0.00  0.00    +0.125 C 
ATOM     12  C   UNL     1      -1.853 -10.222  12.690  0.00  0.00    +0.104 C 
ATOM     13  C   UNL     1      -3.605 -10.959  15.882  0.00  0.00    +0.311 C 
ATOM     15  C   UNL     1      -5.816 -10.719  17.134  0.00  0.00    +0.129 A 
ATOM     17  C   UNL     1      -7.183 -10.561  16.974  0.00  0.00    +0.044 A 
ATOM     20  C   UNL     1      -7.968 -10.482  18.119  0.00  0.00    +0.005 A 
ATOM     23  C   UNL     1      -5.996 -10.718  19.426  0.00  0.00    +0.113 A 
ATOM     25  C   UNL     1      -7.371 -10.560  19.371  0.00  0.00    +0.020 A 
ENDROOT
BRANCH   4  14
ATOM     14  C   UNL     1      -2.849  -9.530  10.604  0.00  0.00    +0.119 C 
BRANCH  14  16
ATOM     16  C   UNL     1      -4.091  -9.517   9.753  0.00  0.00    -0.033 A 
ATOM     18  C   UNL     1      -4.977  -8.441   9.827  0.00  0.00    +0.007 A 
ATOM     19  C   UNL     1      -4.357 -10.580   8.890  0.00  0.00    +0.007 A 
ATOM     21  C   UNL     1      -6.127  -8.429   9.038  0.00  0.00    +0.023 A 
ATOM     22  C   UNL     1      -5.508 -10.568   8.101  0.00  0.00    +0.023 A 
ATOM     24  C   UNL     1      -6.392  -9.493   8.175  0.00  0.00    +0.033 A 
BRANCH  24   7
ATOM      2  O   UNL     1      -6.774  -8.715   5.291  0.00  0.00    -0.276 OA
ATOM      7  N   UNL     1      -7.542  -9.480   7.385  0.00  0.00    -0.286 N 
ATOM     26  C   UNL     1      -7.664  -9.105   6.041  0.00  0.00    +0.214 C 
ATOM     27  C   UNL     1      -9.085  -9.233   5.552  0.00  0.00    +0.109 C 
ATOM     28  H   UNL     1      -8.394  -9.783   7.853  0.00  0.00    +0.155 HD
ENDBRANCH  24   7
ENDBRANCH  14  16
ENDBRANCH   4  14
TORSDOF 3
ENDMDL
MODEL 6
REMARK VINA RESULT:      -6.5     29.065     31.100
REMARK  Name = 75368570
REMARK  4 active torsions:
REMARK  status: ('A' for Active; 'I' for Inactive)
REMARK    1  A    between atoms: N_4  and  C_14
REMARK    2  A    between atoms: N_7  and  C_24
REMARK    3  A    between atoms: C_14  and  C_16
REMARK    4  A    between atoms: C_26  and  C_27
REMARK                            x       y       z     vdW  Elec       q    Type
REMARK                         _______ _______ _______ _____ _____    ______ ____
ROOT
ATOM      1  O   UNL     1      -4.731 -13.330  17.502  0.00  0.00    -0.252 OA
ATOM      3  N   UNL     1      -4.568 -12.647  15.279  0.00  0.00    -0.278 N 
ATOM      4  N   UNL     1      -3.382 -11.807  12.870  0.00  0.00    -0.295 NA
ATOM      5  N   UNL     1      -6.318 -11.858  16.479  0.00  0.00    -0.238 N 
ATOM      6  N   UNL     1      -7.056 -12.176  18.727  0.00  0.00    -0.240 NA
ATOM      8  C   UNL     1      -5.368 -11.933  14.316  0.00  0.00    +0.109 C 
ATOM      9  C   UNL     1      -4.491 -11.026  13.454  0.00  0.00    +0.109 C 
ATOM     10  C   UNL     1      -6.393 -11.205  15.177  0.00  0.00    +0.140 C 
ATOM     11  C   UNL     1      -3.368 -13.327  14.835  0.00  0.00    +0.125 C 
ATOM     12  C   UNL     1      -2.547 -12.406  13.929  0.00  0.00    +0.104 C 
ATOM     13  C   UNL     1      -5.164 -12.695  16.549  0.00  0.00    +0.311 C 
ATOM     15  C   UNL     1      -7.250 -11.591  17.523  0.00  0.00    +0.129 A 
ATOM     17  C   UNL     1      -8.306 -10.742  17.235  0.00  0.00    +0.044 A 
ATOM     20  C   UNL     1      -9.221 -10.475  18.248  0.00  0.00    +0.005 A 
ATOM     23  C   UNL     1      -7.965 -11.892  19.686  0.00  0.00    +0.113 A 
ATOM     25  C   UNL     1      -9.054 -11.057  19.499  0.00  0.00    +0.020 A 
ENDROOT
BRANCH   4  14
ATOM     14  C   UNL     1      -2.569 -10.962  11.995  0.00  0.00    +0.119 C 
BRANCH  14  16
ATOM     16  C   UNL     1      -3.306 -10.581  10.739  0.00  0.00    -0.033 A 
ATOM     18  C   UNL     1      -3.410  -9.240  10.370  0.00  0.00    +0.007 A 
ATOM     19  C   UNL     1      -3.887 -11.569   9.945  0.00  0.00    +0.007 A 
ATOM     21  C   UNL     1      -4.093  -8.887   9.205  0.00  0.00    +0.023 A 
ATOM     22  C   UNL     1      -4.570 -11.217   8.780  0.00  0.00    +0.023 A 
ATOM     24  C   UNL     1      -4.673  -9.877   8.411  0.00  0.00    +0.033 A 
BRANCH  24   7
ATOM      2  O   UNL     1      -7.614  -9.464   7.919  0.00  0.00    -0.276 OA
ATOM      7  N   UNL     1      -5.355  -9.523   7.246  0.00  0.00    -0.286 N 
ATOM     26  C   UNL     1      -6.734  -9.345   7.072  0.00  0.00    +0.214 C 
ATOM     27  C   UNL     1      -7.073  -8.962   5.653  0.00  0.00    +0.109 C 
ATOM     28  H   UNL     1      -4.770  -9.378   6.427  0.00  0.00    +0.155 HD
ENDBRANCH  24   7
ENDBRANCH  14  16
ENDBRANCH   4  14
TORSDOF 3
ENDMDL
MODEL 7
REMARK VINA RESULT:      -6.4     29.178     30.884
REMARK  Name = 75368570
REMARK  4 active torsions:
REMARK  status: ('A' for Active; 'I' for Inactive)
REMARK    1  A    between atoms: N_4  and  C_14
REMARK    2  A    between atoms: N_7  and  C_24
REMARK    3  A    between atoms: C_14  and  C_16
REMARK    4  A    between atoms: C_26  and  C_27
REMARK                            x       y       z     vdW  Elec       q    Type
REMARK                         _______ _______ _______ _____ _____    ______ ____
ROOT
ATOM      1  O   UNL     1      -2.512 -10.922  16.308  0.00  0.00    -0.252 OA
ATOM      3  N   UNL     1      -4.733 -10.996  17.011  0.00  0.00    -0.278 N 
ATOM      4  N   UNL     1      -7.007 -11.819  18.449  0.00  0.00    -0.295 NA
ATOM      5  N   UNL     1      -4.355 -10.669  14.803  0.00  0.00    -0.238 N 
ATOM      6  N   UNL     1      -2.380 -10.477  13.476  0.00  0.00    -0.240 NA
ATOM      8  C   UNL     1      -6.040 -10.744  16.458  0.00  0.00    +0.109 C 
ATOM      9  C   UNL     1      -7.049 -11.770  16.973  0.00  0.00    +0.109 C 
ATOM     10  C   UNL     1      -5.802 -10.777  14.954  0.00  0.00    +0.140 C 
ATOM     11  C   UNL     1      -4.599 -11.210  18.437  0.00  0.00    +0.125 C 
ATOM     12  C   UNL     1      -5.662 -12.198  18.923  0.00  0.00    +0.104 C 
ATOM     13  C   UNL     1      -3.709 -10.861  16.060  0.00  0.00    +0.311 C 
ATOM     15  C   UNL     1      -3.731 -10.480  13.536  0.00  0.00    +0.129 A 
ATOM     17  C   UNL     1      -4.555 -10.312  12.435  0.00  0.00    +0.044 A 
ATOM     20  C   UNL     1      -3.955 -10.127  11.195  0.00  0.00    +0.005 A 
ATOM     23  C   UNL     1      -1.833 -10.296  12.253  0.00  0.00    +0.113 A 
ATOM     25  C   UNL     1      -2.569 -10.118  11.094  0.00  0.00    +0.020 A 
ENDROOT
BRANCH   4  14
ATOM     14  C   UNL     1      -8.010 -12.755  18.956  0.00  0.00    +0.119 C 
BRANCH  14  16
ATOM     16  C   UNL     1      -9.256 -12.047  19.417  0.00  0.00    -0.033 A 
ATOM     18  C   UNL     1     -10.274 -12.764  20.046  0.00  0.00    +0.007 A 
ATOM     19  C   UNL     1      -9.393 -10.674  19.215  0.00  0.00    +0.007 A 
ATOM     21  C   UNL     1     -11.429 -12.107  20.473  0.00  0.00    +0.023 A 
ATOM     22  C   UNL     1     -10.547 -10.017  19.642  0.00  0.00    +0.023 A 
ATOM     24  C   UNL     1     -11.564 -10.733  20.271  0.00  0.00    +0.033 A 
BRANCH  24   7
ATOM      2  O   UNL     1     -14.248 -10.431  18.940  0.00  0.00    -0.276 OA
ATOM      7  N   UNL     1     -12.718 -10.076  20.699  0.00  0.00    -0.286 N 
ATOM     26  C   UNL     1     -13.947  -9.966  20.035  0.00  0.00    +0.214 C 
ATOM     27  C   UNL     1     -14.947  -9.171  20.838  0.00  0.00    +0.109 C 
ATOM     28  H   UNL     1     -12.650  -9.626  21.609  0.00  0.00    +0.155 HD
ENDBRANCH  24   7
ENDBRANCH  14  16
ENDBRANCH   4  14
TORSDOF 3
ENDMDL
MODEL 8
REMARK VINA RESULT:      -6.4     25.715     29.403
REMARK  Name = 75368570
REMARK  4 active torsions:
REMARK  status: ('A' for Active; 'I' for Inactive)
REMARK    1  A    between atoms: N_4  and  C_14
REMARK    2  A    between atoms: N_7  and  C_24
REMARK    3  A    between atoms: C_14  and  C_16
REMARK    4  A    between atoms: C_26  and  C_27
REMARK                            x       y       z     vdW  Elec       q    Type
REMARK                         _______ _______ _______ _____ _____    ______ ____
ROOT
ATOM      1  O   UNL     1     -16.801   6.115  20.593  0.00  0.00    -0.252 OA
ATOM      3  N   UNL     1     -14.606   6.897  20.671  0.00  0.00    -0.278 N 
ATOM      4  N   UNL     1     -12.089   7.753  19.750  0.00  0.00    -0.295 NA
ATOM      5  N   UNL     1     -15.230   5.401  22.252  0.00  0.00    -0.238 N 
ATOM      6  N   UNL     1     -17.271   4.261  22.733  0.00  0.00    -0.240 NA
ATOM      8  C   UNL     1     -13.474   6.824  21.559  0.00  0.00    +0.109 C 
ATOM      9  C   UNL     1     -12.175   6.684  20.766  0.00  0.00    +0.109 C 
ATOM     10  C   UNL     1     -13.806   5.642  22.461  0.00  0.00    +0.140 C 
ATOM     11  C   UNL     1     -14.564   7.809  19.546  0.00  0.00    +0.125 C 
ATOM     12  C   UNL     1     -13.227   7.680  18.813  0.00  0.00    +0.104 C 
ATOM     13  C   UNL     1     -15.695   6.131  21.118  0.00  0.00    +0.311 C 
ATOM     15  C   UNL     1     -15.976   4.488  23.051  0.00  0.00    +0.129 A 
ATOM     17  C   UNL     1     -15.322   3.884  24.112  0.00  0.00    +0.044 A 
ATOM     20  C   UNL     1     -16.042   2.992  24.898  0.00  0.00    +0.005 A 
ATOM     23  C   UNL     1     -17.938   3.387  23.519  0.00  0.00    +0.113 A 
ATOM     25  C   UNL     1     -17.375   2.732  24.602  0.00  0.00    +0.020 A 
ENDROOT
BRANCH   4  14
ATOM     14  C   UNL     1     -10.822   7.664  19.023  0.00  0.00    +0.119 C 
BRANCH  14  16
ATOM     16  C   UNL     1     -10.592   8.868  18.150  0.00  0.00    -0.033 A 
ATOM     18  C   UNL     1     -10.515   8.722  16.765  0.00  0.00    +0.007 A 
ATOM     19  C   UNL     1     -10.455  10.132  18.725  0.00  0.00    +0.007 A 
ATOM     21  C   UNL     1     -10.302   9.838  15.955  0.00  0.00    +0.023 A 
ATOM     22  C   UNL     1     -10.242  11.248  17.916  0.00  0.00    +0.023 A 
ATOM     24  C   UNL     1     -10.166  11.101  16.532  0.00  0.00    +0.033 A 
BRANCH  24   7
ATOM      2  O   UNL     1      -7.820  12.982  16.373  0.00  0.00    -0.276 OA
ATOM      7  N   UNL     1      -9.953  12.217  15.722  0.00  0.00    -0.286 N 
ATOM     26  C   UNL     1      -8.836  13.062  15.690  0.00  0.00    +0.214 C 
ATOM     27  C   UNL     1      -8.996  14.160  14.668  0.00  0.00    +0.109 C 
ATOM     28  H   UNL     1     -10.709  12.436  15.077  0.00  0.00    +0.155 HD
ENDBRANCH  24   7
ENDBRANCH  14  16
ENDBRANCH   4  14
TORSDOF 3
ENDMDL
MODEL 9
REMARK VINA RESULT:      -6.4     29.220     31.797
REMARK  Name = 75368570
REMARK  4 active torsions:
REMARK  status: ('A' for Active; 'I' for Inactive)
REMARK    1  A    between atoms: N_4  and  C_14
REMARK    2  A    between atoms: N_7  and  C_24
REMARK    3  A    between atoms: C_14  and  C_16
REMARK    4  A    between atoms: C_26  and  C_27
REMARK                            x       y       z     vdW  Elec       q    Type
REMARK                         _______ _______ _______ _____ _____    ______ ____
ROOT
ATOM      1  O   UNL     1      -6.406 -10.877  13.050  0.00  0.00    -0.252 OA
ATOM      3  N   UNL     1      -5.644 -10.335  10.915  0.00  0.00    -0.278 N 
ATOM      4  N   UNL     1      -5.416 -10.405   8.112  0.00  0.00    -0.295 NA
ATOM      5  N   UNL     1      -4.109 -10.400  12.577  0.00  0.00    -0.238 N 
ATOM      6  N   UNL     1      -4.227 -10.853  14.918  0.00  0.00    -0.240 NA
ATOM      8  C   UNL     1      -4.432  -9.859  10.299  0.00  0.00    +0.109 C 
ATOM      9  C   UNL     1      -4.208 -10.543   8.951  0.00  0.00    +0.109 C 
ATOM     10  C   UNL     1      -3.365 -10.146  11.349  0.00  0.00    +0.140 C 
ATOM     11  C   UNL     1      -6.862 -10.384  10.131  0.00  0.00    +0.125 C 
ATOM     12  C   UNL     1      -6.585 -11.022   8.768  0.00  0.00    +0.104 C 
ATOM     13  C   UNL     1      -5.496 -10.570  12.291  0.00  0.00    +0.311 C 
ATOM     15  C   UNL     1      -3.471 -10.532  13.844  0.00  0.00    +0.129 A 
ATOM     17  C   UNL     1      -2.102 -10.322  13.896  0.00  0.00    +0.044 A 
ATOM     20  C   UNL     1      -1.470 -10.449  15.127  0.00  0.00    +0.005 A 
ATOM     23  C   UNL     1      -3.578 -10.968  16.098  0.00  0.00    +0.113 A 
ATOM     25  C   UNL     1      -2.215 -10.778  16.254  0.00  0.00    +0.020 A 
ENDROOT
BRANCH   4  14
ATOM     14  C   UNL     1      -5.194 -11.005   6.796  0.00  0.00    +0.119 C 
BRANCH  14  16
ATOM     16  C   UNL     1      -6.150 -10.467   5.766  0.00  0.00    -0.033 A 
ATOM     18  C   UNL     1      -6.651  -9.171   5.887  0.00  0.00    +0.007 A 
ATOM     19  C   UNL     1      -6.536 -11.265   4.688  0.00  0.00    +0.007 A 
ATOM     21  C   UNL     1      -7.536  -8.672   4.931  0.00  0.00    +0.023 A 
ATOM     22  C   UNL     1      -7.421 -10.766   3.732  0.00  0.00    +0.023 A 
ATOM     24  C   UNL     1      -7.921  -9.470   3.854  0.00  0.00    +0.033 A 
BRANCH  24   7
ATOM      2  O   UNL     1      -7.390  -8.118   1.217  0.00  0.00    -0.276 OA
ATOM      7  N   UNL     1      -8.806  -8.971   2.898  0.00  0.00    -0.286 N 
ATOM     26  C   UNL     1      -8.502  -8.346   1.681  0.00  0.00    +0.214 C 
ATOM     27  C   UNL     1      -9.749  -7.950   0.930  0.00  0.00    +0.109 C 
ATOM     28  H   UNL     1      -9.793  -9.079   3.121  0.00  0.00    +0.155 HD
ENDBRANCH  24   7
ENDBRANCH  14  16
ENDBRANCH   4  14
TORSDOF 3
ENDMDL
MODEL 10
REMARK VINA RESULT:      -6.3     27.957     31.097
REMARK  Name = 75368570
REMARK  4 active torsions:
REMARK  status: ('A' for Active; 'I' for Inactive)
REMARK    1  A    between atoms: N_4  and  C_14
REMARK    2  A    between atoms: N_7  and  C_24
REMARK    3  A    between atoms: C_14  and  C_16
REMARK    4  A    between atoms: C_26  and  C_27
REMARK                            x       y       z     vdW  Elec       q    Type
REMARK                         _______ _______ _______ _____ _____    ______ ____
ROOT
ATOM      1  O   UNL     1       1.008   0.030  -5.206  0.00  0.00    -0.252 OA
ATOM      3  N   UNL     1       1.690   2.067  -6.111  0.00  0.00    -0.278 N 
ATOM      4  N   UNL     1       2.752   4.670  -6.215  0.00  0.00    -0.295 NA
ATOM      5  N   UNL     1      -0.220   1.161  -6.921  0.00  0.00    -0.238 N 
ATOM      6  N   UNL     1      -1.421  -0.849  -6.456  0.00  0.00    -0.240 NA
ATOM      8  C   UNL     1       1.320   2.931  -7.203  0.00  0.00    +0.109 C 
ATOM      9  C   UNL     1       1.418   4.398  -6.786  0.00  0.00    +0.109 C 
ATOM     10  C   UNL     1      -0.082   2.460  -7.569  0.00  0.00    +0.140 C 
ATOM     11  C   UNL     1       2.911   2.336  -5.380  0.00  0.00    +0.125 C 
ATOM     12  C   UNL     1       3.000   3.824  -5.032  0.00  0.00    +0.104 C 
ATOM     13  C   UNL     1       0.840   0.957  -5.988  0.00  0.00    +0.311 C 
ATOM     15  C   UNL     1      -1.328   0.299  -7.165  0.00  0.00    +0.129 A 
ATOM     17  C   UNL     1      -2.248   0.695  -8.122  0.00  0.00    +0.044 A 
ATOM     20  C   UNL     1      -3.332  -0.140  -8.367  0.00  0.00    +0.005 A 
ATOM     23  C   UNL     1      -2.489  -1.634  -6.721  0.00  0.00    +0.113 A 
ATOM     25  C   UNL     1      -3.462  -1.328  -7.658  0.00  0.00    +0.020 A 
ENDROOT
BRANCH   4  14
ATOM     14  C   UNL     1       2.879   6.085  -5.866  0.00  0.00    +0.119 C 
BRANCH  14  16
ATOM     16  C   UNL     1       4.121   6.355  -5.060  0.00  0.00    -0.033 A 
ATOM     18  C   UNL     1       5.359   6.452  -5.696  0.00  0.00    +0.007 A 
ATOM     19  C   UNL     1       4.035   6.509  -3.676  0.00  0.00    +0.007 A 
ATOM     21  C   UNL     1       6.510   6.703  -4.949  0.00  0.00    +0.023 A 
ATOM     22  C   UNL     1       5.186   6.760  -2.929  0.00  0.00    +0.023 A 
ATOM     24  C   UNL     1       6.423   6.857  -3.564  0.00  0.00    +0.033 A 
BRANCH  24   7
ATOM      2  O   UNL     1       8.742   5.060  -2.885  0.00  0.00    -0.276 OA
ATOM      7  N   UNL     1       7.574   7.108  -2.818  0.00  0.00    -0.286 N 
ATOM     26  C   UNL     1       8.627   6.230  -2.530  0.00  0.00    +0.214 C 
ATOM     27  C   UNL     1       9.691   6.890  -1.689  0.00  0.00    +0.109 C 
ATOM     28  H   UNL     1       7.650   8.050  -2.440  0.00  0.00    +0.155 HD
ENDBRANCH  24   7
ENDBRANCH  14  16
ENDBRANCH   4  14
TORSDOF 3
ENDMDL
