MODEL 1
REMARK VINA RESULT:      -7.3      0.000      0.000
REMARK  Name = 7165083
REMARK  7 active torsions:
REMARK  status: ('A' for Active; 'I' for Inactive)
REMARK    1  A    between atoms: O_4  and  C_25
REMARK    2  A    between atoms: O_4  and  C_26
REMARK    3  A    between atoms: O_5  and  C_24
REMARK    4  A    between atoms: N_9  and  C_18
REMARK    5  A    between atoms: C_15  and  C_17
REMARK    6  A    between atoms: C_17  and  C_19
REMARK    7  A    between atoms: C_19  and  C_24
REMARK                            x       y       z     vdW  Elec       q    Type
REMARK                         _______ _______ _______ _____ _____    ______ ____
ROOT
ATOM      1  O   UNL     1      11.145   4.822   4.214  0.00  0.00    -0.273 OA
ATOM      2  O   UNL     1       9.105   5.919   6.276  0.00  0.00    -0.276 OA
ATOM      3  O   UNL     1      13.202   7.891   1.304  0.00  0.00    -0.252 OA
ATOM      7  N   UNL     1      11.301   6.646   6.212  0.00  0.00    -0.288 N 
ATOM      8  N   UNL     1      12.892   8.399   3.482  0.00  0.00    -0.293 N 
ATOM      9  N   UNL     1      12.171   6.284   2.682  0.00  0.00    -0.193 N 
ATOM     10  C   UNL     1      12.428   8.122   4.809  0.00  0.00    +0.105 C 
ATOM     11  C   UNL     1      11.279   7.137   4.834  0.00  0.00    +0.183 C 
ATOM     12  C   UNL     1      13.465   7.473   5.724  0.00  0.00    +0.043 C 
ATOM     13  C   UNL     1      12.599   6.900   6.840  0.00  0.00    +0.110 C 
ATOM     14  C   UNL     1      11.519   5.955   3.898  0.00  0.00    +0.250 C 
ATOM     15  C   UNL     1      10.183   6.119   6.839  0.00  0.00    +0.217 C 
ATOM     16  C   UNL     1      12.797   7.530   2.413  0.00  0.00    +0.313 C 
ATOM     32  H   UNL     1      13.342   9.295   3.318  0.00  0.00    +0.151 HD
ENDROOT
BRANCH   9  18
ATOM     18  C   UNL     1      12.216   5.269   1.649  0.00  0.00    +0.046 A 
ATOM     20  C   UNL     1      11.182   5.183   0.726  0.00  0.00    +0.027 A 
ATOM     21  C   UNL     1      13.295   4.397   1.596  0.00  0.00    +0.027 A 
ATOM     22  C   UNL     1      11.227   4.206  -0.268  0.00  0.00    +0.048 A 
ATOM     23  C   UNL     1      13.339   3.419   0.601  0.00  0.00    +0.048 A 
ATOM     25  C   UNL     1      12.305   3.324  -0.330  0.00  0.00    +0.129 A 
BRANCH  25   4
ATOM      4  O   UNL     1      12.349   2.370  -1.301  0.00  0.00    -0.456 OA
BRANCH   4  26
ATOM     26  C   UNL     1      11.757   2.662  -2.518  0.00  0.00    +0.128 A 
ATOM     27  C   UNL     1      10.486   2.185  -2.781  0.00  0.00    +0.046 A 
ATOM     28  C   UNL     1      12.451   3.425  -3.439  0.00  0.00    +0.046 A 
ATOM     29  C   UNL     1       9.890   2.479  -4.007  0.00  0.00    +0.004 A 
ATOM     30  C   UNL     1      11.856   3.719  -4.665  0.00  0.00    +0.004 A 
ATOM     31  C   UNL     1      10.574   3.247  -4.949  0.00  0.00    +0.000 A 
ENDBRANCH   4  26
ENDBRANCH  25   4
ENDBRANCH   9  18
BRANCH  15  17
ATOM     17  C   UNL     1      10.354   5.784   8.299  0.00  0.00    +0.107 C 
BRANCH  17  19
ATOM     19  C   UNL     1       9.072   5.187   8.844  0.00  0.00    +0.129 C 
BRANCH  19  24
ATOM      6  O   UNL     1      10.324   4.379  10.747  0.00  0.00    -0.251 OA
ATOM     24  C   UNL     1       9.251   4.721  10.268  0.00  0.00    +0.305 C 
BRANCH  24   5
ATOM      5  O   UNL     1       8.083   4.699  10.960  0.00  0.00    -0.481 OA
ATOM     33  H   UNL     1       7.622   3.837  10.872  0.00  0.00    +0.295 HD
ENDBRANCH  24   5
ENDBRANCH  19  24
ENDBRANCH  17  19
ENDBRANCH  15  17
TORSDOF 7
ENDMDL
MODEL 2
REMARK VINA RESULT:      -7.2     24.839     28.631
REMARK  Name = 7165083
REMARK  7 active torsions:
REMARK  status: ('A' for Active; 'I' for Inactive)
REMARK    1  A    between atoms: O_4  and  C_25
REMARK    2  A    between atoms: O_4  and  C_26
REMARK    3  A    between atoms: O_5  and  C_24
REMARK    4  A    between atoms: N_9  and  C_18
REMARK    5  A    between atoms: C_15  and  C_17
REMARK    6  A    between atoms: C_17  and  C_19
REMARK    7  A    between atoms: C_19  and  C_24
REMARK                            x       y       z     vdW  Elec       q    Type
REMARK                         _______ _______ _______ _____ _____    ______ ____
ROOT
ATOM      1  O   UNL     1      -9.081  -8.805  15.727  0.00  0.00    -0.273 OA
ATOM      2  O   UNL     1     -10.478  -6.039  15.577  0.00  0.00    -0.276 OA
ATOM      3  O   UNL     1      -9.178 -11.102  19.829  0.00  0.00    -0.252 OA
ATOM      7  N   UNL     1     -11.621  -7.965  16.162  0.00  0.00    -0.288 N 
ATOM      8  N   UNL     1     -11.007 -10.011  19.077  0.00  0.00    -0.293 N 
ATOM      9  N   UNL     1      -9.032  -9.989  17.759  0.00  0.00    -0.193 N 
ATOM     10  C   UNL     1     -11.716  -9.199  18.134  0.00  0.00    +0.105 C 
ATOM     11  C   UNL     1     -10.800  -8.305  17.326  0.00  0.00    +0.183 C 
ATOM     12  C   UNL     1     -12.476  -9.980  17.063  0.00  0.00    +0.043 C 
ATOM     13  C   UNL     1     -12.721  -8.918  15.998  0.00  0.00    +0.110 C 
ATOM     14  C   UNL     1      -9.559  -9.048  16.838  0.00  0.00    +0.250 C 
ATOM     15  C   UNL     1     -11.418  -6.819  15.410  0.00  0.00    +0.217 C 
ATOM     16  C   UNL     1      -9.699 -10.430  18.934  0.00  0.00    +0.313 C 
ATOM     32  H   UNL     1     -11.508 -10.319  19.905  0.00  0.00    +0.151 HD
ENDROOT
BRANCH   9  18
ATOM     18  C   UNL     1      -7.729 -10.553  17.471  0.00  0.00    +0.046 A 
ATOM     20  C   UNL     1      -7.637 -11.744  16.763  0.00  0.00    +0.027 A 
ATOM     21  C   UNL     1      -6.588  -9.893  17.908  0.00  0.00    +0.027 A 
ATOM     22  C   UNL     1      -6.383 -12.285  16.486  0.00  0.00    +0.048 A 
ATOM     23  C   UNL     1      -5.332 -10.436  17.631  0.00  0.00    +0.048 A 
ATOM     25  C   UNL     1      -5.230 -11.632  16.921  0.00  0.00    +0.129 A 
BRANCH  25   4
ATOM      4  O   UNL     1      -4.005 -12.160  16.651  0.00  0.00    -0.456 OA
BRANCH   4  26
ATOM     26  C   UNL     1      -3.159 -11.436  15.828  0.00  0.00    +0.128 A 
ATOM     27  C   UNL     1      -3.470 -11.307  14.488  0.00  0.00    +0.046 A 
ATOM     28  C   UNL     1      -2.024 -10.860  16.370  0.00  0.00    +0.046 A 
ATOM     29  C   UNL     1      -2.616 -10.578  13.659  0.00  0.00    +0.004 A 
ATOM     30  C   UNL     1      -1.171 -10.131  15.542  0.00  0.00    +0.004 A 
ATOM     31  C   UNL     1      -1.467  -9.989  14.187  0.00  0.00    +0.000 A 
ENDBRANCH   4  26
ENDBRANCH  25   4
ENDBRANCH   9  18
BRANCH  15  17
ATOM     17  C   UNL     1     -12.437  -6.563  14.328  0.00  0.00    +0.107 C 
BRANCH  17  19
ATOM     19  C   UNL     1     -12.688  -5.074  14.200  0.00  0.00    +0.129 C 
BRANCH  19  24
ATOM      6  O   UNL     1     -12.182  -5.285  11.846  0.00  0.00    -0.251 OA
ATOM     24  C   UNL     1     -12.290  -4.571  12.835  0.00  0.00    +0.305 C 
BRANCH  24   5
ATOM      5  O   UNL     1     -12.041  -3.237  12.822  0.00  0.00    -0.481 OA
ATOM     33  H   UNL     1     -12.861  -2.712  12.695  0.00  0.00    +0.295 HD
ENDBRANCH  24   5
ENDBRANCH  19  24
ENDBRANCH  17  19
ENDBRANCH  15  17
TORSDOF 7
ENDMDL
MODEL 3
REMARK VINA RESULT:      -6.9     23.189     25.333
REMARK  Name = 7165083
REMARK  7 active torsions:
REMARK  status: ('A' for Active; 'I' for Inactive)
REMARK    1  A    between atoms: O_4  and  C_25
REMARK    2  A    between atoms: O_4  and  C_26
REMARK    3  A    between atoms: O_5  and  C_24
REMARK    4  A    between atoms: N_9  and  C_18
REMARK    5  A    between atoms: C_15  and  C_17
REMARK    6  A    between atoms: C_17  and  C_19
REMARK    7  A    between atoms: C_19  and  C_24
REMARK                            x       y       z     vdW  Elec       q    Type
REMARK                         _______ _______ _______ _____ _____    ______ ____
ROOT
ATOM      1  O   UNL     1      -5.940 -10.432  13.656  0.00  0.00    -0.273 OA
ATOM      2  O   UNL     1      -5.524  -9.891  16.681  0.00  0.00    -0.276 OA
ATOM      3  O   UNL     1      -2.193 -10.131  10.829  0.00  0.00    -0.252 OA
ATOM      7  N   UNL     1      -4.382 -11.565  15.563  0.00  0.00    -0.288 N 
ATOM      8  N   UNL     1      -2.028 -11.106  12.860  0.00  0.00    -0.293 N 
ATOM      9  N   UNL     1      -4.128 -10.242  12.167  0.00  0.00    -0.193 N 
ATOM     10  C   UNL     1      -2.553 -11.529  14.124  0.00  0.00    +0.105 C 
ATOM     11  C   UNL     1      -3.738 -10.700  14.573  0.00  0.00    +0.183 C 
ATOM     12  C   UNL     1      -3.096 -12.956  14.144  0.00  0.00    +0.043 C 
ATOM     13  C   UNL     1      -3.960 -12.957  15.400  0.00  0.00    +0.110 C 
ATOM     14  C   UNL     1      -4.726 -10.452  13.436  0.00  0.00    +0.250 C 
ATOM     15  C   UNL     1      -5.189 -11.072  16.576  0.00  0.00    +0.217 C 
ATOM     16  C   UNL     1      -2.760 -10.482  11.868  0.00  0.00    +0.313 C 
ATOM     32  H   UNL     1      -1.049 -11.295  12.668  0.00  0.00    +0.151 HD
ENDROOT
BRANCH   9  18
ATOM     18  C   UNL     1      -4.979  -9.764  11.095  0.00  0.00    +0.046 A 
ATOM     20  C   UNL     1      -5.711 -10.673  10.343  0.00  0.00    +0.027 A 
ATOM     21  C   UNL     1      -5.049  -8.402  10.835  0.00  0.00    +0.027 A 
ATOM     22  C   UNL     1      -6.529 -10.211   9.313  0.00  0.00    +0.048 A 
ATOM     23  C   UNL     1      -5.867  -7.941   9.803  0.00  0.00    +0.048 A 
ATOM     25  C   UNL     1      -6.606  -8.846   9.042  0.00  0.00    +0.129 A 
BRANCH  25   4
ATOM      4  O   UNL     1      -7.405  -8.395   8.036  0.00  0.00    -0.456 OA
BRANCH   4  26
ATOM     26  C   UNL     1      -8.449  -7.550   8.372  0.00  0.00    +0.128 A 
ATOM     27  C   UNL     1      -8.354  -6.206   8.061  0.00  0.00    +0.046 A 
ATOM     28  C   UNL     1      -9.560  -8.072   9.009  0.00  0.00    +0.046 A 
ATOM     29  C   UNL     1      -9.406  -5.354   8.401  0.00  0.00    +0.004 A 
ATOM     30  C   UNL     1     -10.611  -7.221   9.348  0.00  0.00    +0.004 A 
ATOM     31  C   UNL     1     -10.535  -5.862   9.043  0.00  0.00    +0.000 A 
ENDBRANCH   4  26
ENDBRANCH  25   4
ENDBRANCH   9  18
BRANCH  15  17
ATOM     17  C   UNL     1      -5.663 -12.091  17.582  0.00  0.00    +0.107 C 
BRANCH  17  19
ATOM     19  C   UNL     1      -5.276 -11.652  18.980  0.00  0.00    +0.129 C 
BRANCH  19  24
ATOM      6  O   UNL     1      -7.313 -12.121  20.194  0.00  0.00    -0.251 OA
ATOM     24  C   UNL     1      -6.494 -11.301  19.797  0.00  0.00    +0.305 C 
BRANCH  24   5
ATOM      5  O   UNL     1      -6.601  -9.968  20.029  0.00  0.00    -0.481 OA
ATOM     33  H   UNL     1      -6.043  -9.444  19.415  0.00  0.00    +0.295 HD
ENDBRANCH  24   5
ENDBRANCH  19  24
ENDBRANCH  17  19
ENDBRANCH  15  17
TORSDOF 7
ENDMDL
MODEL 4
REMARK VINA RESULT:      -6.9     23.382     27.638
REMARK  Name = 7165083
REMARK  7 active torsions:
REMARK  status: ('A' for Active; 'I' for Inactive)
REMARK    1  A    between atoms: O_4  and  C_25
REMARK    2  A    between atoms: O_4  and  C_26
REMARK    3  A    between atoms: O_5  and  C_24
REMARK    4  A    between atoms: N_9  and  C_18
REMARK    5  A    between atoms: C_15  and  C_17
REMARK    6  A    between atoms: C_17  and  C_19
REMARK    7  A    between atoms: C_19  and  C_24
REMARK                            x       y       z     vdW  Elec       q    Type
REMARK                         _______ _______ _______ _____ _____    ______ ____
ROOT
ATOM      1  O   UNL     1      -7.675 -10.058  16.087  0.00  0.00    -0.273 OA
ATOM      2  O   UNL     1      -9.338  -7.834  17.468  0.00  0.00    -0.276 OA
ATOM      3  O   UNL     1      -4.977 -12.796  18.797  0.00  0.00    -0.252 OA
ATOM      7  N   UNL     1      -9.583 -10.070  18.012  0.00  0.00    -0.288 N 
ATOM      8  N   UNL     1      -7.054 -12.205  19.462  0.00  0.00    -0.293 N 
ATOM      9  N   UNL     1      -6.254 -11.430  17.365  0.00  0.00    -0.193 N 
ATOM     10  C   UNL     1      -8.303 -11.523  19.305  0.00  0.00    +0.105 C 
ATOM     11  C   UNL     1      -8.196 -10.301  18.417  0.00  0.00    +0.183 C 
ATOM     12  C   UNL     1      -9.400 -12.347  18.632  0.00  0.00    +0.043 C 
ATOM     13  C   UNL     1     -10.393 -11.275  18.200  0.00  0.00    +0.110 C 
ATOM     14  C   UNL     1      -7.368 -10.575  17.165  0.00  0.00    +0.250 C 
ATOM     15  C   UNL     1     -10.052  -8.827  17.616  0.00  0.00    +0.217 C 
ATOM     16  C   UNL     1      -6.026 -12.197  18.539  0.00  0.00    +0.313 C 
ATOM     32  H   UNL     1      -6.918 -12.752  20.306  0.00  0.00    +0.151 HD
ENDROOT
BRANCH   9  18
ATOM     18  C   UNL     1      -5.291 -11.541  16.288  0.00  0.00    +0.046 A 
ATOM     20  C   UNL     1      -4.264 -10.612  16.187  0.00  0.00    +0.027 A 
ATOM     21  C   UNL     1      -5.408 -12.578  15.372  0.00  0.00    +0.027 A 
ATOM     22  C   UNL     1      -3.338 -10.721  15.150  0.00  0.00    +0.048 A 
ATOM     23  C   UNL     1      -4.481 -12.687  14.334  0.00  0.00    +0.048 A 
ATOM     25  C   UNL     1      -3.447 -11.758  14.224  0.00  0.00    +0.129 A 
BRANCH  25   4
ATOM      4  O   UNL     1      -2.543 -11.864  13.212  0.00  0.00    -0.456 OA
BRANCH   4  26
ATOM     26  C   UNL     1      -2.634 -10.959  12.169  0.00  0.00    +0.128 A 
ATOM     27  C   UNL     1      -1.599 -10.068  11.956  0.00  0.00    +0.046 A 
ATOM     28  C   UNL     1      -3.761 -10.969  11.366  0.00  0.00    +0.046 A 
ATOM     29  C   UNL     1      -1.692  -9.155  10.905  0.00  0.00    +0.004 A 
ATOM     30  C   UNL     1      -3.854 -10.057  10.315  0.00  0.00    +0.004 A 
ATOM     31  C   UNL     1      -2.820  -9.151  10.084  0.00  0.00    +0.000 A 
ENDBRANCH   4  26
ENDBRANCH  25   4
ENDBRANCH   9  18
BRANCH  15  17
ATOM     17  C   UNL     1     -11.536  -8.745  17.358  0.00  0.00    +0.107 C 
BRANCH  17  19
ATOM     19  C   UNL     1     -11.788  -8.118  16.002  0.00  0.00    +0.129 C 
BRANCH  19  24
ATOM      6  O   UNL     1     -13.372  -6.294  15.911  0.00  0.00    -0.251 OA
ATOM     24  C   UNL     1     -12.234  -6.683  16.141  0.00  0.00    +0.305 C 
BRANCH  24   5
ATOM      5  O   UNL     1     -11.227  -5.859  16.528  0.00  0.00    -0.481 OA
ATOM     33  H   UNL     1     -10.579  -5.708  15.806  0.00  0.00    +0.295 HD
ENDBRANCH  24   5
ENDBRANCH  19  24
ENDBRANCH  17  19
ENDBRANCH  15  17
TORSDOF 7
ENDMDL
MODEL 5
REMARK VINA RESULT:      -6.9     25.281     31.407
REMARK  Name = 7165083
REMARK  7 active torsions:
REMARK  status: ('A' for Active; 'I' for Inactive)
REMARK    1  A    between atoms: O_4  and  C_25
REMARK    2  A    between atoms: O_4  and  C_26
REMARK    3  A    between atoms: O_5  and  C_24
REMARK    4  A    between atoms: N_9  and  C_18
REMARK    5  A    between atoms: C_15  and  C_17
REMARK    6  A    between atoms: C_17  and  C_19
REMARK    7  A    between atoms: C_19  and  C_24
REMARK                            x       y       z     vdW  Elec       q    Type
REMARK                         _______ _______ _______ _____ _____    ______ ____
ROOT
ATOM      1  O   UNL     1     -12.697   7.572  18.456  0.00  0.00    -0.273 OA
ATOM      2  O   UNL     1     -10.095   8.023  16.829  0.00  0.00    -0.276 OA
ATOM      3  O   UNL     1     -13.075   9.688  22.639  0.00  0.00    -0.252 OA
ATOM      7  N   UNL     1     -11.460   9.776  17.478  0.00  0.00    -0.288 N 
ATOM      8  N   UNL     1     -12.182  10.778  20.874  0.00  0.00    -0.293 N 
ATOM      9  N   UNL     1     -12.938   8.546  20.584  0.00  0.00    -0.193 N 
ATOM     10  C   UNL     1     -11.752  10.872  19.510  0.00  0.00    +0.105 C 
ATOM     11  C   UNL     1     -11.385   9.528  18.918  0.00  0.00    +0.183 C 
ATOM     12  C   UNL     1     -12.809  11.403  18.543  0.00  0.00    +0.043 C 
ATOM     13  C   UNL     1     -12.258  10.969  17.190  0.00  0.00    +0.110 C 
ATOM     14  C   UNL     1     -12.404   8.449  19.274  0.00  0.00    +0.250 C 
ATOM     15  C   UNL     1     -10.758   9.023  16.549  0.00  0.00    +0.217 C 
ATOM     16  C   UNL     1     -12.774   9.667  21.441  0.00  0.00    +0.313 C 
ATOM     32  H   UNL     1     -12.061  11.595  21.464  0.00  0.00    +0.151 HD
ENDROOT
BRANCH   9  18
ATOM     18  C   UNL     1     -13.720   7.430  21.075  0.00  0.00    +0.046 A 
ATOM     20  C   UNL     1     -15.104   7.461  20.969  0.00  0.00    +0.027 A 
ATOM     21  C   UNL     1     -13.073   6.342  21.646  0.00  0.00    +0.027 A 
ATOM     22  C   UNL     1     -15.855   6.386  21.442  0.00  0.00    +0.048 A 
ATOM     23  C   UNL     1     -13.825   5.266  22.120  0.00  0.00    +0.048 A 
ATOM     25  C   UNL     1     -15.216   5.289  22.018  0.00  0.00    +0.129 A 
BRANCH  25   4
ATOM      4  O   UNL     1     -15.949   4.239  22.480  0.00  0.00    -0.456 OA
BRANCH   4  26
ATOM     26  C   UNL     1     -16.241   4.204  23.833  0.00  0.00    +0.128 A 
ATOM     27  C   UNL     1     -15.739   3.172  24.604  0.00  0.00    +0.046 A 
ATOM     28  C   UNL     1     -17.028   5.202  24.378  0.00  0.00    +0.046 A 
ATOM     29  C   UNL     1     -16.035   3.136  25.967  0.00  0.00    +0.004 A 
ATOM     30  C   UNL     1     -17.323   5.167  25.740  0.00  0.00    +0.004 A 
ATOM     31  C   UNL     1     -16.826   4.135  26.535  0.00  0.00    +0.000 A 
ENDBRANCH   4  26
ENDBRANCH  25   4
ENDBRANCH   9  18
BRANCH  15  17
ATOM     17  C   UNL     1     -10.851   9.501  15.122  0.00  0.00    +0.107 C 
BRANCH  17  19
ATOM     19  C   UNL     1     -11.450   8.413  14.254  0.00  0.00    +0.129 C 
BRANCH  19  24
ATOM      6  O   UNL     1      -9.913   7.755  12.508  0.00  0.00    -0.251 OA
ATOM     24  C   UNL     1     -10.373   7.563  13.626  0.00  0.00    +0.305 C 
BRANCH  24   5
ATOM      5  O   UNL     1      -9.981   6.541  14.428  0.00  0.00    -0.481 OA
ATOM     33  H   UNL     1      -9.125   6.157  14.141  0.00  0.00    +0.295 HD
ENDBRANCH  24   5
ENDBRANCH  19  24
ENDBRANCH  17  19
ENDBRANCH  15  17
TORSDOF 7
ENDMDL
MODEL 6
REMARK VINA RESULT:      -6.8     23.851     27.804
REMARK  Name = 7165083
REMARK  7 active torsions:
REMARK  status: ('A' for Active; 'I' for Inactive)
REMARK    1  A    between atoms: O_4  and  C_25
REMARK    2  A    between atoms: O_4  and  C_26
REMARK    3  A    between atoms: O_5  and  C_24
REMARK    4  A    between atoms: N_9  and  C_18
REMARK    5  A    between atoms: C_15  and  C_17
REMARK    6  A    between atoms: C_17  and  C_19
REMARK    7  A    between atoms: C_19  and  C_24
REMARK                            x       y       z     vdW  Elec       q    Type
REMARK                         _______ _______ _______ _____ _____    ______ ____
ROOT
ATOM      1  O   UNL     1      -9.158  -8.542  15.033  0.00  0.00    -0.273 OA
ATOM      2  O   UNL     1     -10.466  -5.766  15.483  0.00  0.00    -0.276 OA
ATOM      3  O   UNL     1      -7.817 -10.987  18.819  0.00  0.00    -0.252 OA
ATOM      7  N   UNL     1     -11.357  -7.705  16.379  0.00  0.00    -0.288 N 
ATOM      8  N   UNL     1      -9.774  -9.859  18.811  0.00  0.00    -0.293 N 
ATOM      9  N   UNL     1      -8.404  -9.800  16.872  0.00  0.00    -0.193 N 
ATOM     10  C   UNL     1     -10.760  -9.009  18.212  0.00  0.00    +0.105 C 
ATOM     11  C   UNL     1     -10.179  -8.091  17.158  0.00  0.00    +0.183 C 
ATOM     12  C   UNL     1     -11.867  -9.747  17.462  0.00  0.00    +0.043 C 
ATOM     13  C   UNL     1     -12.459  -8.645  16.591  0.00  0.00    +0.110 C 
ATOM     14  C   UNL     1      -9.210  -8.823  16.233  0.00  0.00    +0.250 C 
ATOM     15  C   UNL     1     -11.417  -6.534  15.640  0.00  0.00    +0.217 C 
ATOM     16  C   UNL     1      -8.612 -10.280  18.193  0.00  0.00    +0.313 C 
ATOM     32  H   UNL     1      -9.949 -10.194  19.753  0.00  0.00    +0.151 HD
ENDROOT
BRANCH   9  18
ATOM     18  C   UNL     1      -7.302 -10.360  16.117  0.00  0.00    +0.046 A 
ATOM     20  C   UNL     1      -6.060  -9.739  16.151  0.00  0.00    +0.027 A 
ATOM     21  C   UNL     1      -7.503 -11.512  15.368  0.00  0.00    +0.027 A 
ATOM     22  C   UNL     1      -5.001 -10.280  15.423  0.00  0.00    +0.048 A 
ATOM     23  C   UNL     1      -6.443 -12.053  14.640  0.00  0.00    +0.048 A 
ATOM     25  C   UNL     1      -5.192 -11.436  14.667  0.00  0.00    +0.129 A 
BRANCH  25   4
ATOM      4  O   UNL     1      -4.158 -11.963  13.957  0.00  0.00    -0.456 OA
BRANCH   4  26
ATOM     26  C   UNL     1      -3.639 -11.209  12.918  0.00  0.00    +0.128 A 
ATOM     27  C   UNL     1      -4.479 -10.792  11.903  0.00  0.00    +0.046 A 
ATOM     28  C   UNL     1      -2.293 -10.892  12.923  0.00  0.00    +0.046 A 
ATOM     29  C   UNL     1      -3.956 -10.033  10.856  0.00  0.00    +0.004 A 
ATOM     30  C   UNL     1      -1.769 -10.133  11.877  0.00  0.00    +0.004 A 
ATOM     31  C   UNL     1      -2.601  -9.702  10.844  0.00  0.00    +0.000 A 
ENDBRANCH   4  26
ENDBRANCH  25   4
ENDBRANCH   9  18
BRANCH  15  17
ATOM     17  C   UNL     1     -12.752  -6.234  15.007  0.00  0.00    +0.107 C 
BRANCH  17  19
ATOM     19  C   UNL     1     -12.554  -5.825  13.560  0.00  0.00    +0.129 C 
BRANCH  19  24
ATOM      6  O   UNL     1     -14.236  -4.107  13.312  0.00  0.00    -0.251 OA
ATOM     24  C   UNL     1     -13.053  -4.422  13.318  0.00  0.00    +0.305 C 
BRANCH  24   5
ATOM      5  O   UNL     1     -12.046  -3.544  13.083  0.00  0.00    -0.481 OA
ATOM     33  H   UNL     1     -11.164  -3.948  13.234  0.00  0.00    +0.295 HD
ENDBRANCH  24   5
ENDBRANCH  19  24
ENDBRANCH  17  19
ENDBRANCH  15  17
TORSDOF 7
ENDMDL
MODEL 7
REMARK VINA RESULT:      -6.8     23.679     27.892
REMARK  Name = 7165083
REMARK  7 active torsions:
REMARK  status: ('A' for Active; 'I' for Inactive)
REMARK    1  A    between atoms: O_4  and  C_25
REMARK    2  A    between atoms: O_4  and  C_26
REMARK    3  A    between atoms: O_5  and  C_24
REMARK    4  A    between atoms: N_9  and  C_18
REMARK    5  A    between atoms: C_15  and  C_17
REMARK    6  A    between atoms: C_17  and  C_19
REMARK    7  A    between atoms: C_19  and  C_24
REMARK                            x       y       z     vdW  Elec       q    Type
REMARK                         _______ _______ _______ _____ _____    ______ ____
ROOT
ATOM      1  O   UNL     1      -7.142 -10.843  16.491  0.00  0.00    -0.273 OA
ATOM      2  O   UNL     1      -9.272  -8.893  17.623  0.00  0.00    -0.276 OA
ATOM      3  O   UNL     1      -3.501 -11.972  19.246  0.00  0.00    -0.252 OA
ATOM      7  N   UNL     1      -8.771 -10.903  18.656  0.00  0.00    -0.288 N 
ATOM      8  N   UNL     1      -5.589 -11.830  20.096  0.00  0.00    -0.293 N 
ATOM      9  N   UNL     1      -5.259 -11.409  17.783  0.00  0.00    -0.193 N 
ATOM     10  C   UNL     1      -6.996 -11.580  20.002  0.00  0.00    +0.105 C 
ATOM     11  C   UNL     1      -7.348 -10.635  18.873  0.00  0.00    +0.183 C 
ATOM     12  C   UNL     1      -7.845 -12.814  19.702  0.00  0.00    +0.043 C 
ATOM     13  C   UNL     1      -9.153 -12.199  19.219  0.00  0.00    +0.110 C 
ATOM     14  C   UNL     1      -6.594 -10.971  17.589  0.00  0.00    +0.250 C 
ATOM     15  C   UNL     1      -9.631  -9.976  18.089  0.00  0.00    +0.217 C 
ATOM     16  C   UNL     1      -4.702 -11.768  19.040  0.00  0.00    +0.313 C 
ATOM     32  H   UNL     1      -5.216 -12.092  21.004  0.00  0.00    +0.151 HD
ENDROOT
BRANCH   9  18
ATOM     18  C   UNL     1      -4.410 -11.513  16.614  0.00  0.00    +0.046 A 
ATOM     20  C   UNL     1      -3.577 -10.456  16.274  0.00  0.00    +0.027 A 
ATOM     21  C   UNL     1      -4.442 -12.671  15.849  0.00  0.00    +0.027 A 
ATOM     22  C   UNL     1      -2.760 -10.558  15.148  0.00  0.00    +0.048 A 
ATOM     23  C   UNL     1      -3.625 -12.773  14.722  0.00  0.00    +0.048 A 
ATOM     25  C   UNL     1      -2.785 -11.716  14.372  0.00  0.00    +0.129 A 
BRANCH  25   4
ATOM      4  O   UNL     1      -1.987 -11.816  13.273  0.00  0.00    -0.456 OA
BRANCH   4  26
ATOM     26  C   UNL     1      -2.250 -10.971  12.208  0.00  0.00    +0.128 A 
ATOM     27  C   UNL     1      -1.374  -9.937  11.935  0.00  0.00    +0.046 A 
ATOM     28  C   UNL     1      -3.384 -11.184  11.444  0.00  0.00    +0.046 A 
ATOM     29  C   UNL     1      -1.641  -9.086  10.862  0.00  0.00    +0.004 A 
ATOM     30  C   UNL     1      -3.650 -10.334  10.371  0.00  0.00    +0.004 A 
ATOM     31  C   UNL     1      -2.778  -9.286  10.080  0.00  0.00    +0.000 A 
ENDBRANCH   4  26
ENDBRANCH  25   4
ENDBRANCH   9  18
BRANCH  15  17
ATOM     17  C   UNL     1     -11.086 -10.373  18.061  0.00  0.00    +0.107 C 
BRANCH  17  19
ATOM     19  C   UNL     1     -11.808  -9.762  19.245  0.00  0.00    +0.129 C 
BRANCH  19  24
ATOM      6  O   UNL     1     -12.707 -11.955  19.719  0.00  0.00    -0.251 OA
ATOM     24  C   UNL     1     -12.433 -10.828  20.110  0.00  0.00    +0.305 C 
BRANCH  24   5
ATOM      5  O   UNL     1     -12.683 -10.395  21.372  0.00  0.00    -0.481 OA
ATOM     33  H   UNL     1     -13.166 -11.066  21.900  0.00  0.00    +0.295 HD
ENDBRANCH  24   5
ENDBRANCH  19  24
ENDBRANCH  17  19
ENDBRANCH  15  17
TORSDOF 7
ENDMDL
MODEL 8
REMARK VINA RESULT:      -6.6      5.644      8.455
REMARK  Name = 7165083
REMARK  7 active torsions:
REMARK  status: ('A' for Active; 'I' for Inactive)
REMARK    1  A    between atoms: O_4  and  C_25
REMARK    2  A    between atoms: O_4  and  C_26
REMARK    3  A    between atoms: O_5  and  C_24
REMARK    4  A    between atoms: N_9  and  C_18
REMARK    5  A    between atoms: C_15  and  C_17
REMARK    6  A    between atoms: C_17  and  C_19
REMARK    7  A    between atoms: C_19  and  C_24
REMARK                            x       y       z     vdW  Elec       q    Type
REMARK                         _______ _______ _______ _____ _____    ______ ____
ROOT
ATOM      1  O   UNL     1      11.617   8.980   4.606  0.00  0.00    -0.273 OA
ATOM      2  O   UNL     1       8.830  10.163   5.281  0.00  0.00    -0.276 OA
ATOM      3  O   UNL     1      13.635   6.151   7.774  0.00  0.00    -0.252 OA
ATOM      7  N   UNL     1       9.209   7.881   5.191  0.00  0.00    -0.288 N 
ATOM      8  N   UNL     1      11.424   5.998   7.337  0.00  0.00    -0.293 N 
ATOM      9  N   UNL     1      12.720   7.605   6.164  0.00  0.00    -0.193 N 
ATOM     10  C   UNL     1      10.220   6.397   6.672  0.00  0.00    +0.105 C 
ATOM     11  C   UNL     1      10.252   7.840   6.218  0.00  0.00    +0.183 C 
ATOM     12  C   UNL     1       9.920   5.632   5.384  0.00  0.00    +0.043 C 
ATOM     13  C   UNL     1       8.904   6.537   4.698  0.00  0.00    +0.110 C 
ATOM     14  C   UNL     1      11.583   8.206   5.567  0.00  0.00    +0.250 C 
ATOM     15  C   UNL     1       8.544   9.047   4.844  0.00  0.00    +0.217 C 
ATOM     16  C   UNL     1      12.670   6.552   7.117  0.00  0.00    +0.313 C 
ATOM     32  H   UNL     1      11.364   5.239   8.009  0.00  0.00    +0.151 HD
ENDROOT
BRANCH   9  18
ATOM     18  C   UNL     1      14.025   8.088   5.760  0.00  0.00    +0.046 A 
ATOM     20  C   UNL     1      14.556   9.219   6.367  0.00  0.00    +0.027 A 
ATOM     21  C   UNL     1      14.727   7.413   4.771  0.00  0.00    +0.027 A 
ATOM     22  C   UNL     1      15.812   9.682   5.977  0.00  0.00    +0.048 A 
ATOM     23  C   UNL     1      15.984   7.877   4.381  0.00  0.00    +0.048 A 
ATOM     25  C   UNL     1      16.525   9.012   4.984  0.00  0.00    +0.129 A 
BRANCH  25   4
ATOM      4  O   UNL     1      17.752   9.464   4.603  0.00  0.00    -0.456 OA
BRANCH   4  26
ATOM     26  C   UNL     1      18.862   8.767   5.048  0.00  0.00    +0.128 A 
ATOM     27  C   UNL     1      19.265   8.909   6.363  0.00  0.00    +0.046 A 
ATOM     28  C   UNL     1      19.539   7.945   4.166  0.00  0.00    +0.046 A 
ATOM     29  C   UNL     1      20.384   8.207   6.811  0.00  0.00    +0.004 A 
ATOM     30  C   UNL     1      20.657   7.242   4.613  0.00  0.00    +0.004 A 
ATOM     31  C   UNL     1      21.080   7.373   5.936  0.00  0.00    +0.000 A 
ENDBRANCH   4  26
ENDBRANCH  25   4
ENDBRANCH   9  18
BRANCH  15  17
ATOM     17  C   UNL     1       7.412   8.880   3.861  0.00  0.00    +0.107 C 
BRANCH  17  19
ATOM     19  C   UNL     1       6.946  10.239   3.378  0.00  0.00    +0.129 C 
BRANCH  19  24
ATOM      6  O   UNL     1       5.126  11.071   4.733  0.00  0.00    -0.251 OA
ATOM     24  C   UNL     1       5.499  10.475   3.731  0.00  0.00    +0.305 C 
BRANCH  24   5
ATOM      5  O   UNL     1       4.646   9.932   2.825  0.00  0.00    -0.481 OA
ATOM     33  H   UNL     1       4.440   8.995   3.032  0.00  0.00    +0.295 HD
ENDBRANCH  24   5
ENDBRANCH  19  24
ENDBRANCH  17  19
ENDBRANCH  15  17
TORSDOF 7
ENDMDL
MODEL 9
REMARK VINA RESULT:      -6.6      3.634      8.805
REMARK  Name = 7165083
REMARK  7 active torsions:
REMARK  status: ('A' for Active; 'I' for Inactive)
REMARK    1  A    between atoms: O_4  and  C_25
REMARK    2  A    between atoms: O_4  and  C_26
REMARK    3  A    between atoms: O_5  and  C_24
REMARK    4  A    between atoms: N_9  and  C_18
REMARK    5  A    between atoms: C_15  and  C_17
REMARK    6  A    between atoms: C_17  and  C_19
REMARK    7  A    between atoms: C_19  and  C_24
REMARK                            x       y       z     vdW  Elec       q    Type
REMARK                         _______ _______ _______ _____ _____    ______ ____
ROOT
ATOM      1  O   UNL     1      13.567   6.600   2.679  0.00  0.00    -0.273 OA
ATOM      2  O   UNL     1      11.903   6.358   0.073  0.00  0.00    -0.276 OA
ATOM      3  O   UNL     1      11.551   8.654   6.398  0.00  0.00    -0.252 OA
ATOM      7  N   UNL     1      11.201   5.426   2.072  0.00  0.00    -0.288 N 
ATOM      8  N   UNL     1      10.381   7.226   5.096  0.00  0.00    -0.293 N 
ATOM      9  N   UNL     1      12.652   7.669   4.564  0.00  0.00    -0.193 N 
ATOM     10  C   UNL     1      10.230   6.343   3.978  0.00  0.00    +0.105 C 
ATOM     11  C   UNL     1      11.174   6.671   2.841  0.00  0.00    +0.183 C 
ATOM     12  C   UNL     1      10.539   4.877   4.277  0.00  0.00    +0.043 C 
ATOM     13  C   UNL     1      10.741   4.297   2.882  0.00  0.00    +0.110 C 
ATOM     14  C   UNL     1      12.588   6.961   3.337  0.00  0.00    +0.250 C 
ATOM     15  C   UNL     1      11.518   5.384   0.723  0.00  0.00    +0.217 C 
ATOM     16  C   UNL     1      11.546   7.890   5.428  0.00  0.00    +0.313 C 
ATOM     32  H   UNL     1       9.578   7.362   5.702  0.00  0.00    +0.151 HD
ENDROOT
BRANCH   9  18
ATOM     18  C   UNL     1      13.942   8.188   4.973  0.00  0.00    +0.046 A 
ATOM     20  C   UNL     1      14.703   7.486   5.898  0.00  0.00    +0.027 A 
ATOM     21  C   UNL     1      14.398   9.384   4.434  0.00  0.00    +0.027 A 
ATOM     22  C   UNL     1      15.944   7.987   6.290  0.00  0.00    +0.048 A 
ATOM     23  C   UNL     1      15.639   9.885   4.827  0.00  0.00    +0.048 A 
ATOM     25  C   UNL     1      16.411   9.187   5.755  0.00  0.00    +0.129 A 
BRANCH  25   4
ATOM      4  O   UNL     1      17.622   9.676   6.138  0.00  0.00    -0.456 OA
BRANCH   4  26
ATOM     26  C   UNL     1      18.740   8.897   5.889  0.00  0.00    +0.128 A 
ATOM     27  C   UNL     1      18.930   8.377   4.622  0.00  0.00    +0.046 A 
ATOM     28  C   UNL     1      19.637   8.660   6.914  0.00  0.00    +0.046 A 
ATOM     29  C   UNL     1      20.056   7.592   4.372  0.00  0.00    +0.004 A 
ATOM     30  C   UNL     1      20.762   7.875   6.664  0.00  0.00    +0.004 A 
ATOM     31  C   UNL     1      20.972   7.342   5.393  0.00  0.00    +0.000 A 
ENDBRANCH   4  26
ENDBRANCH  25   4
ENDBRANCH   9  18
BRANCH  15  17
ATOM     17  C   UNL     1      11.370   4.037   0.063  0.00  0.00    +0.107 C 
BRANCH  17  19
ATOM     19  C   UNL     1      12.722   3.548  -0.416  0.00  0.00    +0.129 C 
BRANCH  19  24
ATOM      6  O   UNL     1      13.806   2.909   1.648  0.00  0.00    -0.251 OA
ATOM     24  C   UNL     1      13.757   3.653   0.676  0.00  0.00    +0.305 C 
BRANCH  24   5
ATOM      5  O   UNL     1      14.620   4.681   0.479  0.00  0.00    -0.481 OA
ATOM     33  H   UNL     1      14.819   5.158   1.314  0.00  0.00    +0.295 HD
ENDBRANCH  24   5
ENDBRANCH  19  24
ENDBRANCH  17  19
ENDBRANCH  15  17
TORSDOF 7
ENDMDL
MODEL 10
REMARK VINA RESULT:      -6.5     27.707     32.882
REMARK  Name = 7165083
REMARK  7 active torsions:
REMARK  status: ('A' for Active; 'I' for Inactive)
REMARK    1  A    between atoms: O_4  and  C_25
REMARK    2  A    between atoms: O_4  and  C_26
REMARK    3  A    between atoms: O_5  and  C_24
REMARK    4  A    between atoms: N_9  and  C_18
REMARK    5  A    between atoms: C_15  and  C_17
REMARK    6  A    between atoms: C_17  and  C_19
REMARK    7  A    between atoms: C_19  and  C_24
REMARK                            x       y       z     vdW  Elec       q    Type
REMARK                         _______ _______ _______ _____ _____    ______ ____
ROOT
ATOM      1  O   UNL     1     -14.947   5.181  23.697  0.00  0.00    -0.273 OA
ATOM      2  O   UNL     1     -15.675   2.468  25.012  0.00  0.00    -0.276 OA
ATOM      3  O   UNL     1     -16.462   5.984  19.318  0.00  0.00    -0.252 OA
ATOM      7  N   UNL     1     -17.292   3.943  24.258  0.00  0.00    -0.288 N 
ATOM      8  N   UNL     1     -17.804   4.984  20.835  0.00  0.00    -0.293 N 
ATOM      9  N   UNL     1     -15.615   5.634  21.487  0.00  0.00    -0.193 N 
ATOM     10  C   UNL     1     -18.093   4.444  22.130  0.00  0.00    +0.105 C 
ATOM     11  C   UNL     1     -16.851   3.981  22.862  0.00  0.00    +0.183 C 
ATOM     12  C   UNL     1     -18.726   5.434  23.107  0.00  0.00    +0.043 C 
ATOM     13  C   UNL     1     -18.494   4.756  24.452  0.00  0.00    +0.110 C 
ATOM     14  C   UNL     1     -15.710   4.988  22.746  0.00  0.00    +0.250 C 
ATOM     15  C   UNL     1     -16.689   3.139  25.213  0.00  0.00    +0.217 C 
ATOM     16  C   UNL     1     -16.612   5.582  20.476  0.00  0.00    +0.313 C 
ATOM     32  H   UNL     1     -18.535   4.941  20.132  0.00  0.00    +0.151 HD
ENDROOT
BRANCH   9  18
ATOM     18  C   UNL     1     -14.424   6.415  21.221  0.00  0.00    +0.046 A 
ATOM     20  C   UNL     1     -14.541   7.768  20.931  0.00  0.00    +0.027 A 
ATOM     21  C   UNL     1     -13.181   5.799  21.260  0.00  0.00    +0.027 A 
ATOM     22  C   UNL     1     -13.394   8.518  20.675  0.00  0.00    +0.048 A 
ATOM     23  C   UNL     1     -12.033   6.550  21.004  0.00  0.00    +0.048 A 
ATOM     25  C   UNL     1     -12.140   7.909  20.711  0.00  0.00    +0.129 A 
BRANCH  25   4
ATOM      4  O   UNL     1     -11.020   8.642  20.461  0.00  0.00    -0.456 OA
BRANCH   4  26
ATOM     26  C   UNL     1     -10.767   9.003  19.149  0.00  0.00    +0.128 A 
ATOM     27  C   UNL     1     -10.849   8.044  18.157  0.00  0.00    +0.046 A 
ATOM     28  C   UNL     1     -10.437  10.316  18.865  0.00  0.00    +0.046 A 
ATOM     29  C   UNL     1     -10.593   8.410  16.835  0.00  0.00    +0.004 A 
ATOM     30  C   UNL     1     -10.182  10.682  17.544  0.00  0.00    +0.004 A 
ATOM     31  C   UNL     1     -10.260   9.729  16.528  0.00  0.00    +0.000 A 
ENDBRANCH   4  26
ENDBRANCH  25   4
ENDBRANCH   9  18
BRANCH  15  17
ATOM     17  C   UNL     1     -17.355   3.129  26.566  0.00  0.00    +0.107 C 
BRANCH  17  19
ATOM     19  C   UNL     1     -16.567   3.988  27.534  0.00  0.00    +0.129 C 
BRANCH  19  24
ATOM      6  O   UNL     1     -16.615   2.404  29.358  0.00  0.00    -0.251 OA
ATOM     24  C   UNL     1     -15.968   3.154  28.639  0.00  0.00    +0.305 C 
BRANCH  24   5
ATOM      5  O   UNL     1     -14.630   3.342  28.768  0.00  0.00    -0.481 OA
ATOM     33  H   UNL     1     -14.119   2.758  28.167  0.00  0.00    +0.295 HD
ENDBRANCH  24   5
ENDBRANCH  19  24
ENDBRANCH  17  19
ENDBRANCH  15  17
TORSDOF 7
ENDMDL
