MODEL 1
REMARK VINA RESULT:      -5.8      0.000      0.000
REMARK  Name = 11882007
REMARK  13 active torsions:
REMARK  status: ('A' for Active; 'I' for Inactive)
REMARK    1  A    between atoms: S_1  and  C_22
REMARK    2  A    between atoms: S_1  and  C_26
REMARK    3  A    between atoms: O_2  and  C_13
REMARK    4  A    between atoms: O_3  and  C_15
REMARK    5  A    between atoms: N_9  and  C_14
REMARK    6  A    between atoms: N_10  and  C_20
REMARK    7  A    between atoms: N_12  and  C_25
REMARK    8  A    between atoms: N_12  and  C_27
REMARK    9  A    between atoms: C_17  and  C_19
REMARK   10  A    between atoms: C_20  and  C_21
REMARK   11  A    between atoms: C_20  and  C_24
REMARK   12  A    between atoms: C_21  and  C_22
REMARK   13  A    between atoms: C_23  and  C_25
REMARK                            x       y       z     vdW  Elec       q    Type
REMARK                         _______ _______ _______ _____ _____    ______ ____
ROOT
ATOM     13  C   UNL     1      12.576   7.060  19.597  0.00  0.00    +0.167 C 
ATOM     14  C   UNL     1      11.612   8.146  19.084  0.00  0.00    +0.127 C 
ATOM     15  C   UNL     1      12.237   6.641  21.033  0.00  0.00    +0.149 C 
ATOM     16  C   UNL     1      12.220   7.839  21.998  0.00  0.00    +0.074 C 
ATOM     17  C   UNL     1      11.629   9.081  21.395  0.00  0.00    +0.015 C 
ATOM     18  C   UNL     1      11.344   9.230  20.093  0.00  0.00    +0.006 C 
ENDROOT
BRANCH  17  19
ATOM      4  O   UNL     1      10.582  10.056  23.259  0.00  0.00    -0.271 OA
ATOM     10  N   UNL     1      11.944  11.380  21.907  0.00  0.00    -0.300 N 
ATOM     19  C   UNL     1      11.322  10.203  22.287  0.00  0.00    +0.241 C 
ATOM     29  H   UNL     1      12.461  11.432  21.037  0.00  0.00    +0.150 HD
BRANCH  10  20
ATOM     20  C   UNL     1      11.792  12.622  22.631  0.00  0.00    +0.160 C 
BRANCH  20  24
ATOM      8  O   UNL     1      11.157  13.908  20.669  0.00  0.00    -0.274 OA
ATOM     11  N   UNL     1       9.702  13.826  22.444  0.00  0.00    -0.328 N 
ATOM     24  C   UNL     1      10.886  13.525  21.804  0.00  0.00    +0.231 C 
ATOM     32  H   UNL     1       9.002  14.408  21.995  0.00  0.00    +0.145 HD
ATOM     33  H   UNL     1       9.489  13.499  23.380  0.00  0.00    +0.145 HD
ENDBRANCH  20  24
BRANCH  20  21
ATOM     21  C   UNL     1      13.136  13.304  22.890  0.00  0.00    +0.054 C 
BRANCH  21  22
ATOM     22  C   UNL     1      14.286  12.610  22.172  0.00  0.00    +0.168 C 
BRANCH  22   1
ATOM      1  S   UNL     1      15.152  11.517  23.254  0.00  0.00    -0.034 S 
ATOM      6  O   UNL     1      15.016  12.019  24.611  0.00  0.00    -0.175 OA
ATOM      7  O   UNL     1      14.768  10.154  22.929  0.00  0.00    -0.175 OA
ATOM     26  C   UNL     1      16.851  11.725  22.774  0.00  0.00    +0.194 C 
ENDBRANCH  22   1
ENDBRANCH  21  22
ENDBRANCH  20  21
ENDBRANCH  10  20
ENDBRANCH  17  19
BRANCH  14   9
ATOM      5  O   UNL     1      10.289   8.199  16.511  0.00  0.00    -0.274 OA
ATOM      9  N   UNL     1      12.093   8.752  17.866  0.00  0.00    -0.305 N 
ATOM     23  C   UNL     1      11.387   8.728  16.670  0.00  0.00    +0.227 C 
ATOM     28  H   UNL     1      13.014   9.182  17.876  0.00  0.00    +0.149 HD
BRANCH  23  25
ATOM     25  C   UNL     1      12.144   9.414  15.551  0.00  0.00    +0.177 C 
BRANCH  25  12
ATOM     12  N   UNL     1      13.449   8.781  15.413  0.00  0.00    -0.311 NA
ATOM     27  C   UNL     1      14.516   9.770  15.473  0.00  0.00    +0.101 C 
ATOM     34  H   UNL     1      13.580   8.105  16.164  0.00  0.00    +0.122 HD
ENDBRANCH  25  12
ENDBRANCH  23  25
ENDBRANCH  14   9
BRANCH  13   2
ATOM      2  O   UNL     1      13.917   7.556  19.569  0.00  0.00    -0.387 OA
ATOM     30  H   UNL     1      14.203   7.565  18.640  0.00  0.00    +0.210 HD
ENDBRANCH  13   2
BRANCH  15   3
ATOM      3  O   UNL     1      10.978   5.971  21.064  0.00  0.00    -0.389 OA
ATOM     31  H   UNL     1      10.856   5.507  20.220  0.00  0.00    +0.210 HD
ENDBRANCH  15   3
TORSDOF 11
ENDMDL
MODEL 2
REMARK VINA RESULT:      -5.8      5.856      8.214
REMARK  Name = 11882007
REMARK  13 active torsions:
REMARK  status: ('A' for Active; 'I' for Inactive)
REMARK    1  A    between atoms: S_1  and  C_22
REMARK    2  A    between atoms: S_1  and  C_26
REMARK    3  A    between atoms: O_2  and  C_13
REMARK    4  A    between atoms: O_3  and  C_15
REMARK    5  A    between atoms: N_9  and  C_14
REMARK    6  A    between atoms: N_10  and  C_20
REMARK    7  A    between atoms: N_12  and  C_25
REMARK    8  A    between atoms: N_12  and  C_27
REMARK    9  A    between atoms: C_17  and  C_19
REMARK   10  A    between atoms: C_20  and  C_21
REMARK   11  A    between atoms: C_20  and  C_24
REMARK   12  A    between atoms: C_21  and  C_22
REMARK   13  A    between atoms: C_23  and  C_25
REMARK                            x       y       z     vdW  Elec       q    Type
REMARK                         _______ _______ _______ _____ _____    ______ ____
ROOT
ATOM     13  C   UNL     1      14.473   9.303  21.348  0.00  0.00    +0.167 C 
ATOM     14  C   UNL     1      14.425   7.880  20.759  0.00  0.00    +0.127 C 
ATOM     15  C   UNL     1      15.777  10.020  20.978  0.00  0.00    +0.149 C 
ATOM     16  C   UNL     1      17.021   9.222  21.408  0.00  0.00    +0.074 C 
ATOM     17  C   UNL     1      16.872   7.740  21.217  0.00  0.00    +0.015 C 
ATOM     18  C   UNL     1      15.718   7.126  20.917  0.00  0.00    +0.006 C 
ENDROOT
BRANCH  17  19
ATOM      4  O   UNL     1      18.265   5.957  20.584  0.00  0.00    -0.271 OA
ATOM     10  N   UNL     1      18.900   7.305  22.377  0.00  0.00    -0.300 N 
ATOM     19  C   UNL     1      18.070   6.904  21.344  0.00  0.00    +0.241 C 
ATOM     29  H   UNL     1      18.612   8.039  23.013  0.00  0.00    +0.150 HD
BRANCH  10  20
ATOM     20  C   UNL     1      20.140   6.634  22.698  0.00  0.00    +0.160 C 
BRANCH  20  24
ATOM      8  O   UNL     1      21.092   6.231  24.898  0.00  0.00    -0.274 OA
ATOM     11  N   UNL     1      20.095   8.259  24.489  0.00  0.00    -0.328 N 
ATOM     24  C   UNL     1      20.487   6.984  24.139  0.00  0.00    +0.231 C 
ATOM     32  H   UNL     1      20.280   8.623  25.418  0.00  0.00    +0.145 HD
ATOM     33  H   UNL     1      19.600   8.873  23.851  0.00  0.00    +0.145 HD
ENDBRANCH  20  24
BRANCH  20  21
ATOM     21  C   UNL     1      21.275   7.044  21.758  0.00  0.00    +0.054 C 
BRANCH  21  22
ATOM     22  C   UNL     1      22.527   6.200  21.959  0.00  0.00    +0.168 C 
BRANCH  22   1
ATOM      1  S   UNL     1      22.429   4.684  21.061  0.00  0.00    -0.034 S 
ATOM      6  O   UNL     1      21.247   4.730  20.218  0.00  0.00    -0.175 OA
ATOM      7  O   UNL     1      23.736   4.410  20.486  0.00  0.00    -0.175 OA
ATOM     26  C   UNL     1      22.137   3.473  22.329  0.00  0.00    +0.194 C 
ENDBRANCH  22   1
ENDBRANCH  21  22
ENDBRANCH  20  21
ENDBRANCH  10  20
ENDBRANCH  17  19
BRANCH  14   9
ATOM      5  O   UNL     1      12.008   6.979  19.450  0.00  0.00    -0.274 OA
ATOM      9  N   UNL     1      13.358   7.101  21.336  0.00  0.00    -0.305 N 
ATOM     23  C   UNL     1      12.227   6.711  20.629  0.00  0.00    +0.227 C 
ATOM     28  H   UNL     1      13.419   6.860  22.322  0.00  0.00    +0.149 HD
BRANCH  23  25
ATOM     25  C   UNL     1      11.259   5.930  21.494  0.00  0.00    +0.177 C 
BRANCH  25  12
ATOM     12  N   UNL     1      10.072   6.744  21.720  0.00  0.00    -0.311 NA
ATOM     27  C   UNL     1      10.412   7.980  22.412  0.00  0.00    +0.101 C 
ATOM     34  H   UNL     1       9.641   6.973  20.826  0.00  0.00    +0.122 HD
ENDBRANCH  25  12
ENDBRANCH  23  25
ENDBRANCH  14   9
BRANCH  13   2
ATOM      2  O   UNL     1      14.376   9.236  22.773  0.00  0.00    -0.387 OA
ATOM     30  H   UNL     1      13.453   9.020  22.989  0.00  0.00    +0.210 HD
ENDBRANCH  13   2
BRANCH  15   3
ATOM      3  O   UNL     1      15.819  10.270  19.574  0.00  0.00    -0.389 OA
ATOM     31  H   UNL     1      15.784  11.229  19.431  0.00  0.00    +0.210 HD
ENDBRANCH  15   3
TORSDOF 11
ENDMDL
MODEL 3
REMARK VINA RESULT:      -5.8      1.890      2.307
REMARK  Name = 11882007
REMARK  13 active torsions:
REMARK  status: ('A' for Active; 'I' for Inactive)
REMARK    1  A    between atoms: S_1  and  C_22
REMARK    2  A    between atoms: S_1  and  C_26
REMARK    3  A    between atoms: O_2  and  C_13
REMARK    4  A    between atoms: O_3  and  C_15
REMARK    5  A    between atoms: N_9  and  C_14
REMARK    6  A    between atoms: N_10  and  C_20
REMARK    7  A    between atoms: N_12  and  C_25
REMARK    8  A    between atoms: N_12  and  C_27
REMARK    9  A    between atoms: C_17  and  C_19
REMARK   10  A    between atoms: C_20  and  C_21
REMARK   11  A    between atoms: C_20  and  C_24
REMARK   12  A    between atoms: C_21  and  C_22
REMARK   13  A    between atoms: C_23  and  C_25
REMARK                            x       y       z     vdW  Elec       q    Type
REMARK                         _______ _______ _______ _____ _____    ______ ____
ROOT
ATOM     13  C   UNL     1      11.926   7.167  20.801  0.00  0.00    +0.167 C 
ATOM     14  C   UNL     1      11.717   8.370  19.862  0.00  0.00    +0.127 C 
ATOM     15  C   UNL     1      10.988   7.230  22.013  0.00  0.00    +0.149 C 
ATOM     16  C   UNL     1      11.137   8.548  22.793  0.00  0.00    +0.074 C 
ATOM     17  C   UNL     1      11.339   9.744  21.908  0.00  0.00    +0.015 C 
ATOM     18  C   UNL     1      11.591   9.680  20.592  0.00  0.00    +0.006 C 
ENDROOT
BRANCH  17  19
ATOM      4  O   UNL     1      10.721  11.231  23.619  0.00  0.00    -0.271 OA
ATOM     10  N   UNL     1      11.764  12.074  21.713  0.00  0.00    -0.300 N 
ATOM     19  C   UNL     1      11.235  11.076  22.513  0.00  0.00    +0.241 C 
ATOM     29  H   UNL     1      12.082  11.867  20.773  0.00  0.00    +0.150 HD
BRANCH  10  20
ATOM     20  C   UNL     1      11.775  13.469  22.096  0.00  0.00    +0.160 C 
BRANCH  20  24
ATOM      8  O   UNL     1      10.771  14.612  20.200  0.00  0.00    -0.274 OA
ATOM     11  N   UNL     1       9.464  14.178  22.038  0.00  0.00    -0.328 N 
ATOM     24  C   UNL     1      10.650  14.159  21.336  0.00  0.00    +0.231 C 
ATOM     32  H   UNL     1       8.629  14.596  21.639  0.00  0.00    +0.145 HD
ATOM     33  H   UNL     1       9.377  13.797  22.974  0.00  0.00    +0.145 HD
ENDBRANCH  20  24
BRANCH  20  21
ATOM     21  C   UNL     1      13.117  14.137  21.791  0.00  0.00    +0.054 C 
BRANCH  21  22
ATOM     22  C   UNL     1      14.149  13.149  21.261  0.00  0.00    +0.168 C 
BRANCH  22   1
ATOM      1  S   UNL     1      14.264  13.224  19.502  0.00  0.00    -0.034 S 
ATOM      6  O   UNL     1      13.132  12.507  18.941  0.00  0.00    -0.175 OA
ATOM      7  O   UNL     1      14.529  14.601  19.121  0.00  0.00    -0.175 OA
ATOM     26  C   UNL     1      15.727  12.279  19.145  0.00  0.00    +0.194 C 
ENDBRANCH  22   1
ENDBRANCH  21  22
ENDBRANCH  20  21
ENDBRANCH  10  20
ENDBRANCH  17  19
BRANCH  14   9
ATOM      5  O   UNL     1      11.749   7.297  17.176  0.00  0.00    -0.274 OA
ATOM      9  N   UNL     1      12.778   8.478  18.891  0.00  0.00    -0.305 N 
ATOM     23  C   UNL     1      12.707   7.928  17.618  0.00  0.00    +0.227 C 
ATOM     28  H   UNL     1      13.636   8.946  19.169  0.00  0.00    +0.149 HD
BRANCH  23  25
ATOM     25  C   UNL     1      13.975   8.169  16.825  0.00  0.00    +0.177 C 
BRANCH  25  12
ATOM     12  N   UNL     1      13.615   8.686  15.512  0.00  0.00    -0.311 NA
ATOM     27  C   UNL     1      13.363  10.120  15.568  0.00  0.00    +0.101 C 
ATOM     34  H   UNL     1      14.375   8.509  14.856  0.00  0.00    +0.122 HD
ENDBRANCH  25  12
ENDBRANCH  23  25
ENDBRANCH  14   9
BRANCH  13   2
ATOM      2  O   UNL     1      13.277   7.151  21.268  0.00  0.00    -0.387 OA
ATOM     30  H   UNL     1      13.287   7.583  22.139  0.00  0.00    +0.210 HD
ENDBRANCH  13   2
BRANCH  15   3
ATOM      3  O   UNL     1       9.635   7.060  21.596  0.00  0.00    -0.389 OA
ATOM     31  H   UNL     1       9.483   6.117  21.421  0.00  0.00    +0.210 HD
ENDBRANCH  15   3
TORSDOF 11
ENDMDL
MODEL 4
REMARK VINA RESULT:      -5.7      4.141      7.618
REMARK  Name = 11882007
REMARK  13 active torsions:
REMARK  status: ('A' for Active; 'I' for Inactive)
REMARK    1  A    between atoms: S_1  and  C_22
REMARK    2  A    between atoms: S_1  and  C_26
REMARK    3  A    between atoms: O_2  and  C_13
REMARK    4  A    between atoms: O_3  and  C_15
REMARK    5  A    between atoms: N_9  and  C_14
REMARK    6  A    between atoms: N_10  and  C_20
REMARK    7  A    between atoms: N_12  and  C_25
REMARK    8  A    between atoms: N_12  and  C_27
REMARK    9  A    between atoms: C_17  and  C_19
REMARK   10  A    between atoms: C_20  and  C_21
REMARK   11  A    between atoms: C_20  and  C_24
REMARK   12  A    between atoms: C_21  and  C_22
REMARK   13  A    between atoms: C_23  and  C_25
REMARK                            x       y       z     vdW  Elec       q    Type
REMARK                         _______ _______ _______ _____ _____    ______ ____
ROOT
ATOM     13  C   UNL     1      20.042   7.559  22.137  0.00  0.00    +0.167 C 
ATOM     14  C   UNL     1      19.170   8.665  21.513  0.00  0.00    +0.127 C 
ATOM     15  C   UNL     1      20.249   6.391  21.164  0.00  0.00    +0.149 C 
ATOM     16  C   UNL     1      18.915   5.804  20.671  0.00  0.00    +0.074 C 
ATOM     17  C   UNL     1      17.864   6.847  20.416  0.00  0.00    +0.015 C 
ATOM     18  C   UNL     1      17.968   8.133  20.780  0.00  0.00    +0.006 C 
ENDROOT
BRANCH  17  19
ATOM      4  O   UNL     1      16.687   5.580  18.825  0.00  0.00    -0.271 OA
ATOM     10  N   UNL     1      15.521   7.121  20.130  0.00  0.00    -0.300 N 
ATOM     19  C   UNL     1      16.649   6.441  19.703  0.00  0.00    +0.241 C 
ATOM     29  H   UNL     1      15.599   7.883  20.794  0.00  0.00    +0.150 HD
BRANCH  10  20
ATOM     20  C   UNL     1      14.206   6.894  19.574  0.00  0.00    +0.160 C 
BRANCH  20  24
ATOM      8  O   UNL     1      14.579   9.085  18.592  0.00  0.00    -0.274 OA
ATOM     11  N   UNL     1      12.731   7.891  17.937  0.00  0.00    -0.328 N 
ATOM     24  C   UNL     1      13.877   8.082  18.680  0.00  0.00    +0.231 C 
ATOM     32  H   UNL     1      12.407   8.600  17.288  0.00  0.00    +0.145 HD
ATOM     33  H   UNL     1      12.162   7.054  18.016  0.00  0.00    +0.145 HD
ENDBRANCH  20  24
BRANCH  20  21
ATOM     21  C   UNL     1      13.143   6.732  20.663  0.00  0.00    +0.054 C 
BRANCH  21  22
ATOM     22  C   UNL     1      13.006   7.978  21.529  0.00  0.00    +0.168 C 
BRANCH  22   1
ATOM      1  S   UNL     1      11.355   8.601  21.500  0.00  0.00    -0.034 S 
ATOM      6  O   UNL     1      10.711   8.125  20.288  0.00  0.00    -0.175 OA
ATOM      7  O   UNL     1      10.754   8.358  22.800  0.00  0.00    -0.175 OA
ATOM     26  C   UNL     1      11.581  10.356  21.333  0.00  0.00    +0.194 C 
ENDBRANCH  22   1
ENDBRANCH  21  22
ENDBRANCH  20  21
ENDBRANCH  10  20
ENDBRANCH  17  19
BRANCH  14   9
ATOM      5  O   UNL     1      18.995  11.539  21.228  0.00  0.00    -0.274 OA
ATOM      9  N   UNL     1      18.728   9.616  22.503  0.00  0.00    -0.305 N 
ATOM     23  C   UNL     1      18.677  10.986  22.278  0.00  0.00    +0.227 C 
ATOM     28  H   UNL     1      18.480   9.268  23.425  0.00  0.00    +0.149 HD
BRANCH  23  25
ATOM     25  C   UNL     1      18.204  11.744  23.501  0.00  0.00    +0.177 C 
BRANCH  25  12
ATOM     12  N   UNL     1      16.753  11.642  23.584  0.00  0.00    -0.311 NA
ATOM     27  C   UNL     1      16.117  12.859  23.100  0.00  0.00    +0.101 C 
ATOM     34  H   UNL     1      16.435  10.855  23.021  0.00  0.00    +0.122 HD
ENDBRANCH  25  12
ENDBRANCH  23  25
ENDBRANCH  14   9
BRANCH  13   2
ATOM      2  O   UNL     1      19.414   7.063  23.321  0.00  0.00    -0.387 OA
ATOM     30  H   UNL     1      19.577   7.710  24.028  0.00  0.00    +0.210 HD
ENDBRANCH  13   2
BRANCH  15   3
ATOM      3  O   UNL     1      21.038   6.812  20.054  0.00  0.00    -0.389 OA
ATOM     31  H   UNL     1      21.931   7.022  20.372  0.00  0.00    +0.210 HD
ENDBRANCH  15   3
TORSDOF 11
ENDMDL
MODEL 5
REMARK VINA RESULT:      -5.6     13.498     18.159
REMARK  Name = 11882007
REMARK  13 active torsions:
REMARK  status: ('A' for Active; 'I' for Inactive)
REMARK    1  A    between atoms: S_1  and  C_22
REMARK    2  A    between atoms: S_1  and  C_26
REMARK    3  A    between atoms: O_2  and  C_13
REMARK    4  A    between atoms: O_3  and  C_15
REMARK    5  A    between atoms: N_9  and  C_14
REMARK    6  A    between atoms: N_10  and  C_20
REMARK    7  A    between atoms: N_12  and  C_25
REMARK    8  A    between atoms: N_12  and  C_27
REMARK    9  A    between atoms: C_17  and  C_19
REMARK   10  A    between atoms: C_20  and  C_21
REMARK   11  A    between atoms: C_20  and  C_24
REMARK   12  A    between atoms: C_21  and  C_22
REMARK   13  A    between atoms: C_23  and  C_25
REMARK                            x       y       z     vdW  Elec       q    Type
REMARK                         _______ _______ _______ _____ _____    ______ ____
ROOT
ATOM     13  C   UNL     1      13.219   7.354   7.136  0.00  0.00    +0.167 C 
ATOM     14  C   UNL     1      11.724   7.127   6.839  0.00  0.00    +0.127 C 
ATOM     15  C   UNL     1      13.800   8.477   6.268  0.00  0.00    +0.149 C 
ATOM     16  C   UNL     1      13.587   8.218   4.766  0.00  0.00    +0.074 C 
ATOM     17  C   UNL     1      12.251   7.609   4.451  0.00  0.00    +0.015 C 
ATOM     18  C   UNL     1      11.402   7.124   5.369  0.00  0.00    +0.006 C 
ENDROOT
BRANCH  17  19
ATOM      4  O   UNL     1      11.517   8.579   2.440  0.00  0.00    -0.271 OA
ATOM     10  N   UNL     1      11.834   6.272   2.531  0.00  0.00    -0.300 N 
ATOM     19  C   UNL     1      11.830   7.556   3.047  0.00  0.00    +0.241 C 
ATOM     29  H   UNL     1      12.014   5.475   3.132  0.00  0.00    +0.150 HD
BRANCH  10  20
ATOM     20  C   UNL     1      11.456   5.967   1.169  0.00  0.00    +0.160 C 
BRANCH  20  24
ATOM      8  O   UNL     1       9.964   4.263   0.289  0.00  0.00    -0.274 OA
ATOM     11  N   UNL     1      11.002   3.879   2.300  0.00  0.00    -0.328 N 
ATOM     24  C   UNL     1      10.710   4.639   1.188  0.00  0.00    +0.231 C 
ATOM     32  H   UNL     1      10.584   2.963   2.429  0.00  0.00    +0.145 HD
ATOM     33  H   UNL     1      11.625   4.200   3.034  0.00  0.00    +0.145 HD
ENDBRANCH  20  24
BRANCH  20  21
ATOM     21  C   UNL     1      12.669   5.888   0.240  0.00  0.00    +0.054 C 
BRANCH  21  22
ATOM     22  C   UNL     1      13.951   5.549   0.990  0.00  0.00    +0.168 C 
BRANCH  22   1
ATOM      1  S   UNL     1      14.446   3.881   0.691  0.00  0.00    -0.034 S 
ATOM      6  O   UNL     1      15.864   3.876   0.377  0.00  0.00    -0.175 OA
ATOM      7  O   UNL     1      13.923   3.052   1.765  0.00  0.00    -0.175 OA
ATOM     26  C   UNL     1      13.567   3.452  -0.793  0.00  0.00    +0.194 C 
ENDBRANCH  22   1
ENDBRANCH  21  22
ENDBRANCH  20  21
ENDBRANCH  10  20
ENDBRANCH  17  19
BRANCH  14   9
ATOM      5  O   UNL     1       9.113   6.627   7.979  0.00  0.00    -0.274 OA
ATOM      9  N   UNL     1      11.247   5.898   7.423  0.00  0.00    -0.305 N 
ATOM     23  C   UNL     1       9.971   5.747   7.950  0.00  0.00    +0.227 C 
ATOM     28  H   UNL     1      11.893   5.115   7.488  0.00  0.00    +0.149 HD
BRANCH  23  25
ATOM     25  C   UNL     1       9.754   4.362   8.524  0.00  0.00    +0.177 C 
BRANCH  25  12
ATOM     12  N   UNL     1       9.899   4.427   9.972  0.00  0.00    -0.311 NA
ATOM     27  C   UNL     1       8.601   4.559  10.620  0.00  0.00    +0.101 C 
ATOM     34  H   UNL     1      10.352   3.577  10.307  0.00  0.00    +0.122 HD
ENDBRANCH  25  12
ENDBRANCH  23  25
ENDBRANCH  14   9
BRANCH  13   2
ATOM      2  O   UNL     1      13.948   6.151   6.877  0.00  0.00    -0.387 OA
ATOM     30  H   UNL     1      14.792   6.217   7.353  0.00  0.00    +0.210 HD
ENDBRANCH  13   2
BRANCH  15   3
ATOM      3  O   UNL     1      13.223   9.729   6.634  0.00  0.00    -0.389 OA
ATOM     31  H   UNL     1      13.039  10.232   5.825  0.00  0.00    +0.210 HD
ENDBRANCH  15   3
TORSDOF 11
ENDMDL
MODEL 6
REMARK VINA RESULT:      -5.6     13.625     17.267
REMARK  Name = 11882007
REMARK  13 active torsions:
REMARK  status: ('A' for Active; 'I' for Inactive)
REMARK    1  A    between atoms: S_1  and  C_22
REMARK    2  A    between atoms: S_1  and  C_26
REMARK    3  A    between atoms: O_2  and  C_13
REMARK    4  A    between atoms: O_3  and  C_15
REMARK    5  A    between atoms: N_9  and  C_14
REMARK    6  A    between atoms: N_10  and  C_20
REMARK    7  A    between atoms: N_12  and  C_25
REMARK    8  A    between atoms: N_12  and  C_27
REMARK    9  A    between atoms: C_17  and  C_19
REMARK   10  A    between atoms: C_20  and  C_21
REMARK   11  A    between atoms: C_20  and  C_24
REMARK   12  A    between atoms: C_21  and  C_22
REMARK   13  A    between atoms: C_23  and  C_25
REMARK                            x       y       z     vdW  Elec       q    Type
REMARK                         _______ _______ _______ _____ _____    ______ ____
ROOT
ATOM     13  C   UNL     1      10.182   6.580   7.530  0.00  0.00    +0.167 C 
ATOM     14  C   UNL     1      11.560   6.894   6.917  0.00  0.00    +0.127 C 
ATOM     15  C   UNL     1       9.735   5.150   7.202  0.00  0.00    +0.149 C 
ATOM     16  C   UNL     1       9.720   4.880   5.687  0.00  0.00    +0.074 C 
ATOM     17  C   UNL     1      10.867   5.518   4.957  0.00  0.00    +0.015 C 
ATOM     18  C   UNL     1      11.705   6.416   5.498  0.00  0.00    +0.006 C 
ENDROOT
BRANCH  17  19
ATOM      4  O   UNL     1      10.243   4.531   2.919  0.00  0.00    -0.271 OA
ATOM     10  N   UNL     1      12.360   5.488   3.109  0.00  0.00    -0.300 N 
ATOM     19  C   UNL     1      11.105   5.123   3.566  0.00  0.00    +0.241 C 
ATOM     29  H   UNL     1      13.042   5.890   3.742  0.00  0.00    +0.150 HD
BRANCH  10  20
ATOM     20  C   UNL     1      12.825   5.205   1.769  0.00  0.00    +0.160 C 
BRANCH  20  24
ATOM      8  O   UNL     1      13.222   2.817   1.549  0.00  0.00    -0.274 OA
ATOM     11  N   UNL     1      14.965   4.163   2.199  0.00  0.00    -0.328 N 
ATOM     24  C   UNL     1      13.656   3.930   1.834  0.00  0.00    +0.231 C 
ATOM     32  H   UNL     1      15.630   3.400   2.266  0.00  0.00    +0.145 HD
ATOM     33  H   UNL     1      15.312   5.089   2.428  0.00  0.00    +0.145 HD
ENDBRANCH  20  24
BRANCH  20  21
ATOM     21  C   UNL     1      13.652   6.356   1.194  0.00  0.00    +0.054 C 
BRANCH  21  22
ATOM     22  C   UNL     1      13.550   7.621   2.036  0.00  0.00    +0.168 C 
BRANCH  22   1
ATOM      1  S   UNL     1      15.016   7.879   2.985  0.00  0.00    -0.034 S 
ATOM      6  O   UNL     1      14.968   9.221   3.540  0.00  0.00    -0.175 OA
ATOM      7  O   UNL     1      15.207   6.728   3.850  0.00  0.00    -0.175 OA
ATOM     26  C   UNL     1      16.306   7.851   1.762  0.00  0.00    +0.194 C 
ENDBRANCH  22   1
ENDBRANCH  21  22
ENDBRANCH  20  21
ENDBRANCH  10  20
ENDBRANCH  17  19
BRANCH  14   9
ATOM      5  O   UNL     1      14.162   8.149   6.762  0.00  0.00    -0.274 OA
ATOM      9  N   UNL     1      11.854   8.306   6.965  0.00  0.00    -0.305 N 
ATOM     23  C   UNL     1      13.141   8.822   6.883  0.00  0.00    +0.227 C 
ATOM     28  H   UNL     1      11.081   8.951   7.107  0.00  0.00    +0.149 HD
BRANCH  23  25
ATOM     25  C   UNL     1      13.154  10.333   6.992  0.00  0.00    +0.177 C 
BRANCH  25  12
ATOM     12  N   UNL     1      12.565  10.716   8.268  0.00  0.00    -0.311 NA
ATOM     27  C   UNL     1      11.743  11.910   8.124  0.00  0.00    +0.101 C 
ATOM     34  H   UNL     1      11.984   9.954   8.617  0.00  0.00    +0.122 HD
ENDBRANCH  25  12
ENDBRANCH  23  25
ENDBRANCH  14   9
BRANCH  13   2
ATOM      2  O   UNL     1       9.209   7.493   7.017  0.00  0.00    -0.387 OA
ATOM     30  H   UNL     1       9.331   7.534   6.053  0.00  0.00    +0.210 HD
ENDBRANCH  13   2
BRANCH  15   3
ATOM      3  O   UNL     1      10.582   4.208   7.857  0.00  0.00    -0.389 OA
ATOM     31  H   UNL     1      11.254   3.906   7.225  0.00  0.00    +0.210 HD
ENDBRANCH  15   3
TORSDOF 11
ENDMDL
MODEL 7
REMARK VINA RESULT:      -5.6      3.720      4.853
REMARK  Name = 11882007
REMARK  13 active torsions:
REMARK  status: ('A' for Active; 'I' for Inactive)
REMARK    1  A    between atoms: S_1  and  C_22
REMARK    2  A    between atoms: S_1  and  C_26
REMARK    3  A    between atoms: O_2  and  C_13
REMARK    4  A    between atoms: O_3  and  C_15
REMARK    5  A    between atoms: N_9  and  C_14
REMARK    6  A    between atoms: N_10  and  C_20
REMARK    7  A    between atoms: N_12  and  C_25
REMARK    8  A    between atoms: N_12  and  C_27
REMARK    9  A    between atoms: C_17  and  C_19
REMARK   10  A    between atoms: C_20  and  C_21
REMARK   11  A    between atoms: C_20  and  C_24
REMARK   12  A    between atoms: C_21  and  C_22
REMARK   13  A    between atoms: C_23  and  C_25
REMARK                            x       y       z     vdW  Elec       q    Type
REMARK                         _______ _______ _______ _____ _____    ______ ____
ROOT
ATOM     13  C   UNL     1      13.920   6.580  20.664  0.00  0.00    +0.167 C 
ATOM     14  C   UNL     1      14.904   7.119  19.608  0.00  0.00    +0.127 C 
ATOM     15  C   UNL     1      12.474   6.974  20.338  0.00  0.00    +0.149 C 
ATOM     16  C   UNL     1      12.308   8.496  20.182  0.00  0.00    +0.074 C 
ATOM     17  C   UNL     1      13.465   9.152  19.484  0.00  0.00    +0.015 C 
ATOM     18  C   UNL     1      14.630   8.545  19.212  0.00  0.00    +0.006 C 
ENDROOT
BRANCH  17  19
ATOM      4  O   UNL     1      13.237  10.829  17.854  0.00  0.00    -0.271 OA
ATOM     10  N   UNL     1      13.258  11.436  20.104  0.00  0.00    -0.300 N 
ATOM     19  C   UNL     1      13.309  10.543  19.048  0.00  0.00    +0.241 C 
ATOM     29  H   UNL     1      13.421  11.121  21.054  0.00  0.00    +0.150 HD
BRANCH  10  20
ATOM     20  C   UNL     1      13.109  12.863  19.924  0.00  0.00    +0.160 C 
BRANCH  20  24
ATOM      8  O   UNL     1      15.108  13.660  21.055  0.00  0.00    -0.274 OA
ATOM     11  N   UNL     1      15.026  13.771  18.762  0.00  0.00    -0.328 N 
ATOM     24  C   UNL     1      14.499  13.480  20.003  0.00  0.00    +0.231 C 
ATOM     32  H   UNL     1      15.954  14.173  18.672  0.00  0.00    +0.145 HD
ATOM     33  H   UNL     1      14.514  13.614  17.901  0.00  0.00    +0.145 HD
ENDBRANCH  20  24
BRANCH  20  21
ATOM     21  C   UNL     1      12.188  13.481  20.977  0.00  0.00    +0.054 C 
BRANCH  21  22
ATOM     22  C   UNL     1      11.221  12.464  21.570  0.00  0.00    +0.168 C 
BRANCH  22   1
ATOM      1  S   UNL     1      11.659  12.056  23.230  0.00  0.00    -0.034 S 
ATOM      6  O   UNL     1      13.106  11.952  23.307  0.00  0.00    -0.175 OA
ATOM      7  O   UNL     1      10.933  12.942  24.124  0.00  0.00    -0.175 OA
ATOM     26  C   UNL     1      10.993  10.421  23.440  0.00  0.00    +0.194 C 
ENDBRANCH  22   1
ENDBRANCH  21  22
ENDBRANCH  20  21
ENDBRANCH  10  20
ENDBRANCH  17  19
BRANCH  14   9
ATOM      5  O   UNL     1      16.977   5.428  18.508  0.00  0.00    -0.274 OA
ATOM      9  N   UNL     1      16.272   7.013  20.052  0.00  0.00    -0.305 N 
ATOM     23  C   UNL     1      17.204   6.169  19.461  0.00  0.00    +0.227 C 
ATOM     28  H   UNL     1      16.556   7.555  20.864  0.00  0.00    +0.149 HD
BRANCH  23  25
ATOM     25  C   UNL     1      18.551   6.240  20.151  0.00  0.00    +0.177 C 
BRANCH  25  12
ATOM     12  N   UNL     1      19.319   5.053  19.800  0.00  0.00    -0.311 NA
ATOM     27  C   UNL     1      20.618   5.061  20.459  0.00  0.00    +0.101 C 
ATOM     34  H   UNL     1      18.807   4.220  20.086  0.00  0.00    +0.122 HD
ENDBRANCH  25  12
ENDBRANCH  23  25
ENDBRANCH  14   9
BRANCH  13   2
ATOM      2  O   UNL     1      14.260   7.108  21.949  0.00  0.00    -0.387 OA
ATOM     30  H   UNL     1      13.618   7.808  22.153  0.00  0.00    +0.210 HD
ENDBRANCH  13   2
BRANCH  15   3
ATOM      3  O   UNL     1      12.041   6.311  19.152  0.00  0.00    -0.389 OA
ATOM     31  H   UNL     1      11.324   5.699  19.385  0.00  0.00    +0.210 HD
ENDBRANCH  15   3
TORSDOF 11
ENDMDL
MODEL 8
REMARK VINA RESULT:      -5.5     25.856     28.662
REMARK  Name = 11882007
REMARK  13 active torsions:
REMARK  status: ('A' for Active; 'I' for Inactive)
REMARK    1  A    between atoms: S_1  and  C_22
REMARK    2  A    between atoms: S_1  and  C_26
REMARK    3  A    between atoms: O_2  and  C_13
REMARK    4  A    between atoms: O_3  and  C_15
REMARK    5  A    between atoms: N_9  and  C_14
REMARK    6  A    between atoms: N_10  and  C_20
REMARK    7  A    between atoms: N_12  and  C_25
REMARK    8  A    between atoms: N_12  and  C_27
REMARK    9  A    between atoms: C_17  and  C_19
REMARK   10  A    between atoms: C_20  and  C_21
REMARK   11  A    between atoms: C_20  and  C_24
REMARK   12  A    between atoms: C_21  and  C_22
REMARK   13  A    between atoms: C_23  and  C_25
REMARK                            x       y       z     vdW  Elec       q    Type
REMARK                         _______ _______ _______ _____ _____    ______ ____
ROOT
ATOM     13  C   UNL     1      -8.297 -10.276  18.259  0.00  0.00    +0.167 C 
ATOM     14  C   UNL     1      -7.607  -9.381  17.212  0.00  0.00    +0.127 C 
ATOM     15  C   UNL     1      -7.275 -10.964  19.171  0.00  0.00    +0.149 C 
ATOM     16  C   UNL     1      -6.239 -11.776  18.374  0.00  0.00    +0.074 C 
ATOM     17  C   UNL     1      -5.812 -11.106  17.099  0.00  0.00    +0.015 C 
ATOM     18  C   UNL     1      -6.409 -10.028  16.571  0.00  0.00    +0.006 C 
ENDROOT
BRANCH  17  19
ATOM      4  O   UNL     1      -4.271 -12.805  16.586  0.00  0.00    -0.271 OA
ATOM     10  N   UNL     1      -4.073 -10.742  15.520  0.00  0.00    -0.300 N 
ATOM     19  C   UNL     1      -4.650 -11.651  16.389  0.00  0.00    +0.241 C 
ATOM     29  H   UNL     1      -4.394  -9.781  15.493  0.00  0.00    +0.150 HD
BRANCH  10  20
ATOM     20  C   UNL     1      -2.915 -11.048  14.711  0.00  0.00    +0.160 C 
BRANCH  20  24
ATOM      8  O   UNL     1      -1.035  -9.527  14.950  0.00  0.00    -0.274 OA
ATOM     11  N   UNL     1      -1.453 -11.026  16.638  0.00  0.00    -0.328 N 
ATOM     24  C   UNL     1      -1.700 -10.452  15.409  0.00  0.00    +0.231 C 
ATOM     32  H   UNL     1      -0.681 -10.710  17.214  0.00  0.00    +0.145 HD
ATOM     33  H   UNL     1      -2.014 -11.788  17.007  0.00  0.00    +0.145 HD
ENDBRANCH  20  24
BRANCH  20  21
ATOM     21  C   UNL     1      -3.044 -10.494  13.291  0.00  0.00    +0.054 C 
BRANCH  21  22
ATOM     22  C   UNL     1      -3.893 -11.387  12.395  0.00  0.00    +0.168 C 
BRANCH  22   1
ATOM      1  S   UNL     1      -5.614 -11.049  12.599  0.00  0.00    -0.034 S 
ATOM      6  O   UNL     1      -6.206 -12.140  13.353  0.00  0.00    -0.175 OA
ATOM      7  O   UNL     1      -5.757  -9.675  13.052  0.00  0.00    -0.175 OA
ATOM     26  C   UNL     1      -6.249 -11.136  10.941  0.00  0.00    +0.194 C 
ENDBRANCH  22   1
ENDBRANCH  21  22
ENDBRANCH  20  21
ENDBRANCH  10  20
ENDBRANCH  17  19
BRANCH  14   9
ATOM      5  O   UNL     1      -9.865  -7.592  17.480  0.00  0.00    -0.274 OA
ATOM      9  N   UNL     1      -8.523  -8.969  16.177  0.00  0.00    -0.305 N 
ATOM     23  C   UNL     1      -9.586  -8.102  16.397  0.00  0.00    +0.227 C 
ATOM     28  H   UNL     1      -8.408  -9.367  15.249  0.00  0.00    +0.149 HD
BRANCH  23  25
ATOM     25  C   UNL     1     -10.399  -7.870  15.140  0.00  0.00    +0.177 C 
BRANCH  25  12
ATOM     12  N   UNL     1     -11.632  -7.183  15.500  0.00  0.00    -0.311 NA
ATOM     27  C   UNL     1     -11.662  -5.839  14.940  0.00  0.00    +0.101 C 
ATOM     34  H   UNL     1     -12.430  -7.708  15.145  0.00  0.00    +0.122 HD
ENDBRANCH  25  12
ENDBRANCH  23  25
ENDBRANCH  14   9
BRANCH  13   2
ATOM      2  O   UNL     1      -9.069 -11.281  17.596  0.00  0.00    -0.387 OA
ATOM     30  H   UNL     1      -8.677 -12.142  17.820  0.00  0.00    +0.210 HD
ENDBRANCH  13   2
BRANCH  15   3
ATOM      3  O   UNL     1      -6.615  -9.997  19.985  0.00  0.00    -0.389 OA
ATOM     31  H   UNL     1      -6.596 -10.324  20.899  0.00  0.00    +0.210 HD
ENDBRANCH  15   3
TORSDOF 11
ENDMDL
MODEL 9
REMARK VINA RESULT:      -5.4     13.877     18.726
REMARK  Name = 11882007
REMARK  13 active torsions:
REMARK  status: ('A' for Active; 'I' for Inactive)
REMARK    1  A    between atoms: S_1  and  C_22
REMARK    2  A    between atoms: S_1  and  C_26
REMARK    3  A    between atoms: O_2  and  C_13
REMARK    4  A    between atoms: O_3  and  C_15
REMARK    5  A    between atoms: N_9  and  C_14
REMARK    6  A    between atoms: N_10  and  C_20
REMARK    7  A    between atoms: N_12  and  C_25
REMARK    8  A    between atoms: N_12  and  C_27
REMARK    9  A    between atoms: C_17  and  C_19
REMARK   10  A    between atoms: C_20  and  C_21
REMARK   11  A    between atoms: C_20  and  C_24
REMARK   12  A    between atoms: C_21  and  C_22
REMARK   13  A    between atoms: C_23  and  C_25
REMARK                            x       y       z     vdW  Elec       q    Type
REMARK                         _______ _______ _______ _____ _____    ______ ____
ROOT
ATOM     13  C   UNL     1      13.214   7.426   6.952  0.00  0.00    +0.167 C 
ATOM     14  C   UNL     1      11.954   6.932   6.214  0.00  0.00    +0.127 C 
ATOM     15  C   UNL     1      14.037   8.381   6.080  0.00  0.00    +0.149 C 
ATOM     16  C   UNL     1      14.423   7.748   4.731  0.00  0.00    +0.074 C 
ATOM     17  C   UNL     1      13.332   6.904   4.137  0.00  0.00    +0.015 C 
ATOM     18  C   UNL     1      12.217   6.538   4.786  0.00  0.00    +0.006 C 
ENDROOT
BRANCH  17  19
ATOM      4  O   UNL     1      13.756   7.266   1.854  0.00  0.00    -0.271 OA
ATOM     10  N   UNL     1      13.277   5.105   2.585  0.00  0.00    -0.300 N 
ATOM     19  C   UNL     1      13.480   6.464   2.746  0.00  0.00    +0.241 C 
ATOM     29  H   UNL     1      12.959   4.536   3.362  0.00  0.00    +0.150 HD
BRANCH  10  20
ATOM     20  C   UNL     1      13.368   4.439   1.305  0.00  0.00    +0.160 C 
BRANCH  20  24
ATOM      8  O   UNL     1      15.441   4.267   0.048  0.00  0.00    -0.274 OA
ATOM     11  N   UNL     1      15.405   3.502   2.213  0.00  0.00    -0.328 N 
ATOM     24  C   UNL     1      14.828   4.059   1.091  0.00  0.00    +0.231 C 
ATOM     32  H   UNL     1      16.379   3.218   2.210  0.00  0.00    +0.145 HD
ATOM     33  H   UNL     1      14.888   3.340   3.070  0.00  0.00    +0.145 HD
ENDBRANCH  20  24
BRANCH  20  21
ATOM     21  C   UNL     1      12.871   5.324   0.161  0.00  0.00    +0.054 C 
BRANCH  21  22
ATOM     22  C   UNL     1      11.813   4.632  -0.689  0.00  0.00    +0.168 C 
BRANCH  22   1
ATOM      1  S   UNL     1      10.189   4.955  -0.079  0.00  0.00    -0.034 S 
ATOM      6  O   UNL     1       9.279   5.010  -1.210  0.00  0.00    -0.175 OA
ATOM      7  O   UNL     1       9.933   4.054   1.032  0.00  0.00    -0.175 OA
ATOM     26  C   UNL     1      10.319   6.599   0.584  0.00  0.00    +0.194 C 
ENDBRANCH  22   1
ENDBRANCH  21  22
ENDBRANCH  20  21
ENDBRANCH  10  20
ENDBRANCH  17  19
BRANCH  14   9
ATOM      5  O   UNL     1       9.130   6.329   6.386  0.00  0.00    -0.274 OA
ATOM      9  N   UNL     1      11.338   5.822   6.898  0.00  0.00    -0.305 N 
ATOM     23  C   UNL     1       9.965   5.610   6.929  0.00  0.00    +0.227 C 
ATOM     28  H   UNL     1      11.938   5.186   7.417  0.00  0.00    +0.149 HD
BRANCH  23  25
ATOM     25  C   UNL     1       9.598   4.387   7.745  0.00  0.00    +0.177 C 
BRANCH  25  12
ATOM     12  N   UNL     1      10.238   4.487   9.050  0.00  0.00    -0.311 NA
ATOM     27  C   UNL     1       9.245   4.638  10.105  0.00  0.00    +0.101 C 
ATOM     34  H   UNL     1      10.783   3.644   9.227  0.00  0.00    +0.122 HD
ENDBRANCH  25  12
ENDBRANCH  23  25
ENDBRANCH  14   9
BRANCH  13   2
ATOM      2  O   UNL     1      14.031   6.308   7.306  0.00  0.00    -0.387 OA
ATOM     30  H   UNL     1      14.958   6.587   7.216  0.00  0.00    +0.210 HD
ENDBRANCH  13   2
BRANCH  15   3
ATOM      3  O   UNL     1      13.317   9.592   5.863  0.00  0.00    -0.389 OA
ATOM     31  H   UNL     1      12.651   9.436   5.174  0.00  0.00    +0.210 HD
ENDBRANCH  15   3
TORSDOF 11
ENDMDL
MODEL 10
REMARK VINA RESULT:      -5.4     13.671     18.696
REMARK  Name = 11882007
REMARK  13 active torsions:
REMARK  status: ('A' for Active; 'I' for Inactive)
REMARK    1  A    between atoms: S_1  and  C_22
REMARK    2  A    between atoms: S_1  and  C_26
REMARK    3  A    between atoms: O_2  and  C_13
REMARK    4  A    between atoms: O_3  and  C_15
REMARK    5  A    between atoms: N_9  and  C_14
REMARK    6  A    between atoms: N_10  and  C_20
REMARK    7  A    between atoms: N_12  and  C_25
REMARK    8  A    between atoms: N_12  and  C_27
REMARK    9  A    between atoms: C_17  and  C_19
REMARK   10  A    between atoms: C_20  and  C_21
REMARK   11  A    between atoms: C_20  and  C_24
REMARK   12  A    between atoms: C_21  and  C_22
REMARK   13  A    between atoms: C_23  and  C_25
REMARK                            x       y       z     vdW  Elec       q    Type
REMARK                         _______ _______ _______ _____ _____    ______ ____
ROOT
ATOM     13  C   UNL     1      13.092   7.298   7.241  0.00  0.00    +0.167 C 
ATOM     14  C   UNL     1      11.754   6.839   6.631  0.00  0.00    +0.127 C 
ATOM     15  C   UNL     1      13.809   8.302   6.330  0.00  0.00    +0.149 C 
ATOM     16  C   UNL     1      14.032   7.744   4.914  0.00  0.00    +0.074 C 
ATOM     17  C   UNL     1      12.878   6.928   4.407  0.00  0.00    +0.015 C 
ATOM     18  C   UNL     1      11.846   6.523   5.162  0.00  0.00    +0.006 C 
ENDROOT
BRANCH  17  19
ATOM      4  O   UNL     1      12.009   7.022   2.226  0.00  0.00    -0.271 OA
ATOM     10  N   UNL     1      13.874   5.687   2.643  0.00  0.00    -0.300 N 
ATOM     19  C   UNL     1      12.860   6.564   2.987  0.00  0.00    +0.241 C 
ATOM     29  H   UNL     1      14.474   5.287   3.355  0.00  0.00    +0.150 HD
BRANCH  10  20
ATOM     20  C   UNL     1      14.060   5.184   1.300  0.00  0.00    +0.160 C 
BRANCH  20  24
ATOM      8  O   UNL     1      13.450   2.835   1.159  0.00  0.00    -0.274 OA
ATOM     11  N   UNL     1      15.601   3.376   1.755  0.00  0.00    -0.328 N 
ATOM     24  C   UNL     1      14.303   3.684   1.404  0.00  0.00    +0.231 C 
ATOM     32  H   UNL     1      15.900   2.410   1.845  0.00  0.00    +0.145 HD
ATOM     33  H   UNL     1      16.297   4.087   1.951  0.00  0.00    +0.145 HD
ENDBRANCH  20  24
BRANCH  20  21
ATOM     21  C   UNL     1      15.228   5.868   0.587  0.00  0.00    +0.054 C 
BRANCH  21  22
ATOM     22  C   UNL     1      15.105   5.795  -0.929  0.00  0.00    +0.168 C 
BRANCH  22   1
ATOM      1  S   UNL     1      16.679   5.968  -1.709  0.00  0.00    -0.034 S 
ATOM      6  O   UNL     1      17.284   4.651  -1.811  0.00  0.00    -0.175 OA
ATOM      7  O   UNL     1      16.513   6.798  -2.891  0.00  0.00    -0.175 OA
ATOM     26  C   UNL     1      17.623   6.902  -0.527  0.00  0.00    +0.194 C 
ENDBRANCH  22   1
ENDBRANCH  21  22
ENDBRANCH  20  21
ENDBRANCH  10  20
ENDBRANCH  17  19
BRANCH  14   9
ATOM      5  O   UNL     1       9.006   6.389   7.417  0.00  0.00    -0.274 OA
ATOM      9  N   UNL     1      11.220   5.691   7.322  0.00  0.00    -0.305 N 
ATOM     23  C   UNL     1       9.880   5.559   7.661  0.00  0.00    +0.227 C 
ATOM     28  H   UNL     1      11.866   4.962   7.609  0.00  0.00    +0.149 HD
BRANCH  23  25
ATOM     25  C   UNL     1       9.608   4.269   8.407  0.00  0.00    +0.177 C 
BRANCH  25  12
ATOM     12  N   UNL     1       9.940   4.462   9.813  0.00  0.00    -0.311 NA
ATOM     27  C   UNL     1       8.736   4.661  10.609  0.00  0.00    +0.101 C 
ATOM     34  H   UNL     1      10.436   3.643  10.161  0.00  0.00    +0.122 HD
ENDBRANCH  25  12
ENDBRANCH  23  25
ENDBRANCH  14   9
BRANCH  13   2
ATOM      2  O   UNL     1      13.943   6.166   7.436  0.00  0.00    -0.387 OA
ATOM     30  H   UNL     1      14.079   5.753   6.566  0.00  0.00    +0.210 HD
ENDBRANCH  13   2
BRANCH  15   3
ATOM      3  O   UNL     1      13.071   9.520   6.265  0.00  0.00    -0.389 OA
ATOM     31  H   UNL     1      12.143   9.308   6.074  0.00  0.00    +0.210 HD
ENDBRANCH  15   3
TORSDOF 11
ENDMDL
