MODEL 1
REMARK VINA RESULT:      -8.1      0.000      0.000
REMARK  Name = 71693896
REMARK  7 active torsions:
REMARK  status: ('A' for Active; 'I' for Inactive)
REMARK    1  A    between atoms: O_1  and  C_10
REMARK    2  A    between atoms: O_2  and  C_12
REMARK    3  A    between atoms: O_4  and  C_20
REMARK    4  A    between atoms: O_4  and  C_28
REMARK    5  A    between atoms: N_7  and  C_9
REMARK    6  A    between atoms: C_8  and  C_13
REMARK    7  A    between atoms: C_16  and  C_19
REMARK                            x       y       z     vdW  Elec       q    Type
REMARK                         _______ _______ _______ _____ _____    ______ ____
ROOT
ATOM      8  C   UNL     1      13.013   9.108  20.151  0.00  0.00    +0.044 C 
ATOM      9  C   UNL     1      13.199   7.589  20.368  0.00  0.00    +0.112 C 
ATOM     10  C   UNL     1      12.351   7.299  21.606  0.00  0.00    +0.164 C 
ATOM     11  C   UNL     1      11.676   9.473  20.848  0.00  0.00    +0.044 C 
ATOM     12  C   UNL     1      11.112   8.160  21.386  0.00  0.00    +0.145 C 
ENDROOT
BRANCH   8  13
ATOM     13  C   UNL     1      13.087   9.512  18.694  0.00  0.00    -0.042 A 
ATOM     14  C   UNL     1      12.244   8.911  17.760  0.00  0.00    +0.007 A 
ATOM     15  C   UNL     1      14.000  10.484  18.286  0.00  0.00    +0.007 A 
ATOM     17  C   UNL     1      12.312   9.282  16.418  0.00  0.00    +0.046 A 
ATOM     18  C   UNL     1      14.069  10.856  16.943  0.00  0.00    +0.046 A 
ATOM     20  C   UNL     1      13.225  10.255  16.009  0.00  0.00    +0.120 A 
BRANCH  20   4
ATOM      4  O   UNL     1      13.292  10.617  14.699  0.00  0.00    -0.495 OA
ATOM     28  C   UNL     1      13.955  11.843  14.396  0.00  0.00    +0.277 C 
ENDBRANCH  20   4
ENDBRANCH   8  13
BRANCH   9   7
ATOM      3  O   UNL     1      15.119   6.946  18.332  0.00  0.00    -0.270 OA
ATOM      7  N   UNL     1      14.582   7.237  20.570  0.00  0.00    -0.305 N 
ATOM     16  C   UNL     1      15.439   6.941  19.518  0.00  0.00    +0.245 C 
ATOM     29  H   UNL     1      14.908   7.188  21.528  0.00  0.00    +0.149 HD
BRANCH  16  19
ATOM      5  O   UNL     1      19.291   7.469  22.421  0.00  0.00    -0.485 OA
ATOM      6  O   UNL     1      20.701   5.457  20.914  0.00  0.00    -0.485 OA
ATOM     19  C   UNL     1      16.827   6.571  19.893  0.00  0.00    +0.040 A 
ATOM     21  C   UNL     1      17.435   7.173  20.995  0.00  0.00    +0.062 A 
ATOM     22  C   UNL     1      17.524   5.625  19.141  0.00  0.00    +0.017 A 
ATOM     23  C   UNL     1      18.741   6.829  21.342  0.00  0.00    +0.163 A 
ATOM     24  C   UNL     1      18.826   5.271  19.494  0.00  0.00    +0.050 A 
ATOM     25  C   UNL     1      19.429   5.862  20.605  0.00  0.00    +0.162 A 
ATOM     26  C   UNL     1      20.710   7.305  22.473  0.00  0.00    +0.270 C 
ATOM     27  C   UNL     1      21.081   5.855  22.234  0.00  0.00    +0.270 C 
ENDBRANCH  16  19
ENDBRANCH   9   7
BRANCH  10   1
ATOM      1  O   UNL     1      12.009   5.931  21.714  0.00  0.00    -0.387 OA
ATOM     30  H   UNL     1      11.412   5.838  22.475  0.00  0.00    +0.210 HD
ENDBRANCH  10   1
BRANCH  12   2
ATOM      2  O   UNL     1      10.264   7.588  20.394  0.00  0.00    -0.389 OA
ATOM     31  H   UNL     1       9.379   7.493  20.784  0.00  0.00    +0.210 HD
ENDBRANCH  12   2
TORSDOF 6
ENDMDL
MODEL 2
REMARK VINA RESULT:      -7.7      2.636      3.306
REMARK  Name = 71693896
REMARK  7 active torsions:
REMARK  status: ('A' for Active; 'I' for Inactive)
REMARK    1  A    between atoms: O_1  and  C_10
REMARK    2  A    between atoms: O_2  and  C_12
REMARK    3  A    between atoms: O_4  and  C_20
REMARK    4  A    between atoms: O_4  and  C_28
REMARK    5  A    between atoms: N_7  and  C_9
REMARK    6  A    between atoms: C_8  and  C_13
REMARK    7  A    between atoms: C_16  and  C_19
REMARK                            x       y       z     vdW  Elec       q    Type
REMARK                         _______ _______ _______ _____ _____    ______ ____
ROOT
ATOM      8  C   UNL     1      12.645   8.690  22.084  0.00  0.00    +0.044 C 
ATOM      9  C   UNL     1      13.044   7.858  20.844  0.00  0.00    +0.112 C 
ATOM     10  C   UNL     1      12.088   6.667  20.892  0.00  0.00    +0.164 C 
ATOM     11  C   UNL     1      11.182   8.290  22.408  0.00  0.00    +0.044 C 
ATOM     12  C   UNL     1      10.769   7.298  21.323  0.00  0.00    +0.145 C 
ENDROOT
BRANCH   8  13
ATOM     13  C   UNL     1      12.857  10.177  21.894  0.00  0.00    -0.042 A 
ATOM     14  C   UNL     1      14.020  10.782  22.370  0.00  0.00    +0.007 A 
ATOM     15  C   UNL     1      11.889  10.942  21.242  0.00  0.00    +0.007 A 
ATOM     17  C   UNL     1      14.216  12.151  22.194  0.00  0.00    +0.046 A 
ATOM     18  C   UNL     1      12.084  12.311  21.067  0.00  0.00    +0.046 A 
ATOM     20  C   UNL     1      13.248  12.917  21.543  0.00  0.00    +0.120 A 
BRANCH  20   4
ATOM      4  O   UNL     1      13.439  14.253  21.372  0.00  0.00    -0.495 OA
ATOM     28  C   UNL     1      14.155  14.943  22.395  0.00  0.00    +0.277 C 
ENDBRANCH  20   4
ENDBRANCH   8  13
BRANCH   9   7
ATOM      3  O   UNL     1      14.714   7.198  18.604  0.00  0.00    -0.270 OA
ATOM      7  N   UNL     1      14.423   7.443  20.892  0.00  0.00    -0.305 N 
ATOM     16  C   UNL     1      15.153   7.144  19.751  0.00  0.00    +0.245 C 
ATOM     29  H   UNL     1      14.843   7.352  21.810  0.00  0.00    +0.149 HD
BRANCH  16  19
ATOM      5  O   UNL     1      19.255   7.313  22.339  0.00  0.00    -0.485 OA
ATOM      6  O   UNL     1      20.461   5.402  20.549  0.00  0.00    -0.485 OA
ATOM     19  C   UNL     1      16.556   6.705  19.970  0.00  0.00    +0.040 A 
ATOM     21  C   UNL     1      17.275   7.193  21.061  0.00  0.00    +0.062 A 
ATOM     22  C   UNL     1      17.152   5.810  19.082  0.00  0.00    +0.017 A 
ATOM     23  C   UNL     1      18.593   6.785  21.261  0.00  0.00    +0.163 A 
ATOM     24  C   UNL     1      18.467   5.391  19.289  0.00  0.00    +0.050 A 
ATOM     25  C   UNL     1      19.182   5.867  20.388  0.00  0.00    +0.162 A 
ATOM     26  C   UNL     1      20.667   7.107  22.251  0.00  0.00    +0.270 C 
ATOM     27  C   UNL     1      20.965   5.674  21.860  0.00  0.00    +0.270 C 
ENDBRANCH  16  19
ENDBRANCH   9   7
BRANCH  10   1
ATOM      1  O   UNL     1      11.962   6.029  19.636  0.00  0.00    -0.387 OA
ATOM     30  H   UNL     1      11.471   6.629  19.051  0.00  0.00    +0.210 HD
ENDBRANCH  10   1
BRANCH  12   2
ATOM      2  O   UNL     1      10.175   8.020  20.249  0.00  0.00    -0.389 OA
ATOM     31  H   UNL     1      10.891   8.306  19.656  0.00  0.00    +0.210 HD
ENDBRANCH  12   2
TORSDOF 6
ENDMDL
MODEL 3
REMARK VINA RESULT:      -6.8     14.022     18.369
REMARK  Name = 71693896
REMARK  7 active torsions:
REMARK  status: ('A' for Active; 'I' for Inactive)
REMARK    1  A    between atoms: O_1  and  C_10
REMARK    2  A    between atoms: O_2  and  C_12
REMARK    3  A    between atoms: O_4  and  C_20
REMARK    4  A    between atoms: O_4  and  C_28
REMARK    5  A    between atoms: N_7  and  C_9
REMARK    6  A    between atoms: C_8  and  C_13
REMARK    7  A    between atoms: C_16  and  C_19
REMARK                            x       y       z     vdW  Elec       q    Type
REMARK                         _______ _______ _______ _____ _____    ______ ____
ROOT
ATOM      8  C   UNL     1       8.578   7.175   4.305  0.00  0.00    +0.044 C 
ATOM      9  C   UNL     1       9.796   7.672   3.493  0.00  0.00    +0.112 C 
ATOM     10  C   UNL     1       9.286   8.952   2.832  0.00  0.00    +0.164 C 
ATOM     11  C   UNL     1       7.695   8.426   4.549  0.00  0.00    +0.044 C 
ATOM     12  C   UNL     1       8.452   9.600   3.932  0.00  0.00    +0.145 C 
ENDROOT
BRANCH   8  13
ATOM     13  C   UNL     1       8.969   6.431   5.564  0.00  0.00    -0.042 A 
ATOM     14  C   UNL     1       8.870   7.060   6.805  0.00  0.00    +0.007 A 
ATOM     15  C   UNL     1       9.430   5.117   5.483  0.00  0.00    +0.007 A 
ATOM     17  C   UNL     1       9.229   6.375   7.964  0.00  0.00    +0.046 A 
ATOM     18  C   UNL     1       9.790   4.431   6.643  0.00  0.00    +0.046 A 
ATOM     20  C   UNL     1       9.690   5.060   7.884  0.00  0.00    +0.120 A 
BRANCH  20   4
ATOM      4  O   UNL     1      10.042   4.393   9.016  0.00  0.00    -0.495 OA
ATOM     28  C   UNL     1       9.209   4.569  10.161  0.00  0.00    +0.277 C 
ENDBRANCH  20   4
ENDBRANCH   8  13
BRANCH   9   7
ATOM      3  O   UNL     1      12.258   6.194   3.528  0.00  0.00    -0.270 OA
ATOM      7  N   UNL     1      10.231   6.702   2.521  0.00  0.00    -0.305 N 
ATOM     16  C   UNL     1      11.444   6.034   2.621  0.00  0.00    +0.245 C 
ATOM     29  H   UNL     1       9.618   6.538   1.730  0.00  0.00    +0.149 HD
BRANCH  16  19
ATOM      5  O   UNL     1      10.396   4.126  -1.716  0.00  0.00    -0.485 OA
ATOM      6  O   UNL     1      12.720   2.431  -1.530  0.00  0.00    -0.485 OA
ATOM     19  C   UNL     1      11.758   5.084   1.524  0.00  0.00    +0.040 A 
ATOM     21  C   UNL     1      10.947   5.037   0.390  0.00  0.00    +0.062 A 
ATOM     22  C   UNL     1      12.861   4.236   1.631  0.00  0.00    +0.017 A 
ATOM     23  C   UNL     1      11.240   4.139  -0.636  0.00  0.00    +0.163 A 
ATOM     24  C   UNL     1      13.162   3.346   0.599  0.00  0.00    +0.050 A 
ATOM     25  C   UNL     1      12.361   3.310  -0.542  0.00  0.00    +0.162 A 
ATOM     26  C   UNL     1      10.580   2.960  -2.522  0.00  0.00    +0.270 C 
ATOM     27  C   UNL     1      12.056   2.716  -2.764  0.00  0.00    +0.270 C 
ENDBRANCH  16  19
ENDBRANCH   9   7
BRANCH  10   1
ATOM      1  O   UNL     1      10.340   9.802   2.423  0.00  0.00    -0.387 OA
ATOM     30  H   UNL     1      10.919   9.940   3.191  0.00  0.00    +0.210 HD
ENDBRANCH  10   1
BRANCH  12   2
ATOM      2  O   UNL     1       9.286  10.180   4.930  0.00  0.00    -0.389 OA
ATOM     31  H   UNL     1       8.912   9.946   5.797  0.00  0.00    +0.210 HD
ENDBRANCH  12   2
TORSDOF 6
ENDMDL
MODEL 4
REMARK VINA RESULT:      -6.6     30.102     33.205
REMARK  Name = 71693896
REMARK  7 active torsions:
REMARK  status: ('A' for Active; 'I' for Inactive)
REMARK    1  A    between atoms: O_1  and  C_10
REMARK    2  A    between atoms: O_2  and  C_12
REMARK    3  A    between atoms: O_4  and  C_20
REMARK    4  A    between atoms: O_4  and  C_28
REMARK    5  A    between atoms: N_7  and  C_9
REMARK    6  A    between atoms: C_8  and  C_13
REMARK    7  A    between atoms: C_16  and  C_19
REMARK                            x       y       z     vdW  Elec       q    Type
REMARK                         _______ _______ _______ _____ _____    ______ ____
ROOT
ATOM      8  C   UNL     1     -16.663   4.821  32.505  0.00  0.00    +0.044 C 
ATOM      9  C   UNL     1     -16.340   5.041  34.000  0.00  0.00    +0.112 C 
ATOM     10  C   UNL     1     -17.684   5.459  34.597  0.00  0.00    +0.164 C 
ATOM     11  C   UNL     1     -18.187   4.539  32.439  0.00  0.00    +0.044 C 
ATOM     12  C   UNL     1     -18.676   4.546  33.886  0.00  0.00    +0.145 C 
ENDROOT
BRANCH   8  13
ATOM     13  C   UNL     1     -15.802   3.752  31.864  0.00  0.00    -0.042 A 
ATOM     14  C   UNL     1     -15.518   3.810  30.501  0.00  0.00    +0.007 A 
ATOM     15  C   UNL     1     -15.295   2.709  32.639  0.00  0.00    +0.007 A 
ATOM     17  C   UNL     1     -14.726   2.826  29.911  0.00  0.00    +0.046 A 
ATOM     18  C   UNL     1     -14.502   1.724  32.050  0.00  0.00    +0.046 A 
ATOM     20  C   UNL     1     -14.217   1.783  30.685  0.00  0.00    +0.120 A 
BRANCH  20   4
ATOM      4  O   UNL     1     -13.445   0.822  30.109  0.00  0.00    -0.495 OA
ATOM     28  C   UNL     1     -14.090  -0.394  29.737  0.00  0.00    +0.277 C 
ENDBRANCH  20   4
ENDBRANCH   8  13
BRANCH   9   7
ATOM      3  O   UNL     1     -13.982   4.822  35.623  0.00  0.00    -0.270 OA
ATOM      7  N   UNL     1     -15.331   6.052  34.192  0.00  0.00    -0.305 N 
ATOM     16  C   UNL     1     -14.219   5.854  34.999  0.00  0.00    +0.245 C 
ATOM     29  H   UNL     1     -15.476   6.940  33.726  0.00  0.00    +0.149 HD
BRANCH  16  19
ATOM      5  O   UNL     1     -11.982   9.670  33.004  0.00  0.00    -0.485 OA
ATOM      6  O   UNL     1     -10.687  10.224  35.519  0.00  0.00    -0.485 OA
ATOM     19  C   UNL     1     -13.284   7.002  35.115  0.00  0.00    +0.040 A 
ATOM     21  C   UNL     1     -13.060   7.831  34.015  0.00  0.00    +0.062 A 
ATOM     22  C   UNL     1     -12.627   7.247  36.320  0.00  0.00    +0.017 A 
ATOM     23  C   UNL     1     -12.176   8.904  34.123  0.00  0.00    +0.163 A 
ATOM     24  C   UNL     1     -11.753   8.328  36.434  0.00  0.00    +0.050 A 
ATOM     25  C   UNL     1     -11.540   9.166  35.339  0.00  0.00    +0.162 A 
ATOM     26  C   UNL     1     -10.826  10.503  33.121  0.00  0.00    +0.270 C 
ATOM     27  C   UNL     1     -10.809  11.190  34.472  0.00  0.00    +0.270 C 
ENDBRANCH  16  19
ENDBRANCH   9   7
BRANCH  10   1
ATOM      1  O   UNL     1     -17.731   5.270  35.998  0.00  0.00    -0.387 OA
ATOM     30  H   UNL     1     -18.648   5.417  36.282  0.00  0.00    +0.210 HD
ENDBRANCH  10   1
BRANCH  12   2
ATOM      2  O   UNL     1     -18.605   3.219  34.397  0.00  0.00    -0.389 OA
ATOM     31  H   UNL     1     -18.949   3.236  35.307  0.00  0.00    +0.210 HD
ENDBRANCH  12   2
TORSDOF 6
ENDMDL
MODEL 5
REMARK VINA RESULT:      -6.5      3.730      7.254
REMARK  Name = 71693896
REMARK  7 active torsions:
REMARK  status: ('A' for Active; 'I' for Inactive)
REMARK    1  A    between atoms: O_1  and  C_10
REMARK    2  A    between atoms: O_2  and  C_12
REMARK    3  A    between atoms: O_4  and  C_20
REMARK    4  A    between atoms: O_4  and  C_28
REMARK    5  A    between atoms: N_7  and  C_9
REMARK    6  A    between atoms: C_8  and  C_13
REMARK    7  A    between atoms: C_16  and  C_19
REMARK                            x       y       z     vdW  Elec       q    Type
REMARK                         _______ _______ _______ _____ _____    ______ ____
ROOT
ATOM      8  C   UNL     1      15.656  12.754  15.744  0.00  0.00    +0.044 C 
ATOM      9  C   UNL     1      14.782  11.548  15.331  0.00  0.00    +0.112 C 
ATOM     10  C   UNL     1      13.541  12.199  14.722  0.00  0.00    +0.164 C 
ATOM     11  C   UNL     1      15.189  13.937  14.857  0.00  0.00    +0.044 C 
ATOM     12  C   UNL     1      14.117  13.368  13.930  0.00  0.00    +0.145 C 
ENDROOT
BRANCH   8  13
ATOM     13  C   UNL     1      17.140  12.464  15.668  0.00  0.00    -0.042 A 
ATOM     14  C   UNL     1      17.652  11.723  14.603  0.00  0.00    +0.007 A 
ATOM     15  C   UNL     1      17.996  12.937  16.663  0.00  0.00    +0.007 A 
ATOM     17  C   UNL     1      19.018  11.456  14.532  0.00  0.00    +0.046 A 
ATOM     18  C   UNL     1      19.363  12.670  16.592  0.00  0.00    +0.046 A 
ATOM     20  C   UNL     1      19.875  11.930  15.527  0.00  0.00    +0.120 A 
BRANCH  20   4
ATOM      4  O   UNL     1      21.208  11.668  15.458  0.00  0.00    -0.495 OA
ATOM     28  C   UNL     1      21.903  11.506  16.693  0.00  0.00    +0.277 C 
ENDBRANCH  20   4
ENDBRANCH   8  13
BRANCH   9   7
ATOM      3  O   UNL     1      13.823   8.844  15.230  0.00  0.00    -0.270 OA
ATOM      7  N   UNL     1      14.452  10.709  16.456  0.00  0.00    -0.305 N 
ATOM     16  C   UNL     1      13.993   9.407  16.308  0.00  0.00    +0.245 C 
ATOM     29  H   UNL     1      14.545  11.120  17.378  0.00  0.00    +0.149 HD
BRANCH  16  19
ATOM      5  O   UNL     1      10.823   8.238  19.791  0.00  0.00    -0.485 OA
ATOM      6  O   UNL     1      12.825   6.595  21.059  0.00  0.00    -0.485 OA
ATOM     19  C   UNL     1      13.671   8.683  17.564  0.00  0.00    +0.040 A 
ATOM     21  C   UNL     1      12.390   8.772  18.110  0.00  0.00    +0.062 A 
ATOM     22  C   UNL     1      14.650   7.919  18.198  0.00  0.00    +0.017 A 
ATOM     23  C   UNL     1      12.092   8.096  19.293  0.00  0.00    +0.163 A 
ATOM     24  C   UNL     1      14.350   7.232  19.375  0.00  0.00    +0.050 A 
ATOM     25  C   UNL     1      13.065   7.308  19.914  0.00  0.00    +0.162 A 
ATOM     26  C   UNL     1      10.732   7.804  21.150  0.00  0.00    +0.270 C 
ATOM     27  C   UNL     1      11.425   6.466  21.322  0.00  0.00    +0.270 C 
ENDBRANCH  16  19
ENDBRANCH   9   7
BRANCH  10   1
ATOM      1  O   UNL     1      12.829  11.314  13.880  0.00  0.00    -0.387 OA
ATOM     30  H   UNL     1      11.881  11.473  14.023  0.00  0.00    +0.210 HD
ENDBRANCH  10   1
BRANCH  12   2
ATOM      2  O   UNL     1      14.743  12.914  12.734  0.00  0.00    -0.389 OA
ATOM     31  H   UNL     1      15.039  12.000  12.887  0.00  0.00    +0.210 HD
ENDBRANCH  12   2
TORSDOF 6
ENDMDL
MODEL 6
REMARK VINA RESULT:      -6.5      2.310      4.273
REMARK  Name = 71693896
REMARK  7 active torsions:
REMARK  status: ('A' for Active; 'I' for Inactive)
REMARK    1  A    between atoms: O_1  and  C_10
REMARK    2  A    between atoms: O_2  and  C_12
REMARK    3  A    between atoms: O_4  and  C_20
REMARK    4  A    between atoms: O_4  and  C_28
REMARK    5  A    between atoms: N_7  and  C_9
REMARK    6  A    between atoms: C_8  and  C_13
REMARK    7  A    between atoms: C_16  and  C_19
REMARK                            x       y       z     vdW  Elec       q    Type
REMARK                         _______ _______ _______ _____ _____    ______ ____
ROOT
ATOM      8  C   UNL     1      13.196   8.332  20.406  0.00  0.00    +0.044 C 
ATOM      9  C   UNL     1      14.211   8.648  19.284  0.00  0.00    +0.112 C 
ATOM     10  C   UNL     1      13.776   7.730  18.142  0.00  0.00    +0.164 C 
ATOM     11  C   UNL     1      11.947   7.749  19.694  0.00  0.00    +0.044 C 
ATOM     12  C   UNL     1      12.255   7.803  18.199  0.00  0.00    +0.145 C 
ENDROOT
BRANCH   8  13
ATOM     13  C   UNL     1      12.908   9.523  21.296  0.00  0.00    -0.042 A 
ATOM     14  C   UNL     1      13.863   9.954  22.215  0.00  0.00    +0.007 A 
ATOM     15  C   UNL     1      11.685  10.188  21.196  0.00  0.00    +0.007 A 
ATOM     17  C   UNL     1      13.598  11.050  23.034  0.00  0.00    +0.046 A 
ATOM     18  C   UNL     1      11.420  11.285  22.016  0.00  0.00    +0.046 A 
ATOM     20  C   UNL     1      12.376  11.716  22.935  0.00  0.00    +0.120 A 
BRANCH  20   4
ATOM      4  O   UNL     1      12.118  12.785  23.736  0.00  0.00    -0.495 OA
ATOM     28  C   UNL     1      10.784  13.293  23.732  0.00  0.00    +0.277 C 
ENDBRANCH  20   4
ENDBRANCH   8  13
BRANCH   9   7
ATOM      3  O   UNL     1      15.341   6.096  19.958  0.00  0.00    -0.270 OA
ATOM      7  N   UNL     1      15.568   8.390  19.694  0.00  0.00    -0.305 N 
ATOM     16  C   UNL     1      16.026   7.116  20.001  0.00  0.00    +0.245 C 
ATOM     29  H   UNL     1      16.183   9.191  19.776  0.00  0.00    +0.149 HD
BRANCH  16  19
ATOM      5  O   UNL     1      20.239   4.709  20.090  0.00  0.00    -0.485 OA
ATOM      6  O   UNL     1      21.418   6.834  21.641  0.00  0.00    -0.485 OA
ATOM     19  C   UNL     1      17.444   7.019  20.433  0.00  0.00    +0.040 A 
ATOM     21  C   UNL     1      18.213   5.917  20.059  0.00  0.00    +0.062 A 
ATOM     22  C   UNL     1      18.003   8.029  21.216  0.00  0.00    +0.017 A 
ATOM     23  C   UNL     1      19.541   5.825  20.472  0.00  0.00    +0.163 A 
ATOM     24  C   UNL     1      19.337   7.945  21.619  0.00  0.00    +0.050 A 
ATOM     25  C   UNL     1      20.110   6.850  21.233  0.00  0.00    +0.162 A 
ATOM     26  C   UNL     1      21.447   4.553  20.840  0.00  0.00    +0.270 C 
ATOM     27  C   UNL     1      22.191   5.872  20.918  0.00  0.00    +0.270 C 
ENDBRANCH  16  19
ENDBRANCH   9   7
BRANCH  10   1
ATOM      1  O   UNL     1      14.262   8.167  16.887  0.00  0.00    -0.387 OA
ATOM     30  H   UNL     1      13.571   7.987  16.228  0.00  0.00    +0.210 HD
ENDBRANCH  10   1
BRANCH  12   2
ATOM      2  O   UNL     1      11.784   9.043  17.681  0.00  0.00    -0.389 OA
ATOM     31  H   UNL     1      11.105   9.377  18.292  0.00  0.00    +0.210 HD
ENDBRANCH  12   2
TORSDOF 6
ENDMDL
MODEL 7
REMARK VINA RESULT:      -6.4     13.291     15.352
REMARK  Name = 71693896
REMARK  7 active torsions:
REMARK  status: ('A' for Active; 'I' for Inactive)
REMARK    1  A    between atoms: O_1  and  C_10
REMARK    2  A    between atoms: O_2  and  C_12
REMARK    3  A    between atoms: O_4  and  C_20
REMARK    4  A    between atoms: O_4  and  C_28
REMARK    5  A    between atoms: N_7  and  C_9
REMARK    6  A    between atoms: C_8  and  C_13
REMARK    7  A    between atoms: C_16  and  C_19
REMARK                            x       y       z     vdW  Elec       q    Type
REMARK                         _______ _______ _______ _____ _____    ______ ____
ROOT
ATOM      8  C   UNL     1      10.134   6.450   5.176  0.00  0.00    +0.044 C 
ATOM      9  C   UNL     1      11.384   6.224   6.057  0.00  0.00    +0.112 C 
ATOM     10  C   UNL     1      10.810   6.132   7.471  0.00  0.00    +0.164 C 
ATOM     11  C   UNL     1       8.936   5.897   5.991  0.00  0.00    +0.044 C 
ATOM     12  C   UNL     1       9.533   5.323   7.274  0.00  0.00    +0.145 C 
ENDROOT
BRANCH   8  13
ATOM     13  C   UNL     1      10.273   5.856   3.790  0.00  0.00    -0.042 A 
ATOM     14  C   UNL     1       9.897   6.600   2.672  0.00  0.00    +0.007 A 
ATOM     15  C   UNL     1      10.775   4.564   3.632  0.00  0.00    +0.007 A 
ATOM     17  C   UNL     1      10.025   6.054   1.396  0.00  0.00    +0.046 A 
ATOM     18  C   UNL     1      10.902   4.017   2.355  0.00  0.00    +0.046 A 
ATOM     20  C   UNL     1      10.527   4.762   1.236  0.00  0.00    +0.120 A 
BRANCH  20   4
ATOM      4  O   UNL     1      10.650   4.229  -0.009  0.00  0.00    -0.495 OA
ATOM     28  C   UNL     1      10.308   5.067  -1.112  0.00  0.00    +0.277 C 
ENDBRANCH  20   4
ENDBRANCH   8  13
BRANCH   9   7
ATOM      3  O   UNL     1      14.005   6.336   7.223  0.00  0.00    -0.270 OA
ATOM      7  N   UNL     1      12.335   7.299   5.933  0.00  0.00    -0.305 N 
ATOM     16  C   UNL     1      13.585   7.264   6.535  0.00  0.00    +0.245 C 
ATOM     29  H   UNL     1      12.044   8.110   5.399  0.00  0.00    +0.149 HD
BRANCH  16  19
ATOM      5  O   UNL     1      17.935   9.222   5.643  0.00  0.00    -0.485 OA
ATOM      6  O   UNL     1      16.766  11.856   5.734  0.00  0.00    -0.485 OA
ATOM     19  C   UNL     1      14.440   8.462   6.333  0.00  0.00    +0.040 A 
ATOM     21  C   UNL     1      15.801   8.309   6.065  0.00  0.00    +0.062 A 
ATOM     22  C   UNL     1      13.882   9.737   6.415  0.00  0.00    +0.017 A 
ATOM     23  C   UNL     1      16.603   9.435   5.883  0.00  0.00    +0.163 A 
ATOM     24  C   UNL     1      14.681  10.865   6.220  0.00  0.00    +0.050 A 
ATOM     25  C   UNL     1      16.038  10.712   5.938  0.00  0.00    +0.162 A 
ATOM     26  C   UNL     1      18.705  10.414   5.816  0.00  0.00    +0.270 C 
ATOM     27  C   UNL     1      18.030  11.581   5.124  0.00  0.00    +0.270 C 
ENDBRANCH  16  19
ENDBRANCH   9   7
BRANCH  10   1
ATOM      1  O   UNL     1      11.692   5.485   8.367  0.00  0.00    -0.387 OA
ATOM     30  H   UNL     1      12.484   6.041   8.451  0.00  0.00    +0.210 HD
ENDBRANCH  10   1
BRANCH  12   2
ATOM      2  O   UNL     1       9.830   3.946   7.063  0.00  0.00    -0.389 OA
ATOM     31  H   UNL     1      10.369   3.884   6.256  0.00  0.00    +0.210 HD
ENDBRANCH  12   2
TORSDOF 6
ENDMDL
MODEL 8
REMARK VINA RESULT:      -6.3     26.911     30.346
REMARK  Name = 71693896
REMARK  7 active torsions:
REMARK  status: ('A' for Active; 'I' for Inactive)
REMARK    1  A    between atoms: O_1  and  C_10
REMARK    2  A    between atoms: O_2  and  C_12
REMARK    3  A    between atoms: O_4  and  C_20
REMARK    4  A    between atoms: O_4  and  C_28
REMARK    5  A    between atoms: N_7  and  C_9
REMARK    6  A    between atoms: C_8  and  C_13
REMARK    7  A    between atoms: C_16  and  C_19
REMARK                            x       y       z     vdW  Elec       q    Type
REMARK                         _______ _______ _______ _____ _____    ______ ____
ROOT
ATOM      8  C   UNL     1      -7.073 -11.903  17.286  0.00  0.00    +0.044 C 
ATOM      9  C   UNL     1      -7.879 -10.708  17.843  0.00  0.00    +0.112 C 
ATOM     10  C   UNL     1      -8.616 -11.304  19.042  0.00  0.00    +0.164 C 
ATOM     11  C   UNL     1      -6.914 -12.894  18.468  0.00  0.00    +0.044 C 
ATOM     12  C   UNL     1      -7.572 -12.219  19.670  0.00  0.00    +0.145 C 
ENDROOT
BRANCH   8  13
ATOM     13  C   UNL     1      -5.768 -11.488  16.640  0.00  0.00    -0.042 A 
ATOM     14  C   UNL     1      -5.721 -11.221  15.272  0.00  0.00    +0.007 A 
ATOM     15  C   UNL     1      -4.613 -11.373  17.413  0.00  0.00    +0.007 A 
ATOM     17  C   UNL     1      -4.520 -10.839  14.677  0.00  0.00    +0.046 A 
ATOM     18  C   UNL     1      -3.411 -10.991  16.818  0.00  0.00    +0.046 A 
ATOM     20  C   UNL     1      -3.364 -10.723  15.450  0.00  0.00    +0.120 A 
BRANCH  20   4
ATOM      4  O   UNL     1      -2.191 -10.351  14.869  0.00  0.00    -0.495 OA
ATOM     28  C   UNL     1      -1.033 -10.322  15.701  0.00  0.00    +0.277 C 
ENDBRANCH  20   4
ENDBRANCH   8  13
BRANCH   9   7
ATOM      3  O   UNL     1      -9.011  -8.069  17.831  0.00  0.00    -0.270 OA
ATOM      7  N   UNL     1      -8.790 -10.167  16.866  0.00  0.00    -0.305 N 
ATOM     16  C   UNL     1      -9.287  -8.873  16.943  0.00  0.00    +0.245 C 
ATOM     29  H   UNL     1      -9.081 -10.786  16.118  0.00  0.00    +0.149 HD
BRANCH  16  19
ATOM      5  O   UNL     1     -11.970  -5.472  14.756  0.00  0.00    -0.485 OA
ATOM      6  O   UNL     1     -12.864  -7.419  12.828  0.00  0.00    -0.485 OA
ATOM     19  C   UNL     1     -10.237  -8.475  15.874  0.00  0.00    +0.040 A 
ATOM     21  C   UNL     1     -10.669  -7.152  15.783  0.00  0.00    +0.062 A 
ATOM     22  C   UNL     1     -10.700  -9.426  14.964  0.00  0.00    +0.017 A 
ATOM     23  C   UNL     1     -11.567  -6.781  14.782  0.00  0.00    +0.163 A 
ATOM     24  C   UNL     1     -11.588  -9.054  13.954  0.00  0.00    +0.050 A 
ATOM     25  C   UNL     1     -12.009  -7.728  13.854  0.00  0.00    +0.162 A 
ATOM     26  C   UNL     1     -13.125  -5.285  13.935  0.00  0.00    +0.270 C 
ATOM     27  C   UNL     1     -12.952  -6.008  12.613  0.00  0.00    +0.270 C 
ENDBRANCH  16  19
ENDBRANCH   9   7
BRANCH  10   1
ATOM      1  O   UNL     1      -9.043 -10.313  19.956  0.00  0.00    -0.387 OA
ATOM     30  H   UNL     1      -8.356  -9.626  19.985  0.00  0.00    +0.210 HD
ENDBRANCH  10   1
BRANCH  12   2
ATOM      2  O   UNL     1      -6.585 -11.465  20.366  0.00  0.00    -0.389 OA
ATOM     31  H   UNL     1      -5.719 -11.859  20.166  0.00  0.00    +0.210 HD
ENDBRANCH  12   2
TORSDOF 6
ENDMDL
MODEL 9
REMARK VINA RESULT:      -6.3     27.061     29.711
REMARK  Name = 71693896
REMARK  7 active torsions:
REMARK  status: ('A' for Active; 'I' for Inactive)
REMARK    1  A    between atoms: O_1  and  C_10
REMARK    2  A    between atoms: O_2  and  C_12
REMARK    3  A    between atoms: O_4  and  C_20
REMARK    4  A    between atoms: O_4  and  C_28
REMARK    5  A    between atoms: N_7  and  C_9
REMARK    6  A    between atoms: C_8  and  C_13
REMARK    7  A    between atoms: C_16  and  C_19
REMARK                            x       y       z     vdW  Elec       q    Type
REMARK                         _______ _______ _______ _____ _____    ______ ____
ROOT
ATOM      8  C   UNL     1     -10.041  -9.932  18.916  0.00  0.00    +0.044 C 
ATOM      9  C   UNL     1      -9.442 -11.302  18.525  0.00  0.00    +0.112 C 
ATOM     10  C   UNL     1      -9.715 -12.173  19.751  0.00  0.00    +0.164 C 
ATOM     11  C   UNL     1     -11.099 -10.230  20.011  0.00  0.00    +0.044 C 
ATOM     12  C   UNL     1     -11.118 -11.749  20.171  0.00  0.00    +0.145 C 
ENDROOT
BRANCH   8  13
ATOM     13  C   UNL     1     -10.574  -9.158  17.729  0.00  0.00    -0.042 A 
ATOM     14  C   UNL     1      -9.971  -7.958  17.351  0.00  0.00    +0.007 A 
ATOM     15  C   UNL     1     -11.668  -9.645  17.013  0.00  0.00    +0.007 A 
ATOM     17  C   UNL     1     -10.461  -7.246  16.258  0.00  0.00    +0.046 A 
ATOM     18  C   UNL     1     -12.159  -8.932  15.920  0.00  0.00    +0.046 A 
ATOM     20  C   UNL     1     -11.555  -7.732  15.541  0.00  0.00    +0.120 A 
BRANCH  20   4
ATOM      4  O   UNL     1     -12.034  -7.036  14.475  0.00  0.00    -0.495 OA
ATOM     28  C   UNL     1     -11.895  -5.616  14.510  0.00  0.00    +0.277 C 
ENDBRANCH  20   4
ENDBRANCH   8  13
BRANCH   9   7
ATOM      3  O   UNL     1      -8.243 -11.075  15.927  0.00  0.00    -0.270 OA
ATOM      7  N   UNL     1      -8.034 -11.213  18.233  0.00  0.00    -0.305 N 
ATOM     16  C   UNL     1      -7.545 -11.105  16.938  0.00  0.00    +0.245 C 
ATOM     29  H   UNL     1      -7.398 -11.258  19.021  0.00  0.00    +0.149 HD
BRANCH  16  19
ATOM      5  O   UNL     1      -3.599 -10.456  14.190  0.00  0.00    -0.485 OA
ATOM      6  O   UNL     1      -1.924 -10.867  16.500  0.00  0.00    -0.485 OA
ATOM     19  C   UNL     1      -6.067 -11.050  16.802  0.00  0.00    +0.040 A 
ATOM     21  C   UNL     1      -5.492 -10.765  15.563  0.00  0.00    +0.062 A 
ATOM     22  C   UNL     1      -5.256 -11.286  17.911  0.00  0.00    +0.017 A 
ATOM     23  C   UNL     1      -4.105 -10.721  15.436  0.00  0.00    +0.163 A 
ATOM     24  C   UNL     1      -3.867 -11.229  17.788  0.00  0.00    +0.050 A 
ATOM     25  C   UNL     1      -3.292 -10.930  16.553  0.00  0.00    +0.162 A 
ATOM     26  C   UNL     1      -2.208 -10.773  14.101  0.00  0.00    +0.270 C 
ATOM     27  C   UNL     1      -1.466 -10.228  15.305  0.00  0.00    +0.270 C 
ENDBRANCH  16  19
ENDBRANCH   9   7
BRANCH  10   1
ATOM      1  O   UNL     1      -9.669 -13.554  19.450  0.00  0.00    -0.387 OA
ATOM     30  H   UNL     1      -9.819 -14.039  20.278  0.00  0.00    +0.210 HD
ENDBRANCH  10   1
BRANCH  12   2
ATOM      2  O   UNL     1     -12.099 -12.287  19.290  0.00  0.00    -0.389 OA
ATOM     31  H   UNL     1     -12.942 -11.844  19.484  0.00  0.00    +0.210 HD
ENDBRANCH  12   2
TORSDOF 6
ENDMDL
MODEL 10
REMARK VINA RESULT:      -6.3      2.260      7.525
REMARK  Name = 71693896
REMARK  7 active torsions:
REMARK  status: ('A' for Active; 'I' for Inactive)
REMARK    1  A    between atoms: O_1  and  C_10
REMARK    2  A    between atoms: O_2  and  C_12
REMARK    3  A    between atoms: O_4  and  C_20
REMARK    4  A    between atoms: O_4  and  C_28
REMARK    5  A    between atoms: N_7  and  C_9
REMARK    6  A    between atoms: C_8  and  C_13
REMARK    7  A    between atoms: C_16  and  C_19
REMARK                            x       y       z     vdW  Elec       q    Type
REMARK                         _______ _______ _______ _____ _____    ______ ____
ROOT
ATOM      8  C   UNL     1      14.604   7.611  19.409  0.00  0.00    +0.044 C 
ATOM      9  C   UNL     1      14.455   9.130  19.658  0.00  0.00    +0.112 C 
ATOM     10  C   UNL     1      12.993   9.280  20.078  0.00  0.00    +0.164 C 
ATOM     11  C   UNL     1      13.479   6.936  20.236  0.00  0.00    +0.044 C 
ATOM     12  C   UNL     1      12.765   8.066  20.973  0.00  0.00    +0.145 C 
ENDROOT
BRANCH   8  13
ATOM     13  C   UNL     1      15.996   7.096  19.710  0.00  0.00    -0.042 A 
ATOM     14  C   UNL     1      16.714   7.615  20.787  0.00  0.00    +0.007 A 
ATOM     15  C   UNL     1      16.559   6.102  18.910  0.00  0.00    +0.007 A 
ATOM     17  C   UNL     1      17.995   7.141  21.065  0.00  0.00    +0.046 A 
ATOM     18  C   UNL     1      17.841   5.628  19.187  0.00  0.00    +0.046 A 
ATOM     20  C   UNL     1      18.559   6.147  20.265  0.00  0.00    +0.120 A 
BRANCH  20   4
ATOM      4  O   UNL     1      19.810   5.685  20.535  0.00  0.00    -0.495 OA
ATOM     28  C   UNL     1      20.434   6.158  21.727  0.00  0.00    +0.277 C 
ENDBRANCH  20   4
ENDBRANCH   8  13
BRANCH   9   7
ATOM      3  O   UNL     1      15.344  11.859  19.580  0.00  0.00    -0.270 OA
ATOM      7  N   UNL     1      14.757   9.903  18.480  0.00  0.00    -0.305 N 
ATOM     16  C   UNL     1      15.183  11.223  18.541  0.00  0.00    +0.245 C 
ATOM     29  H   UNL     1      14.620   9.448  17.584  0.00  0.00    +0.149 HD
BRANCH  16  19
ATOM      5  O   UNL     1      15.084  11.134  13.690  0.00  0.00    -0.485 OA
ATOM      6  O   UNL     1      16.095  13.833  13.622  0.00  0.00    -0.485 OA
ATOM     19  C   UNL     1      15.427  11.890  17.236  0.00  0.00    +0.040 A 
ATOM     21  C   UNL     1      15.135  11.222  16.047  0.00  0.00    +0.062 A 
ATOM     22  C   UNL     1      15.952  13.181  17.203  0.00  0.00    +0.017 A 
ATOM     23  C   UNL     1      15.372  11.848  14.824  0.00  0.00    +0.163 A 
ATOM     24  C   UNL     1      16.178  13.814  15.979  0.00  0.00    +0.050 A 
ATOM     25  C   UNL     1      15.872  13.152  14.790  0.00  0.00    +0.162 A 
ATOM     26  C   UNL     1      15.677  11.718  12.527  0.00  0.00    +0.270 C 
ATOM     27  C   UNL     1      15.439  13.215  12.511  0.00  0.00    +0.270 C 
ENDBRANCH  16  19
ENDBRANCH   9   7
BRANCH  10   1
ATOM      1  O   UNL     1      12.758  10.484  20.782  0.00  0.00    -0.387 OA
ATOM     30  H   UNL     1      13.546  10.665  21.322  0.00  0.00    +0.210 HD
ENDBRANCH  10   1
BRANCH  12   2
ATOM      2  O   UNL     1      13.384   8.245  22.243  0.00  0.00    -0.389 OA
ATOM     31  H   UNL     1      13.618   9.185  22.325  0.00  0.00    +0.210 HD
ENDBRANCH  12   2
TORSDOF 6
ENDMDL
