MODEL 1
REMARK VINA RESULT:      -7.6      0.000      0.000
REMARK  Name = 51137803
REMARK  6 active torsions:
REMARK  status: ('A' for Active; 'I' for Inactive)
REMARK    1  A    between atoms: O_3  and  C_18
REMARK    2  A    between atoms: O_3  and  C_28
REMARK    3  A    between atoms: N_5  and  C_15
REMARK    4  A    between atoms: C_8  and  C_12
REMARK    5  A    between atoms: C_14  and  C_16
REMARK    6  A    between atoms: C_15  and  C_17
REMARK                            x       y       z     vdW  Elec       q    Type
REMARK                         _______ _______ _______ _____ _____    ______ ____
ROOT
ATOM      2  O   UNL     1      10.047   8.594  22.676  0.00  0.00    -0.253 OA
ATOM      4  N   UNL     1      12.105   8.167  21.727  0.00  0.00    -0.285 N 
ATOM      5  N   UNL     1      11.846   9.911  23.267  0.00  0.00    -0.295 N 
ATOM      8  C   UNL     1      12.767   6.800  19.897  0.00  0.00    +0.096 C 
ATOM      9  C   UNL     1      14.010   7.226  20.693  0.00  0.00    +0.033 C 
ATOM     10  C   UNL     1      11.641   7.053  20.908  0.00  0.00    +0.122 C 
ATOM     11  C   UNL     1      13.531   8.410  21.524  0.00  0.00    +0.110 C 
ATOM     13  C   UNL     1      11.244   8.870  22.567  0.00  0.00    +0.302 C 
ATOM     29  H   UNL     1      12.821  10.132  23.108  0.00  0.00    +0.151 HD
ENDROOT
BRANCH   8  12
ATOM      1  O   UNL     1      13.584   8.522  18.349  0.00  0.00    -0.420 OA
ATOM      6  N   UNL     1      11.824   7.373  17.584  0.00  0.00    -0.112 NA
ATOM      7  N   UNL     1      12.179   8.301  16.623  0.00  0.00    -0.107 NA
ATOM     12  C   UNL     1      12.670   7.538  18.573  0.00  0.00    +0.222 A 
ATOM     14  C   UNL     1      13.209   8.950  17.113  0.00  0.00    +0.252 A 
BRANCH  14  16
ATOM     16  C   UNL     1      13.988  10.018  16.556  0.00  0.00    +0.080 A 
ATOM     18  C   UNL     1      14.040  11.265  17.178  0.00  0.00    +0.132 A 
ATOM     19  C   UNL     1      14.697   9.797  15.375  0.00  0.00    +0.017 A 
ATOM     22  C   UNL     1      14.801  12.292  16.619  0.00  0.00    +0.046 A 
ATOM     23  C   UNL     1      15.458  10.824  14.816  0.00  0.00    +0.001 A 
ATOM     24  C   UNL     1      15.510  12.071  15.439  0.00  0.00    +0.004 A 
BRANCH  18   3
ATOM      3  O   UNL     1      13.356  11.509  18.332  0.00  0.00    -0.494 OA
ATOM     28  C   UNL     1      13.368  12.849  18.820  0.00  0.00    +0.277 C 
ENDBRANCH  18   3
ENDBRANCH  14  16
ENDBRANCH   8  12
BRANCH   5  15
ATOM     15  C   UNL     1      11.111  10.754  24.182  0.00  0.00    +0.141 C 
BRANCH  15  17
ATOM     17  C   UNL     1      10.806  12.098  23.586  0.00  0.00    -0.030 A 
ATOM     20  C   UNL     1      10.248  13.102  24.377  0.00  0.00    +0.005 A 
ATOM     21  C   UNL     1      11.079  12.342  22.240  0.00  0.00    +0.005 A 
ATOM     25  C   UNL     1       9.964  14.350  23.823  0.00  0.00    +0.000 A 
ATOM     26  C   UNL     1      10.796  13.590  21.686  0.00  0.00    +0.000 A 
ATOM     27  C   UNL     1      10.238  14.595  22.478  0.00  0.00    +0.000 A 
ENDBRANCH  15  17
ENDBRANCH   5  15
TORSDOF 5
ENDMDL
MODEL 2
REMARK VINA RESULT:      -7.0      3.141      4.286
REMARK  Name = 51137803
REMARK  6 active torsions:
REMARK  status: ('A' for Active; 'I' for Inactive)
REMARK    1  A    between atoms: O_3  and  C_18
REMARK    2  A    between atoms: O_3  and  C_28
REMARK    3  A    between atoms: N_5  and  C_15
REMARK    4  A    between atoms: C_8  and  C_12
REMARK    5  A    between atoms: C_14  and  C_16
REMARK    6  A    between atoms: C_15  and  C_17
REMARK                            x       y       z     vdW  Elec       q    Type
REMARK                         _______ _______ _______ _____ _____    ______ ____
ROOT
ATOM      2  O   UNL     1      10.979  11.305  21.743  0.00  0.00    -0.253 OA
ATOM      4  N   UNL     1      11.485   9.058  21.645  0.00  0.00    -0.285 N 
ATOM      5  N   UNL     1      11.888  10.282  23.598  0.00  0.00    -0.295 N 
ATOM      8  C   UNL     1      11.606   7.526  19.830  0.00  0.00    +0.096 C 
ATOM      9  C   UNL     1      11.621   6.750  21.155  0.00  0.00    +0.033 C 
ATOM     10  C   UNL     1      11.046   8.886  20.265  0.00  0.00    +0.122 C 
ATOM     11  C   UNL     1      11.984   7.801  22.197  0.00  0.00    +0.110 C 
ATOM     13  C   UNL     1      11.417  10.291  22.290  0.00  0.00    +0.302 C 
ATOM     29  H   UNL     1      12.285   9.436  23.990  0.00  0.00    +0.151 HD
ENDROOT
BRANCH   8  12
ATOM      1  O   UNL     1      14.021   7.090  19.920  0.00  0.00    -0.420 OA
ATOM      6  N   UNL     1      13.318   7.909  17.961  0.00  0.00    -0.112 NA
ATOM      7  N   UNL     1      14.684   7.710  17.877  0.00  0.00    -0.107 NA
ATOM     12  C   UNL     1      12.975   7.533  19.171  0.00  0.00    +0.222 A 
ATOM     14  C   UNL     1      15.051   7.233  19.043  0.00  0.00    +0.252 A 
BRANCH  14  16
ATOM     16  C   UNL     1      16.344   6.844  19.524  0.00  0.00    +0.080 A 
ATOM     18  C   UNL     1      16.931   7.498  20.608  0.00  0.00    +0.132 A 
ATOM     19  C   UNL     1      17.018   5.798  18.893  0.00  0.00    +0.017 A 
ATOM     22  C   UNL     1      18.191   7.108  21.060  0.00  0.00    +0.046 A 
ATOM     23  C   UNL     1      18.279   5.407  19.346  0.00  0.00    +0.001 A 
ATOM     24  C   UNL     1      18.865   6.061  20.429  0.00  0.00    +0.004 A 
BRANCH  18   3
ATOM      3  O   UNL     1      16.295   8.525  21.243  0.00  0.00    -0.494 OA
ATOM     28  C   UNL     1      17.080   9.672  21.561  0.00  0.00    +0.277 C 
ENDBRANCH  18   3
ENDBRANCH  14  16
ENDBRANCH   8  12
BRANCH   5  15
ATOM     15  C   UNL     1      11.901  11.468  24.424  0.00  0.00    +0.141 C 
BRANCH  15  17
ATOM     17  C   UNL     1      13.198  12.217  24.313  0.00  0.00    -0.030 A 
ATOM     20  C   UNL     1      14.392  11.604  24.693  0.00  0.00    +0.005 A 
ATOM     21  C   UNL     1      13.208  13.525  23.831  0.00  0.00    +0.005 A 
ATOM     25  C   UNL     1      15.596  12.300  24.591  0.00  0.00    +0.000 A 
ATOM     26  C   UNL     1      14.413  14.221  23.727  0.00  0.00    +0.000 A 
ATOM     27  C   UNL     1      15.608  13.608  24.107  0.00  0.00    +0.000 A 
ENDBRANCH  15  17
ENDBRANCH   5  15
TORSDOF 5
ENDMDL
MODEL 3
REMARK VINA RESULT:      -6.9     27.461     30.049
REMARK  Name = 51137803
REMARK  6 active torsions:
REMARK  status: ('A' for Active; 'I' for Inactive)
REMARK    1  A    between atoms: O_3  and  C_18
REMARK    2  A    between atoms: O_3  and  C_28
REMARK    3  A    between atoms: N_5  and  C_15
REMARK    4  A    between atoms: C_8  and  C_12
REMARK    5  A    between atoms: C_14  and  C_16
REMARK    6  A    between atoms: C_15  and  C_17
REMARK                            x       y       z     vdW  Elec       q    Type
REMARK                         _______ _______ _______ _____ _____    ______ ____
ROOT
ATOM      2  O   UNL     1      -9.016  -9.649  10.936  0.00  0.00    -0.253 OA
ATOM      4  N   UNL     1      -8.632  -8.122   9.251  0.00  0.00    -0.285 N 
ATOM      5  N   UNL     1      -6.876  -8.853  10.615  0.00  0.00    -0.295 N 
ATOM      8  C   UNL     1     -10.102  -6.836   7.895  0.00  0.00    +0.096 C 
ATOM      9  C   UNL     1      -8.685  -6.781   7.306  0.00  0.00    +0.033 C 
ATOM     10  C   UNL     1     -10.019  -8.067   8.807  0.00  0.00    +0.122 C 
ATOM     11  C   UNL     1      -7.789  -7.237   8.451  0.00  0.00    +0.110 C 
ATOM     13  C   UNL     1      -8.231  -8.929  10.313  0.00  0.00    +0.302 C 
ATOM     29  H   UNL     1      -6.278  -8.211  10.108  0.00  0.00    +0.151 HD
ENDROOT
BRANCH   8  12
ATOM      1  O   UNL     1     -11.737  -5.440   9.084  0.00  0.00    -0.420 OA
ATOM      6  N   UNL     1      -9.778  -4.427   8.708  0.00  0.00    -0.112 NA
ATOM      7  N   UNL     1     -10.599  -3.538   9.377  0.00  0.00    -0.107 NA
ATOM     12  C   UNL     1     -10.484  -5.523   8.558  0.00  0.00    +0.222 A 
ATOM     14  C   UNL     1     -11.730  -4.172   9.575  0.00  0.00    +0.252 A 
BRANCH  14  16
ATOM     16  C   UNL     1     -12.938  -3.742  10.218  0.00  0.00    +0.080 A 
ATOM     18  C   UNL     1     -13.072  -3.805  11.605  0.00  0.00    +0.132 A 
ATOM     19  C   UNL     1     -13.989  -3.258   9.438  0.00  0.00    +0.017 A 
ATOM     22  C   UNL     1     -14.254  -3.385  12.212  0.00  0.00    +0.046 A 
ATOM     23  C   UNL     1     -15.172  -2.838  10.045  0.00  0.00    +0.001 A 
ATOM     24  C   UNL     1     -15.305  -2.901  11.432  0.00  0.00    +0.004 A 
BRANCH  18   3
ATOM      3  O   UNL     1     -12.061  -4.274  12.392  0.00  0.00    -0.494 OA
ATOM     28  C   UNL     1     -12.435  -4.928  13.603  0.00  0.00    +0.277 C 
ENDBRANCH  18   3
ENDBRANCH  14  16
ENDBRANCH   8  12
BRANCH   5  15
ATOM     15  C   UNL     1      -6.278  -9.616  11.688  0.00  0.00    +0.141 C 
BRANCH  15  17
ATOM     17  C   UNL     1      -4.788  -9.726  11.536  0.00  0.00    -0.030 A 
ATOM     20  C   UNL     1      -4.039 -10.417  12.489  0.00  0.00    +0.005 A 
ATOM     21  C   UNL     1      -4.153  -9.137  10.443  0.00  0.00    +0.005 A 
ATOM     25  C   UNL     1      -2.656 -10.519  12.348  0.00  0.00    +0.000 A 
ATOM     26  C   UNL     1      -2.770  -9.240  10.302  0.00  0.00    +0.000 A 
ATOM     27  C   UNL     1      -2.020  -9.931  11.254  0.00  0.00    +0.000 A 
ENDBRANCH  15  17
ENDBRANCH   5  15
TORSDOF 5
ENDMDL
MODEL 4
REMARK VINA RESULT:      -6.8     27.314     28.640
REMARK  Name = 51137803
REMARK  6 active torsions:
REMARK  status: ('A' for Active; 'I' for Inactive)
REMARK    1  A    between atoms: O_3  and  C_18
REMARK    2  A    between atoms: O_3  and  C_28
REMARK    3  A    between atoms: N_5  and  C_15
REMARK    4  A    between atoms: C_8  and  C_12
REMARK    5  A    between atoms: C_14  and  C_16
REMARK    6  A    between atoms: C_15  and  C_17
REMARK                            x       y       z     vdW  Elec       q    Type
REMARK                         _______ _______ _______ _____ _____    ______ ____
ROOT
ATOM      2  O   UNL     1      -6.418 -11.483  14.270  0.00  0.00    -0.253 OA
ATOM      4  N   UNL     1      -4.369 -11.092  13.288  0.00  0.00    -0.285 N 
ATOM      5  N   UNL     1      -4.977  -9.976  15.254  0.00  0.00    -0.295 N 
ATOM      8  C   UNL     1      -3.481 -11.677  11.161  0.00  0.00    +0.096 C 
ATOM      9  C   UNL     1      -2.344 -11.192  12.074  0.00  0.00    +0.033 C 
ATOM     10  C   UNL     1      -4.581 -12.011  12.176  0.00  0.00    +0.122 C 
ATOM     11  C   UNL     1      -3.060 -10.450  13.196  0.00  0.00    +0.110 C 
ATOM     13  C   UNL     1      -5.334 -10.894  14.273  0.00  0.00    +0.302 C 
ATOM     29  H   UNL     1      -4.095  -9.480  15.188  0.00  0.00    +0.151 HD
ENDROOT
BRANCH   8  12
ATOM      1  O   UNL     1      -4.746 -11.007   9.165  0.00  0.00    -0.420 OA
ATOM      6  N   UNL     1      -3.360  -9.429   9.935  0.00  0.00    -0.112 NA
ATOM      7  N   UNL     1      -4.004  -8.926   8.820  0.00  0.00    -0.107 NA
ATOM     12  C   UNL     1      -3.824 -10.645  10.099  0.00  0.00    +0.222 A 
ATOM     14  C   UNL     1      -4.802  -9.881   8.404  0.00  0.00    +0.252 A 
BRANCH  14  16
ATOM     16  C   UNL     1      -5.708  -9.919   7.293  0.00  0.00    +0.080 A 
ATOM     18  C   UNL     1      -6.892  -9.183   7.310  0.00  0.00    +0.132 A 
ATOM     19  C   UNL     1      -5.392 -10.707   6.186  0.00  0.00    +0.017 A 
ATOM     22  C   UNL     1      -7.762  -9.235   6.221  0.00  0.00    +0.046 A 
ATOM     23  C   UNL     1      -6.262 -10.759   5.096  0.00  0.00    +0.001 A 
ATOM     24  C   UNL     1      -7.446 -10.023   5.114  0.00  0.00    +0.004 A 
BRANCH  18   3
ATOM      3  O   UNL     1      -7.226  -8.404   8.379  0.00  0.00    -0.494 OA
ATOM     28  C   UNL     1      -7.926  -7.193   8.103  0.00  0.00    +0.277 C 
ENDBRANCH  18   3
ENDBRANCH  14  16
ENDBRANCH   8  12
BRANCH   5  15
ATOM     15  C   UNL     1      -5.851  -9.638  16.353  0.00  0.00    +0.141 C 
BRANCH  15  17
ATOM     17  C   UNL     1      -5.526 -10.422  17.592  0.00  0.00    -0.030 A 
ATOM     20  C   UNL     1      -6.418 -10.433  18.664  0.00  0.00    +0.005 A 
ATOM     21  C   UNL     1      -4.333 -11.139  17.669  0.00  0.00    +0.005 A 
ATOM     25  C   UNL     1      -6.115 -11.161  19.815  0.00  0.00    +0.000 A 
ATOM     26  C   UNL     1      -4.031 -11.867  18.820  0.00  0.00    +0.000 A 
ATOM     27  C   UNL     1      -4.922 -11.879  19.893  0.00  0.00    +0.000 A 
ENDBRANCH  15  17
ENDBRANCH   5  15
TORSDOF 5
ENDMDL
MODEL 5
REMARK VINA RESULT:      -6.8     14.825     17.821
REMARK  Name = 51137803
REMARK  6 active torsions:
REMARK  status: ('A' for Active; 'I' for Inactive)
REMARK    1  A    between atoms: O_3  and  C_18
REMARK    2  A    between atoms: O_3  and  C_28
REMARK    3  A    between atoms: N_5  and  C_15
REMARK    4  A    between atoms: C_8  and  C_12
REMARK    5  A    between atoms: C_14  and  C_16
REMARK    6  A    between atoms: C_15  and  C_17
REMARK                            x       y       z     vdW  Elec       q    Type
REMARK                         _______ _______ _______ _____ _____    ______ ____
ROOT
ATOM      2  O   UNL     1      14.924   9.385   3.308  0.00  0.00    -0.253 OA
ATOM      4  N   UNL     1      13.985   8.064   4.949  0.00  0.00    -0.285 N 
ATOM      5  N   UNL     1      16.302   8.077   4.615  0.00  0.00    -0.295 N 
ATOM      8  C   UNL     1      11.735   7.444   5.407  0.00  0.00    +0.096 C 
ATOM      9  C   UNL     1      12.620   7.079   6.608  0.00  0.00    +0.033 C 
ATOM     10  C   UNL     1      12.611   8.461   4.665  0.00  0.00    +0.122 C 
ATOM     11  C   UNL     1      14.037   7.101   6.046  0.00  0.00    +0.110 C 
ATOM     13  C   UNL     1      15.062   8.570   4.224  0.00  0.00    +0.302 C 
ATOM     29  H   UNL     1      16.362   7.372   5.341  0.00  0.00    +0.151 HD
ENDROOT
BRANCH   8  12
ATOM      1  O   UNL     1      11.669   6.163   3.312  0.00  0.00    -0.420 OA
ATOM      6  N   UNL     1      10.650   5.153   5.028  0.00  0.00    -0.112 NA
ATOM      7  N   UNL     1      10.540   4.331   3.921  0.00  0.00    -0.107 NA
ATOM     12  C   UNL     1      11.316   6.209   4.626  0.00  0.00    +0.222 A 
ATOM     14  C   UNL     1      11.148   4.962   2.944  0.00  0.00    +0.252 A 
BRANCH  14  16
ATOM     16  C   UNL     1      11.345   4.585   1.574  0.00  0.00    +0.080 A 
ATOM     18  C   UNL     1      12.482   3.878   1.183  0.00  0.00    +0.132 A 
ATOM     19  C   UNL     1      10.382   4.937   0.628  0.00  0.00    +0.017 A 
ATOM     22  C   UNL     1      12.657   3.523  -0.154  0.00  0.00    +0.046 A 
ATOM     23  C   UNL     1      10.558   4.582  -0.710  0.00  0.00    +0.001 A 
ATOM     24  C   UNL     1      11.695   3.875  -1.101  0.00  0.00    +0.004 A 
BRANCH  18   3
ATOM      3  O   UNL     1      13.439   3.522   2.087  0.00  0.00    -0.494 OA
ATOM     28  C   UNL     1      14.795   3.578   1.649  0.00  0.00    +0.277 C 
ENDBRANCH  18   3
ENDBRANCH  14  16
ENDBRANCH   8  12
BRANCH   5  15
ATOM     15  C   UNL     1      17.533   8.483   3.977  0.00  0.00    +0.141 C 
BRANCH  15  17
ATOM     17  C   UNL     1      18.729   8.224   4.845  0.00  0.00    -0.030 A 
ATOM     20  C   UNL     1      19.817   7.511   4.340  0.00  0.00    +0.005 A 
ATOM     21  C   UNL     1      18.753   8.694   6.158  0.00  0.00    +0.005 A 
ATOM     25  C   UNL     1      20.928   7.269   5.147  0.00  0.00    +0.000 A 
ATOM     26  C   UNL     1      19.865   8.453   6.965  0.00  0.00    +0.000 A 
ATOM     27  C   UNL     1      20.953   7.741   6.460  0.00  0.00    +0.000 A 
ENDBRANCH  15  17
ENDBRANCH   5  15
TORSDOF 5
ENDMDL
MODEL 6
REMARK VINA RESULT:      -6.7     26.620     29.298
REMARK  Name = 51137803
REMARK  6 active torsions:
REMARK  status: ('A' for Active; 'I' for Inactive)
REMARK    1  A    between atoms: O_3  and  C_18
REMARK    2  A    between atoms: O_3  and  C_28
REMARK    3  A    between atoms: N_5  and  C_15
REMARK    4  A    between atoms: C_8  and  C_12
REMARK    5  A    between atoms: C_14  and  C_16
REMARK    6  A    between atoms: C_15  and  C_17
REMARK                            x       y       z     vdW  Elec       q    Type
REMARK                         _______ _______ _______ _____ _____    ______ ____
ROOT
ATOM      2  O   UNL     1      -1.901 -10.306  14.898  0.00  0.00    -0.253 OA
ATOM      4  N   UNL     1      -3.506 -11.585  15.951  0.00  0.00    -0.285 N 
ATOM      5  N   UNL     1      -2.712 -12.184  13.832  0.00  0.00    -0.295 N 
ATOM      8  C   UNL     1      -4.853 -11.193  17.871  0.00  0.00    +0.096 C 
ATOM      9  C   UNL     1      -4.936 -12.677  17.482  0.00  0.00    +0.033 C 
ATOM     10  C   UNL     1      -3.581 -10.745  17.140  0.00  0.00    +0.122 C 
ATOM     11  C   UNL     1      -4.428 -12.714  16.046  0.00  0.00    +0.110 C 
ATOM     13  C   UNL     1      -2.650 -11.287  14.893  0.00  0.00    +0.302 C 
ATOM     29  H   UNL     1      -3.377 -12.948  13.851  0.00  0.00    +0.151 HD
ENDROOT
BRANCH   8  12
ATOM      1  O   UNL     1      -7.229 -10.726  18.285  0.00  0.00    -0.420 OA
ATOM      6  N   UNL     1      -6.358  -9.565  16.583  0.00  0.00    -0.112 NA
ATOM      7  N   UNL     1      -7.688  -9.210  16.706  0.00  0.00    -0.107 NA
ATOM     12  C   UNL     1      -6.134 -10.452  17.524  0.00  0.00    +0.222 A 
ATOM     14  C   UNL     1      -8.156  -9.913  17.711  0.00  0.00    +0.252 A 
BRANCH  14  16
ATOM     16  C   UNL     1      -9.469  -9.953  18.288  0.00  0.00    +0.080 A 
ATOM     18  C   UNL     1     -10.503  -9.175  17.767  0.00  0.00    +0.132 A 
ATOM     19  C   UNL     1      -9.704 -10.783  19.384  0.00  0.00    +0.017 A 
ATOM     22  C   UNL     1     -11.772  -9.227  18.343  0.00  0.00    +0.046 A 
ATOM     23  C   UNL     1     -10.974 -10.834  19.960  0.00  0.00    +0.001 A 
ATOM     24  C   UNL     1     -12.007 -10.056  19.439  0.00  0.00    +0.004 A 
BRANCH  18   3
ATOM      3  O   UNL     1     -10.301  -8.355  16.697  0.00  0.00    -0.494 OA
ATOM     28  C   UNL     1     -11.359  -7.461  16.359  0.00  0.00    +0.277 C 
ENDBRANCH  18   3
ENDBRANCH  14  16
ENDBRANCH   8  12
BRANCH   5  15
ATOM     15  C   UNL     1      -1.900 -12.036  12.645  0.00  0.00    +0.141 C 
BRANCH  15  17
ATOM     17  C   UNL     1      -2.621 -11.288  11.561  0.00  0.00    -0.030 A 
ATOM     20  C   UNL     1      -3.603 -11.928  10.806  0.00  0.00    +0.005 A 
ATOM     21  C   UNL     1      -2.307  -9.952  11.309  0.00  0.00    +0.005 A 
ATOM     25  C   UNL     1      -4.272 -11.233   9.798  0.00  0.00    +0.000 A 
ATOM     26  C   UNL     1      -2.976  -9.257  10.302  0.00  0.00    +0.000 A 
ATOM     27  C   UNL     1      -3.959  -9.897   9.546  0.00  0.00    +0.000 A 
ENDBRANCH  15  17
ENDBRANCH   5  15
TORSDOF 5
ENDMDL
MODEL 7
REMARK VINA RESULT:      -6.7     26.707     28.667
REMARK  Name = 51137803
REMARK  6 active torsions:
REMARK  status: ('A' for Active; 'I' for Inactive)
REMARK    1  A    between atoms: O_3  and  C_18
REMARK    2  A    between atoms: O_3  and  C_28
REMARK    3  A    between atoms: N_5  and  C_15
REMARK    4  A    between atoms: C_8  and  C_12
REMARK    5  A    between atoms: C_14  and  C_16
REMARK    6  A    between atoms: C_15  and  C_17
REMARK                            x       y       z     vdW  Elec       q    Type
REMARK                         _______ _______ _______ _____ _____    ______ ____
ROOT
ATOM      2  O   UNL     1      -9.343 -12.196  17.782  0.00  0.00    -0.253 OA
ATOM      4  N   UNL     1      -7.288 -11.629  18.662  0.00  0.00    -0.285 N 
ATOM      5  N   UNL     1      -9.176 -10.319  19.111  0.00  0.00    -0.295 N 
ATOM      8  C   UNL     1      -5.087 -12.401  18.202  0.00  0.00    +0.096 C 
ATOM      9  C   UNL     1      -5.080 -11.581  19.501  0.00  0.00    +0.033 C 
ATOM     10  C   UNL     1      -6.575 -12.744  18.052  0.00  0.00    +0.122 C 
ATOM     11  C   UNL     1      -6.385 -10.796  19.451  0.00  0.00    +0.110 C 
ATOM     13  C   UNL     1      -8.655 -11.437  18.469  0.00  0.00    +0.302 C 
ATOM     29  H   UNL     1      -8.563  -9.697  19.625  0.00  0.00    +0.151 HD
ENDROOT
BRANCH   8  12
ATOM      1  O   UNL     1      -5.213 -11.425  15.952  0.00  0.00    -0.420 OA
ATOM      6  N   UNL     1      -3.236 -11.137  16.959  0.00  0.00    -0.112 NA
ATOM      7  N   UNL     1      -3.171 -10.546  15.711  0.00  0.00    -0.107 NA
ATOM     12  C   UNL     1      -4.445 -11.638  17.056  0.00  0.00    +0.222 A 
ATOM     14  C   UNL     1      -4.345 -10.739  15.160  0.00  0.00    +0.252 A 
BRANCH  14  16
ATOM     16  C   UNL     1      -4.847 -10.345  13.875  0.00  0.00    +0.080 A 
ATOM     18  C   UNL     1      -4.047 -10.435  12.736  0.00  0.00    +0.132 A 
ATOM     19  C   UNL     1      -6.153  -9.865  13.774  0.00  0.00    +0.017 A 
ATOM     22  C   UNL     1      -4.552 -10.044  11.496  0.00  0.00    +0.046 A 
ATOM     23  C   UNL     1      -6.659  -9.474  12.534  0.00  0.00    +0.001 A 
ATOM     24  C   UNL     1      -5.858  -9.564  11.395  0.00  0.00    +0.004 A 
BRANCH  18   3
ATOM      3  O   UNL     1      -2.767 -10.900  12.806  0.00  0.00    -0.494 OA
ATOM     28  C   UNL     1      -1.819 -10.320  11.911  0.00  0.00    +0.277 C 
ENDBRANCH  18   3
ENDBRANCH  14  16
ENDBRANCH   8  12
BRANCH   5  15
ATOM     15  C   UNL     1     -10.572  -9.956  19.023  0.00  0.00    +0.141 C 
BRANCH  15  17
ATOM     17  C   UNL     1     -10.838  -9.019  17.881  0.00  0.00    -0.030 A 
ATOM     20  C   UNL     1     -12.100  -8.983  17.288  0.00  0.00    +0.005 A 
ATOM     21  C   UNL     1      -9.823  -8.184  17.413  0.00  0.00    +0.005 A 
ATOM     25  C   UNL     1     -12.347  -8.112  16.226  0.00  0.00    +0.000 A 
ATOM     26  C   UNL     1     -10.071  -7.313  16.353  0.00  0.00    +0.000 A 
ATOM     27  C   UNL     1     -11.333  -7.276  15.759  0.00  0.00    +0.000 A 
ENDBRANCH  15  17
ENDBRANCH   5  15
TORSDOF 5
ENDMDL
MODEL 8
REMARK VINA RESULT:      -6.7     27.710     29.972
REMARK  Name = 51137803
REMARK  6 active torsions:
REMARK  status: ('A' for Active; 'I' for Inactive)
REMARK    1  A    between atoms: O_3  and  C_18
REMARK    2  A    between atoms: O_3  and  C_28
REMARK    3  A    between atoms: N_5  and  C_15
REMARK    4  A    between atoms: C_8  and  C_12
REMARK    5  A    between atoms: C_14  and  C_16
REMARK    6  A    between atoms: C_15  and  C_17
REMARK                            x       y       z     vdW  Elec       q    Type
REMARK                         _______ _______ _______ _____ _____    ______ ____
ROOT
ATOM      2  O   UNL     1     -13.650  -7.113  13.215  0.00  0.00    -0.253 OA
ATOM      4  N   UNL     1     -12.097  -6.781  14.887  0.00  0.00    -0.285 N 
ATOM      5  N   UNL     1     -12.436  -5.153  13.240  0.00  0.00    -0.295 N 
ATOM      8  C   UNL     1     -11.158  -8.247  16.507  0.00  0.00    +0.096 C 
ATOM      9  C   UNL     1     -10.820  -6.794  16.875  0.00  0.00    +0.033 C 
ATOM     10  C   UNL     1     -12.334  -8.063  15.540  0.00  0.00    +0.122 C 
ATOM     11  C   UNL     1     -11.067  -6.018  15.588  0.00  0.00    +0.110 C 
ATOM     13  C   UNL     1     -12.792  -6.399  13.742  0.00  0.00    +0.302 C 
ATOM     29  H   UNL     1     -11.691  -4.623  13.678  0.00  0.00    +0.151 HD
ENDROOT
BRANCH   8  12
ATOM      1  O   UNL     1      -8.943  -9.251  16.854  0.00  0.00    -0.420 OA
ATOM      6  N   UNL     1      -9.698  -9.417  14.755  0.00  0.00    -0.112 NA
ATOM      7  N   UNL     1      -8.454 -10.017  14.810  0.00  0.00    -0.107 NA
ATOM     12  C   UNL     1      -9.943  -8.985  15.969  0.00  0.00    +0.222 A 
ATOM     14  C   UNL     1      -8.051  -9.895  16.053  0.00  0.00    +0.252 A 
BRANCH  14  16
ATOM     16  C   UNL     1      -6.840 -10.330  16.687  0.00  0.00    +0.080 A 
ATOM     18  C   UNL     1      -6.867 -11.289  17.700  0.00  0.00    +0.132 A 
ATOM     19  C   UNL     1      -5.625  -9.781  16.279  0.00  0.00    +0.017 A 
ATOM     22  C   UNL     1      -5.679 -11.698  18.305  0.00  0.00    +0.046 A 
ATOM     23  C   UNL     1      -4.436 -10.189  16.884  0.00  0.00    +0.001 A 
ATOM     24  C   UNL     1      -4.464 -11.148  17.897  0.00  0.00    +0.004 A 
BRANCH  18   3
ATOM      3  O   UNL     1      -8.041 -11.843  18.119  0.00  0.00    -0.494 OA
ATOM     28  C   UNL     1      -8.252 -11.923  19.527  0.00  0.00    +0.277 C 
ENDBRANCH  18   3
ENDBRANCH  14  16
ENDBRANCH   8  12
BRANCH   5  15
ATOM     15  C   UNL     1     -13.046  -4.591  12.057  0.00  0.00    +0.141 C 
BRANCH  15  17
ATOM     17  C   UNL     1     -12.144  -4.686  10.860  0.00  0.00    -0.030 A 
ATOM     20  C   UNL     1     -11.633  -3.527  10.277  0.00  0.00    +0.005 A 
ATOM     21  C   UNL     1     -11.817  -5.935  10.332  0.00  0.00    +0.005 A 
ATOM     25  C   UNL     1     -10.796  -3.616   9.165  0.00  0.00    +0.000 A 
ATOM     26  C   UNL     1     -10.979  -6.024   9.220  0.00  0.00    +0.000 A 
ATOM     27  C   UNL     1     -10.468  -4.864   8.636  0.00  0.00    +0.000 A 
ENDBRANCH  15  17
ENDBRANCH   5  15
TORSDOF 5
ENDMDL
MODEL 9
REMARK VINA RESULT:      -6.5     26.898     28.545
REMARK  Name = 51137803
REMARK  6 active torsions:
REMARK  status: ('A' for Active; 'I' for Inactive)
REMARK    1  A    between atoms: O_3  and  C_18
REMARK    2  A    between atoms: O_3  and  C_28
REMARK    3  A    between atoms: N_5  and  C_15
REMARK    4  A    between atoms: C_8  and  C_12
REMARK    5  A    between atoms: C_14  and  C_16
REMARK    6  A    between atoms: C_15  and  C_17
REMARK                            x       y       z     vdW  Elec       q    Type
REMARK                         _______ _______ _______ _____ _____    ______ ____
ROOT
ATOM      2  O   UNL     1      -8.008 -11.271  15.328  0.00  0.00    -0.253 OA
ATOM      4  N   UNL     1      -5.858 -10.785  16.007  0.00  0.00    -0.285 N 
ATOM      5  N   UNL     1      -7.610  -9.301  16.459  0.00  0.00    -0.295 N 
ATOM      8  C   UNL     1      -3.756 -11.761  15.473  0.00  0.00    +0.096 C 
ATOM      9  C   UNL     1      -3.595 -10.831  16.685  0.00  0.00    +0.033 C 
ATOM     10  C   UNL     1      -5.271 -12.002  15.459  0.00  0.00    +0.122 C 
ATOM     11  C   UNL     1      -4.842  -9.956  16.650  0.00  0.00    +0.110 C 
ATOM     13  C   UNL     1      -7.219 -10.508  15.892  0.00  0.00    +0.302 C 
ATOM     29  H   UNL     1      -6.919  -8.684  16.868  0.00  0.00    +0.151 HD
ENDROOT
BRANCH   8  12
ATOM      1  O   UNL     1      -3.944 -11.112  13.112  0.00  0.00    -0.420 OA
ATOM      6  N   UNL     1      -1.954 -10.653  14.026  0.00  0.00    -0.112 NA
ATOM      7  N   UNL     1      -1.924 -10.241  12.707  0.00  0.00    -0.107 NA
ATOM     12  C   UNL     1      -3.151 -11.155  14.218  0.00  0.00    +0.222 A 
ATOM     14  C   UNL     1      -3.105 -10.529  12.213  0.00  0.00    +0.252 A 
BRANCH  14  16
ATOM     16  C   UNL     1      -3.639 -10.326  10.898  0.00  0.00    +0.080 A 
ATOM     18  C   UNL     1      -3.849 -11.403  10.036  0.00  0.00    +0.132 A 
ATOM     19  C   UNL     1      -3.948  -9.030  10.482  0.00  0.00    +0.017 A 
ATOM     22  C   UNL     1      -4.366 -11.185   8.760  0.00  0.00    +0.046 A 
ATOM     23  C   UNL     1      -4.466  -8.812   9.205  0.00  0.00    +0.001 A 
ATOM     24  C   UNL     1      -4.675  -9.889   8.344  0.00  0.00    +0.004 A 
BRANCH  18   3
ATOM      3  O   UNL     1      -3.555 -12.679  10.416  0.00  0.00    -0.494 OA
ATOM     28  C   UNL     1      -4.623 -13.624  10.388  0.00  0.00    +0.277 C 
ENDBRANCH  18   3
ENDBRANCH  14  16
ENDBRANCH   8  12
BRANCH   5  15
ATOM     15  C   UNL     1      -8.981  -8.842  16.433  0.00  0.00    +0.141 C 
BRANCH  15  17
ATOM     17  C   UNL     1      -9.773  -9.372  17.593  0.00  0.00    -0.030 A 
ATOM     20  C   UNL     1      -9.157 -10.183  18.546  0.00  0.00    +0.005 A 
ATOM     21  C   UNL     1     -11.125  -9.053  17.717  0.00  0.00    +0.005 A 
ATOM     25  C   UNL     1      -9.894 -10.675  19.623  0.00  0.00    +0.000 A 
ATOM     26  C   UNL     1     -11.862  -9.545  18.794  0.00  0.00    +0.000 A 
ATOM     27  C   UNL     1     -11.246 -10.356  19.748  0.00  0.00    +0.000 A 
ENDBRANCH  15  17
ENDBRANCH   5  15
TORSDOF 5
ENDMDL
MODEL 10
REMARK VINA RESULT:      -6.5     28.890     31.366
REMARK  Name = 51137803
REMARK  6 active torsions:
REMARK  status: ('A' for Active; 'I' for Inactive)
REMARK    1  A    between atoms: O_3  and  C_18
REMARK    2  A    between atoms: O_3  and  C_28
REMARK    3  A    between atoms: N_5  and  C_15
REMARK    4  A    between atoms: C_8  and  C_12
REMARK    5  A    between atoms: C_14  and  C_16
REMARK    6  A    between atoms: C_15  and  C_17
REMARK                            x       y       z     vdW  Elec       q    Type
REMARK                         _______ _______ _______ _____ _____    ______ ____
ROOT
ATOM      2  O   UNL     1      -7.930  -7.031  39.221  0.00  0.00    -0.253 OA
ATOM      4  N   UNL     1      -6.280  -7.121  40.830  0.00  0.00    -0.285 N 
ATOM      5  N   UNL     1      -8.321  -6.064  41.278  0.00  0.00    -0.295 N 
ATOM      8  C   UNL     1      -3.984  -7.728  40.730  0.00  0.00    +0.096 C 
ATOM      9  C   UNL     1      -4.429  -7.653  42.199  0.00  0.00    +0.033 C 
ATOM     10  C   UNL     1      -5.326  -7.843  39.998  0.00  0.00    +0.122 C 
ATOM     11  C   UNL     1      -5.723  -6.850  42.153  0.00  0.00    +0.110 C 
ATOM     13  C   UNL     1      -7.541  -6.760  40.360  0.00  0.00    +0.302 C 
ATOM     29  H   UNL     1      -7.941  -5.821  42.185  0.00  0.00    +0.151 HD
ENDROOT
BRANCH   8  12
ATOM      1  O   UNL     1      -2.114  -6.215  41.228  0.00  0.00    -0.420 OA
ATOM      6  N   UNL     1      -3.139  -5.786  39.287  0.00  0.00    -0.112 NA
ATOM      7  N   UNL     1      -2.115  -4.869  39.442  0.00  0.00    -0.107 NA
ATOM     12  C   UNL     1      -3.101  -6.551  40.352  0.00  0.00    +0.222 A 
ATOM     14  C   UNL     1      -1.546  -5.157  40.589  0.00  0.00    +0.252 A 
BRANCH  14  16
ATOM     16  C   UNL     1      -0.437  -4.542  41.258  0.00  0.00    +0.080 A 
ATOM     18  C   UNL     1      -0.574  -3.297  41.873  0.00  0.00    +0.132 A 
ATOM     19  C   UNL     1       0.791  -5.203  41.288  0.00  0.00    +0.017 A 
ATOM     22  C   UNL     1       0.517  -2.713  42.516  0.00  0.00    +0.046 A 
ATOM     23  C   UNL     1       1.882  -4.619  41.932  0.00  0.00    +0.001 A 
ATOM     24  C   UNL     1       1.745  -3.375  42.546  0.00  0.00    +0.004 A 
BRANCH  18   3
ATOM      3  O   UNL     1      -1.762  -2.628  41.858  0.00  0.00    -0.494 OA
ATOM     28  C   UNL     1      -2.440  -2.488  43.105  0.00  0.00    +0.277 C 
ENDBRANCH  18   3
ENDBRANCH  14  16
ENDBRANCH   8  12
BRANCH   5  15
ATOM     15  C   UNL     1      -9.655  -5.604  40.968  0.00  0.00    +0.141 C 
BRANCH  15  17
ATOM     17  C   UNL     1      -9.660  -4.184  40.479  0.00  0.00    -0.030 A 
ATOM     20  C   UNL     1      -8.923  -3.211  41.153  0.00  0.00    +0.005 A 
ATOM     21  C   UNL     1     -10.403  -3.839  39.350  0.00  0.00    +0.005 A 
ATOM     25  C   UNL     1      -8.928  -1.893  40.699  0.00  0.00    +0.000 A 
ATOM     26  C   UNL     1     -10.408  -2.520  38.895  0.00  0.00    +0.000 A 
ATOM     27  C   UNL     1      -9.670  -1.546  39.569  0.00  0.00    +0.000 A 
ENDBRANCH  15  17
ENDBRANCH   5  15
TORSDOF 5
ENDMDL
