MODEL 1
REMARK VINA RESULT:      -8.0      0.000      0.000
REMARK  Name = 26744752
REMARK  4 active torsions:
REMARK  status: ('A' for Active; 'I' for Inactive)
REMARK    1  A    between atoms: N_2  and  C_12
REMARK    2  A    between atoms: C_7  and  C_13
REMARK    3  A    between atoms: C_12  and  C_14
REMARK    4  A    between atoms: C_18  and  C_21
REMARK                            x       y       z     vdW  Elec       q    Type
REMARK                         _______ _______ _______ _____ _____    ______ ____
ROOT
ATOM      2  N   UNL     1      13.813   7.539  19.054  0.00  0.00    -0.281 NA
ATOM      3  N   UNL     1      10.773   7.981  16.948  0.00  0.00    -0.347 N 
ATOM      4  N   UNL     1      11.947   9.617  15.976  0.00  0.00    -0.240 NA
ATOM      7  C   UNL     1      14.300   8.946  18.928  0.00  0.00    +0.152 C 
ATOM      8  C   UNL     1      13.962   9.554  17.519  0.00  0.00    +0.086 C 
ATOM      9  C   UNL     1      12.360   7.351  18.857  0.00  0.00    +0.140 C 
ATOM     10  C   UNL     1      11.929   8.101  17.658  0.00  0.00    +0.053 A 
ATOM     11  C   UNL     1      12.628   9.112  17.047  0.00  0.00    +0.065 A 
ATOM     15  C   UNL     1      10.831   8.915  15.943  0.00  0.00    +0.197 A 
ATOM     28  H   UNL     1      10.015   7.334  17.125  0.00  0.00    +0.167 HD
ENDROOT
BRANCH   7  13
ATOM      1  O   UNL     1      14.939  10.224  20.928  0.00  0.00    -0.336 OA
ATOM      5  N   UNL     1      12.768  10.387  20.401  0.00  0.00    -0.190 NA
ATOM      6  N   UNL     1      14.365  11.061  21.894  0.00  0.00    -0.056 NA
ATOM     13  C   UNL     1      13.930   9.873  20.088  0.00  0.00    +0.245 A 
ATOM     18  C   UNL     1      13.085  11.109  21.515  0.00  0.00    +0.202 A 
BRANCH  18  21
ATOM     21  C   UNL     1      12.097  11.869  22.227  0.00  0.00    +0.022 A 
ATOM     23  C   UNL     1      11.779  11.538  23.544  0.00  0.00    +0.012 A 
ATOM     24  C   UNL     1      11.456  12.938  21.602  0.00  0.00    +0.012 A 
ATOM     25  C   UNL     1      10.819  12.275  24.236  0.00  0.00    +0.001 A 
ATOM     26  C   UNL     1      10.496  13.676  22.294  0.00  0.00    +0.001 A 
ATOM     27  C   UNL     1      10.177  13.345  23.610  0.00  0.00    +0.000 A 
ENDBRANCH  18  21
ENDBRANCH   7  13
BRANCH   2  12
ATOM     12  C   UNL     1      14.283   6.850  20.251  0.00  0.00    +0.120 C 
BRANCH  12  14
ATOM     14  C   UNL     1      15.765   6.595  20.206  0.00  0.00    -0.033 A 
ATOM     16  C   UNL     1      16.564   6.924  21.301  0.00  0.00    +0.005 A 
ATOM     17  C   UNL     1      16.341   6.030  19.067  0.00  0.00    +0.005 A 
ATOM     19  C   UNL     1      17.938   6.687  21.259  0.00  0.00    +0.000 A 
ATOM     20  C   UNL     1      17.715   5.793  19.026  0.00  0.00    +0.000 A 
ATOM     22  C   UNL     1      18.513   6.122  20.122  0.00  0.00    +0.000 A 
ENDBRANCH  12  14
ENDBRANCH   2  12
TORSDOF 4
ENDMDL
MODEL 2
REMARK VINA RESULT:      -7.4      1.280      6.786
REMARK  Name = 26744752
REMARK  4 active torsions:
REMARK  status: ('A' for Active; 'I' for Inactive)
REMARK    1  A    between atoms: N_2  and  C_12
REMARK    2  A    between atoms: C_7  and  C_13
REMARK    3  A    between atoms: C_12  and  C_14
REMARK    4  A    between atoms: C_18  and  C_21
REMARK                            x       y       z     vdW  Elec       q    Type
REMARK                         _______ _______ _______ _____ _____    ______ ____
ROOT
ATOM      2  N   UNL     1      12.784  10.877  19.842  0.00  0.00    -0.281 NA
ATOM      3  N   UNL     1      13.116  10.356  16.170  0.00  0.00    -0.347 N 
ATOM      4  N   UNL     1      11.776   8.599  16.516  0.00  0.00    -0.240 NA
ATOM      7  C   UNL     1      12.509   9.448  20.183  0.00  0.00    +0.152 C 
ATOM      8  C   UNL     1      11.691   8.729  19.050  0.00  0.00    +0.086 C 
ATOM      9  C   UNL     1      13.531  11.097  18.586  0.00  0.00    +0.140 C 
ATOM     10  C   UNL     1      12.946  10.259  17.518  0.00  0.00    +0.053 A 
ATOM     11  C   UNL     1      12.127   9.173  17.705  0.00  0.00    +0.065 A 
ATOM     15  C   UNL     1      12.389   9.334  15.609  0.00  0.00    +0.197 A 
ATOM     28  H   UNL     1      13.670  11.042  15.674  0.00  0.00    +0.167 HD
ENDROOT
BRANCH   7  13
ATOM      1  O   UNL     1      13.745   8.295  21.967  0.00  0.00    -0.336 OA
ATOM      5  N   UNL     1      14.760   8.231  19.972  0.00  0.00    -0.190 NA
ATOM      6  N   UNL     1      14.932   7.577  22.157  0.00  0.00    -0.056 NA
ATOM     13  C   UNL     1      13.722   8.643  20.653  0.00  0.00    +0.245 A 
ATOM     18  C   UNL     1      15.475   7.581  20.936  0.00  0.00    +0.202 A 
BRANCH  18  21
ATOM     21  C   UNL     1      16.728   6.947  20.646  0.00  0.00    +0.022 A 
ATOM     23  C   UNL     1      16.858   6.145  19.512  0.00  0.00    +0.012 A 
ATOM     24  C   UNL     1      17.818   7.131  21.498  0.00  0.00    +0.012 A 
ATOM     25  C   UNL     1      18.076   5.528  19.229  0.00  0.00    +0.001 A 
ATOM     26  C   UNL     1      19.035   6.513  21.215  0.00  0.00    +0.001 A 
ATOM     27  C   UNL     1      19.165   5.712  20.082  0.00  0.00    +0.000 A 
ENDBRANCH  18  21
ENDBRANCH   7  13
BRANCH   2  12
ATOM     12  C   UNL     1      13.348  11.653  20.941  0.00  0.00    +0.120 C 
BRANCH  12  14
ATOM     14  C   UNL     1      12.279  12.208  21.843  0.00  0.00    -0.033 A 
ATOM     16  C   UNL     1      12.126  11.705  23.136  0.00  0.00    +0.005 A 
ATOM     17  C   UNL     1      11.439  13.224  21.387  0.00  0.00    +0.005 A 
ATOM     19  C   UNL     1      11.135  12.219  23.972  0.00  0.00    +0.000 A 
ATOM     20  C   UNL     1      10.448  13.738  22.224  0.00  0.00    +0.000 A 
ATOM     22  C   UNL     1      10.296  13.235  23.516  0.00  0.00    +0.000 A 
ENDBRANCH  12  14
ENDBRANCH   2  12
TORSDOF 4
ENDMDL
MODEL 3
REMARK VINA RESULT:      -7.3      1.729      6.850
REMARK  Name = 26744752
REMARK  4 active torsions:
REMARK  status: ('A' for Active; 'I' for Inactive)
REMARK    1  A    between atoms: N_2  and  C_12
REMARK    2  A    between atoms: C_7  and  C_13
REMARK    3  A    between atoms: C_12  and  C_14
REMARK    4  A    between atoms: C_18  and  C_21
REMARK                            x       y       z     vdW  Elec       q    Type
REMARK                         _______ _______ _______ _____ _____    ______ ____
ROOT
ATOM      2  N   UNL     1      13.318   9.106  20.583  0.00  0.00    -0.281 NA
ATOM      3  N   UNL     1      12.328   9.809  17.062  0.00  0.00    -0.347 N 
ATOM      4  N   UNL     1      11.556   7.710  17.088  0.00  0.00    -0.240 NA
ATOM      7  C   UNL     1      13.453   7.627  20.419  0.00  0.00    +0.152 C 
ATOM      8  C   UNL     1      12.411   7.060  19.389  0.00  0.00    +0.086 C 
ATOM      9  C   UNL     1      13.484   9.899  19.346  0.00  0.00    +0.140 C 
ATOM     10  C   UNL     1      12.699   9.275  18.259  0.00  0.00    +0.053 A 
ATOM     11  C   UNL     1      12.220   7.988  18.249  0.00  0.00    +0.065 A 
ATOM     15  C   UNL     1      11.640   8.827  16.392  0.00  0.00    +0.197 A 
ATOM     28  H   UNL     1      12.522  10.743  16.727  0.00  0.00    +0.167 HD
ENDROOT
BRANCH   7  13
ATOM      1  O   UNL     1      15.106   6.510  18.985  0.00  0.00    -0.336 OA
ATOM      5  N   UNL     1      15.926   7.192  20.954  0.00  0.00    -0.190 NA
ATOM      6  N   UNL     1      16.458   6.141  18.993  0.00  0.00    -0.056 NA
ATOM     13  C   UNL     1      14.876   7.123  20.176  0.00  0.00    +0.245 A 
ATOM     18  C   UNL     1      16.872   6.577  20.186  0.00  0.00    +0.202 A 
BRANCH  18  21
ATOM     21  C   UNL     1      18.223   6.416  20.640  0.00  0.00    +0.022 A 
ATOM     23  C   UNL     1      19.040   5.441  20.068  0.00  0.00    +0.012 A 
ATOM     24  C   UNL     1      18.721   7.235  21.654  0.00  0.00    +0.012 A 
ATOM     25  C   UNL     1      20.353   5.283  20.509  0.00  0.00    +0.001 A 
ATOM     26  C   UNL     1      20.034   7.077  22.095  0.00  0.00    +0.001 A 
ATOM     27  C   UNL     1      20.850   6.102  21.524  0.00  0.00    +0.000 A 
ENDBRANCH  18  21
ENDBRANCH   7  13
BRANCH   2  12
ATOM     12  C   UNL     1      14.106   9.658  21.680  0.00  0.00    +0.120 C 
BRANCH  12  14
ATOM     14  C   UNL     1      13.248  10.400  22.669  0.00  0.00    -0.033 A 
ATOM     16  C   UNL     1      11.870  10.182  22.700  0.00  0.00    +0.005 A 
ATOM     17  C   UNL     1      13.830  11.308  23.554  0.00  0.00    +0.005 A 
ATOM     19  C   UNL     1      11.076  10.869  23.617  0.00  0.00    +0.000 A 
ATOM     20  C   UNL     1      13.034  11.996  24.471  0.00  0.00    +0.000 A 
ATOM     22  C   UNL     1      11.657  11.776  24.502  0.00  0.00    +0.000 A 
ENDBRANCH  12  14
ENDBRANCH   2  12
TORSDOF 4
ENDMDL
MODEL 4
REMARK VINA RESULT:      -7.1      2.917      5.107
REMARK  Name = 26744752
REMARK  4 active torsions:
REMARK  status: ('A' for Active; 'I' for Inactive)
REMARK    1  A    between atoms: N_2  and  C_12
REMARK    2  A    between atoms: C_7  and  C_13
REMARK    3  A    between atoms: C_12  and  C_14
REMARK    4  A    between atoms: C_18  and  C_21
REMARK                            x       y       z     vdW  Elec       q    Type
REMARK                         _______ _______ _______ _____ _____    ______ ____
ROOT
ATOM      2  N   UNL     1      14.878   8.011  20.734  0.00  0.00    -0.281 NA
ATOM      3  N   UNL     1      11.731   8.788  22.567  0.00  0.00    -0.347 N 
ATOM      4  N   UNL     1      10.918   7.006  21.489  0.00  0.00    -0.240 NA
ATOM      7  C   UNL     1      14.225   7.328  19.576  0.00  0.00    +0.152 C 
ATOM      8  C   UNL     1      12.934   6.548  20.016  0.00  0.00    +0.086 C 
ATOM      9  C   UNL     1      14.031   8.982  21.458  0.00  0.00    +0.140 C 
ATOM     10  C   UNL     1      12.702   8.383  21.702  0.00  0.00    +0.053 A 
ATOM     11  C   UNL     1      12.178   7.295  21.050  0.00  0.00    +0.065 A 
ATOM     15  C   UNL     1      10.675   7.925  22.403  0.00  0.00    +0.197 A 
ATOM     28  H   UNL     1      11.774   9.572  23.206  0.00  0.00    +0.167 HD
ENDROOT
BRANCH   7  13
ATOM      1  O   UNL     1      13.463   7.592  17.255  0.00  0.00    -0.336 OA
ATOM      5  N   UNL     1      14.273   9.471  18.163  0.00  0.00    -0.190 NA
ATOM      6  N   UNL     1      13.364   8.578  16.264  0.00  0.00    -0.056 NA
ATOM     13  C   UNL     1      14.008   8.202  18.340  0.00  0.00    +0.245 A 
ATOM     18  C   UNL     1      13.861   9.657  16.875  0.00  0.00    +0.202 A 
BRANCH  18  21
ATOM     21  C   UNL     1      13.959  10.933  16.229  0.00  0.00    +0.022 A 
ATOM     23  C   UNL     1      13.692  11.047  14.864  0.00  0.00    +0.012 A 
ATOM     24  C   UNL     1      14.320  12.062  16.965  0.00  0.00    +0.012 A 
ATOM     25  C   UNL     1      13.787  12.287  14.235  0.00  0.00    +0.001 A 
ATOM     26  C   UNL     1      14.415  13.303  16.336  0.00  0.00    +0.001 A 
ATOM     27  C   UNL     1      14.149  13.416  14.972  0.00  0.00    +0.000 A 
ENDBRANCH  18  21
ENDBRANCH   7  13
BRANCH   2  12
ATOM     12  C   UNL     1      16.192   8.569  20.433  0.00  0.00    +0.120 C 
BRANCH  12  14
ATOM     14  C   UNL     1      17.268   7.517  20.455  0.00  0.00    -0.033 A 
ATOM     16  C   UNL     1      18.286   7.579  21.407  0.00  0.00    +0.005 A 
ATOM     17  C   UNL     1      17.247   6.478  19.523  0.00  0.00    +0.005 A 
ATOM     19  C   UNL     1      19.282   6.603  21.428  0.00  0.00    +0.000 A 
ATOM     20  C   UNL     1      18.244   5.503  19.544  0.00  0.00    +0.000 A 
ATOM     22  C   UNL     1      19.261   5.566  20.497  0.00  0.00    +0.000 A 
ENDBRANCH  12  14
ENDBRANCH   2  12
TORSDOF 4
ENDMDL
MODEL 5
REMARK VINA RESULT:      -6.8      1.964      6.126
REMARK  Name = 26744752
REMARK  4 active torsions:
REMARK  status: ('A' for Active; 'I' for Inactive)
REMARK    1  A    between atoms: N_2  and  C_12
REMARK    2  A    between atoms: C_7  and  C_13
REMARK    3  A    between atoms: C_12  and  C_14
REMARK    4  A    between atoms: C_18  and  C_21
REMARK                            x       y       z     vdW  Elec       q    Type
REMARK                         _______ _______ _______ _____ _____    ______ ____
ROOT
ATOM      2  N   UNL     1      12.241   8.919  18.946  0.00  0.00    -0.281 NA
ATOM      3  N   UNL     1      13.875  11.344  16.640  0.00  0.00    -0.347 N 
ATOM      4  N   UNL     1      14.228   9.551  15.351  0.00  0.00    -0.240 NA
ATOM      7  C   UNL     1      13.018   7.724  18.497  0.00  0.00    +0.152 C 
ATOM      8  C   UNL     1      13.358   7.795  16.965  0.00  0.00    +0.086 C 
ATOM      9  C   UNL     1      12.902  10.223  18.727  0.00  0.00    +0.140 C 
ATOM     10  C   UNL     1      13.456  10.265  17.356  0.00  0.00    +0.053 A 
ATOM     11  C   UNL     1      13.688   9.179  16.549  0.00  0.00    +0.065 A 
ATOM     15  C   UNL     1      14.331  10.863  15.437  0.00  0.00    +0.197 A 
ATOM     28  H   UNL     1      13.859  12.313  16.933  0.00  0.00    +0.167 HD
ENDROOT
BRANCH   7  13
ATOM      1  O   UNL     1      13.996   6.500  20.390  0.00  0.00    -0.336 OA
ATOM      5  N   UNL     1      15.465   7.768  19.273  0.00  0.00    -0.190 NA
ATOM      6  N   UNL     1      15.229   6.326  21.033  0.00  0.00    -0.056 NA
ATOM     13  C   UNL     1      14.224   7.364  19.366  0.00  0.00    +0.245 A 
ATOM     18  C   UNL     1      16.044   7.105  20.316  0.00  0.00    +0.202 A 
BRANCH  18  21
ATOM     21  C   UNL     1      17.440   7.242  20.614  0.00  0.00    +0.022 A 
ATOM     23  C   UNL     1      18.336   6.242  20.235  0.00  0.00    +0.012 A 
ATOM     24  C   UNL     1      17.904   8.376  21.282  0.00  0.00    +0.012 A 
ATOM     25  C   UNL     1      19.693   6.374  20.525  0.00  0.00    +0.001 A 
ATOM     26  C   UNL     1      19.261   8.508  21.571  0.00  0.00    +0.001 A 
ATOM     27  C   UNL     1      20.156   7.508  21.193  0.00  0.00    +0.000 A 
ENDBRANCH  18  21
ENDBRANCH   7  13
BRANCH   2  12
ATOM     12  C   UNL     1      11.711   8.811  20.301  0.00  0.00    +0.120 C 
BRANCH  12  14
ATOM     14  C   UNL     1      12.277   9.867  21.211  0.00  0.00    -0.033 A 
ATOM     16  C   UNL     1      13.532   9.688  21.793  0.00  0.00    +0.005 A 
ATOM     17  C   UNL     1      11.546  11.027  21.473  0.00  0.00    +0.005 A 
ATOM     19  C   UNL     1      14.056  10.667  22.637  0.00  0.00    +0.000 A 
ATOM     20  C   UNL     1      12.071  12.006  22.316  0.00  0.00    +0.000 A 
ATOM     22  C   UNL     1      13.326  11.826  22.898  0.00  0.00    +0.000 A 
ENDBRANCH  12  14
ENDBRANCH   2  12
TORSDOF 4
ENDMDL
MODEL 6
REMARK VINA RESULT:      -6.5     26.463     28.158
REMARK  Name = 26744752
REMARK  4 active torsions:
REMARK  status: ('A' for Active; 'I' for Inactive)
REMARK    1  A    between atoms: N_2  and  C_12
REMARK    2  A    between atoms: C_7  and  C_13
REMARK    3  A    between atoms: C_12  and  C_14
REMARK    4  A    between atoms: C_18  and  C_21
REMARK                            x       y       z     vdW  Elec       q    Type
REMARK                         _______ _______ _______ _____ _____    ______ ____
ROOT
ATOM      2  N   UNL     1      -2.784 -12.753  12.070  0.00  0.00    -0.281 NA
ATOM      3  N   UNL     1      -4.695 -10.403   9.903  0.00  0.00    -0.347 N 
ATOM      4  N   UNL     1      -2.948  -9.042  10.209  0.00  0.00    -0.240 NA
ATOM      7  C   UNL     1      -2.016 -11.703  12.806  0.00  0.00    +0.152 C 
ATOM      8  C   UNL     1      -1.690 -10.472  11.887  0.00  0.00    +0.086 C 
ATOM      9  C   UNL     1      -4.072 -12.311  11.495  0.00  0.00    +0.140 C 
ATOM     10  C   UNL     1      -3.878 -11.018  10.802  0.00  0.00    +0.053 A 
ATOM     11  C   UNL     1      -2.819 -10.163  10.978  0.00  0.00    +0.065 A 
ATOM     15  C   UNL     1      -4.090  -9.215   9.573  0.00  0.00    +0.197 A 
ATOM     28  H   UNL     1      -5.577 -10.749   9.547  0.00  0.00    +0.167 HD
ENDROOT
BRANCH   7  13
ATOM      1  O   UNL     1      -1.697 -11.099  15.167  0.00  0.00    -0.336 OA
ATOM      5  N   UNL     1      -3.840 -11.127  14.519  0.00  0.00    -0.190 NA
ATOM      6  N   UNL     1      -2.450 -10.750  16.295  0.00  0.00    -0.056 NA
ATOM     13  C   UNL     1      -2.593 -11.304  14.166  0.00  0.00    +0.245 A 
ATOM     18  C   UNL     1      -3.703 -10.788  15.834  0.00  0.00    +0.202 A 
BRANCH  18  21
ATOM     21  C   UNL     1      -4.838 -10.492  16.659  0.00  0.00    +0.022 A 
ATOM     23  C   UNL     1      -5.910  -9.767  16.136  0.00  0.00    +0.012 A 
ATOM     24  C   UNL     1      -4.873 -10.929  17.983  0.00  0.00    +0.012 A 
ATOM     25  C   UNL     1      -7.014  -9.479  16.937  0.00  0.00    +0.001 A 
ATOM     26  C   UNL     1      -5.977 -10.641  18.784  0.00  0.00    +0.001 A 
ATOM     27  C   UNL     1      -7.047  -9.916  18.262  0.00  0.00    +0.000 A 
ENDBRANCH  18  21
ENDBRANCH   7  13
BRANCH   2  12
ATOM     12  C   UNL     1      -2.929 -14.007  12.801  0.00  0.00    +0.120 C 
BRANCH  12  14
ATOM     14  C   UNL     1      -2.325 -15.165  12.053  0.00  0.00    -0.033 A 
ATOM     16  C   UNL     1      -1.144 -15.751  12.509  0.00  0.00    +0.005 A 
ATOM     17  C   UNL     1      -2.947 -15.653  10.903  0.00  0.00    +0.005 A 
ATOM     19  C   UNL     1      -0.584 -16.824  11.815  0.00  0.00    +0.000 A 
ATOM     20  C   UNL     1      -2.387 -16.727  10.210  0.00  0.00    +0.000 A 
ATOM     22  C   UNL     1      -1.206 -17.312  10.667  0.00  0.00    +0.000 A 
ENDBRANCH  12  14
ENDBRANCH   2  12
TORSDOF 4
ENDMDL
MODEL 7
REMARK VINA RESULT:      -6.5     26.801     28.778
REMARK  Name = 26744752
REMARK  4 active torsions:
REMARK  status: ('A' for Active; 'I' for Inactive)
REMARK    1  A    between atoms: N_2  and  C_12
REMARK    2  A    between atoms: C_7  and  C_13
REMARK    3  A    between atoms: C_12  and  C_14
REMARK    4  A    between atoms: C_18  and  C_21
REMARK                            x       y       z     vdW  Elec       q    Type
REMARK                         _______ _______ _______ _____ _____    ______ ____
ROOT
ATOM      2  N   UNL     1      -2.944 -12.022  15.019  0.00  0.00    -0.281 NA
ATOM      3  N   UNL     1      -4.050 -15.503  14.288  0.00  0.00    -0.347 N 
ATOM      4  N   UNL     1      -1.963 -15.776  13.532  0.00  0.00    -0.240 NA
ATOM      7  C   UNL     1      -1.881 -11.968  13.970  0.00  0.00    +0.152 C 
ATOM      8  C   UNL     1      -1.197 -13.367  13.765  0.00  0.00    +0.086 C 
ATOM      9  C   UNL     1      -4.036 -12.987  14.767  0.00  0.00    +0.140 C 
ATOM     10  C   UNL     1      -3.456 -14.278  14.339  0.00  0.00    +0.053 A 
ATOM     11  C   UNL     1      -2.182 -14.470  13.866  0.00  0.00    +0.065 A 
ATOM     15  C   UNL     1      -3.109 -16.374  13.796  0.00  0.00    +0.197 A 
ATOM     28  H   UNL     1      -4.999 -15.730  14.555  0.00  0.00    +0.167 HD
ENDROOT
BRANCH   7  13
ATOM      1  O   UNL     1      -1.651 -10.146  12.337  0.00  0.00    -0.336 OA
ATOM      5  N   UNL     1      -3.185 -11.679  11.777  0.00  0.00    -0.190 NA
ATOM      6  N   UNL     1      -2.190  -9.730  11.112  0.00  0.00    -0.056 NA
ATOM     13  C   UNL     1      -2.293 -11.301  12.656  0.00  0.00    +0.245 A 
ATOM     18  C   UNL     1      -3.086 -10.684  10.847  0.00  0.00    +0.202 A 
BRANCH  18  21
ATOM     21  C   UNL     1      -3.896 -10.675   9.664  0.00  0.00    +0.022 A 
ATOM     23  C   UNL     1      -4.201 -11.874   9.018  0.00  0.00    +0.012 A 
ATOM     24  C   UNL     1      -4.381  -9.469   9.159  0.00  0.00    +0.012 A 
ATOM     25  C   UNL     1      -4.989 -11.866   7.867  0.00  0.00    +0.001 A 
ATOM     26  C   UNL     1      -5.169  -9.461   8.009  0.00  0.00    +0.001 A 
ATOM     27  C   UNL     1      -5.473 -10.658   7.363  0.00  0.00    +0.000 A 
ENDBRANCH  18  21
ENDBRANCH   7  13
BRANCH   2  12
ATOM     12  C   UNL     1      -3.466 -10.716  15.407  0.00  0.00    +0.120 C 
BRANCH  12  14
ATOM     14  C   UNL     1      -4.310 -10.796  16.650  0.00  0.00    -0.033 A 
ATOM     16  C   UNL     1      -5.579 -10.214  16.671  0.00  0.00    +0.005 A 
ATOM     17  C   UNL     1      -3.825 -11.451  17.782  0.00  0.00    +0.005 A 
ATOM     19  C   UNL     1      -6.361 -10.288  17.823  0.00  0.00    +0.000 A 
ATOM     20  C   UNL     1      -4.608 -11.524  18.934  0.00  0.00    +0.000 A 
ATOM     22  C   UNL     1      -5.876 -10.943  18.954  0.00  0.00    +0.000 A 
ENDBRANCH  12  14
ENDBRANCH   2  12
TORSDOF 4
ENDMDL
MODEL 8
REMARK VINA RESULT:      -6.5     12.951     16.278
REMARK  Name = 26744752
REMARK  4 active torsions:
REMARK  status: ('A' for Active; 'I' for Inactive)
REMARK    1  A    between atoms: N_2  and  C_12
REMARK    2  A    between atoms: C_7  and  C_13
REMARK    3  A    between atoms: C_12  and  C_14
REMARK    4  A    between atoms: C_18  and  C_21
REMARK                            x       y       z     vdW  Elec       q    Type
REMARK                         _______ _______ _______ _____ _____    ______ ____
ROOT
ATOM      2  N   UNL     1       9.909   6.271   5.574  0.00  0.00    -0.281 NA
ATOM      3  N   UNL     1       9.490   3.686   8.222  0.00  0.00    -0.347 N 
ATOM      4  N   UNL     1       9.549   5.425   9.627  0.00  0.00    -0.240 NA
ATOM      7  C   UNL     1      10.605   7.273   6.438  0.00  0.00    +0.152 C 
ATOM      8  C   UNL     1      10.082   7.225   7.918  0.00  0.00    +0.086 C 
ATOM      9  C   UNL     1      10.028   4.864   6.013  0.00  0.00    +0.140 C 
ATOM     10  C   UNL     1       9.771   4.783   7.467  0.00  0.00    +0.053 A 
ATOM     11  C   UNL     1       9.808   5.834   8.350  0.00  0.00    +0.065 A 
ATOM     15  C   UNL     1       9.363   4.124   9.518  0.00  0.00    +0.197 A 
ATOM     28  H   UNL     1       9.395   2.732   7.898  0.00  0.00    +0.167 HD
ENDROOT
BRANCH   7  13
ATOM      1  O   UNL     1      12.802   6.595   7.306  0.00  0.00    -0.336 OA
ATOM      5  N   UNL     1      12.904   7.839   5.447  0.00  0.00    -0.190 NA
ATOM      6  N   UNL     1      14.163   6.738   7.008  0.00  0.00    -0.056 NA
ATOM     13  C   UNL     1      12.131   7.274   6.338  0.00  0.00    +0.245 A 
ATOM     18  C   UNL     1      14.142   7.482   5.899  0.00  0.00    +0.202 A 
BRANCH  18  21
ATOM     21  C   UNL     1      15.338   7.886   5.218  0.00  0.00    +0.022 A 
ATOM     23  C   UNL     1      16.385   8.469   5.933  0.00  0.00    +0.012 A 
ATOM     24  C   UNL     1      15.456   7.696   3.841  0.00  0.00    +0.012 A 
ATOM     25  C   UNL     1      17.548   8.862   5.271  0.00  0.00    +0.001 A 
ATOM     26  C   UNL     1      16.618   8.090   3.179  0.00  0.00    +0.001 A 
ATOM     27  C   UNL     1      17.664   8.673   3.894  0.00  0.00    +0.000 A 
ENDBRANCH  18  21
ENDBRANCH   7  13
BRANCH   2  12
ATOM     12  C   UNL     1      10.194   6.411   4.150  0.00  0.00    +0.120 C 
BRANCH  12  14
ATOM     14  C   UNL     1       9.267   7.395   3.488  0.00  0.00    -0.033 A 
ATOM     16  C   UNL     1       9.452   7.733   2.147  0.00  0.00    +0.005 A 
ATOM     17  C   UNL     1       8.224   7.970   4.215  0.00  0.00    +0.005 A 
ATOM     19  C   UNL     1       8.593   8.645   1.533  0.00  0.00    +0.000 A 
ATOM     20  C   UNL     1       7.366   8.882   3.600  0.00  0.00    +0.000 A 
ATOM     22  C   UNL     1       7.551   9.219   2.259  0.00  0.00    +0.000 A 
ENDBRANCH  12  14
ENDBRANCH   2  12
TORSDOF 4
ENDMDL
MODEL 9
REMARK VINA RESULT:      -6.4     27.300     28.511
REMARK  Name = 26744752
REMARK  4 active torsions:
REMARK  status: ('A' for Active; 'I' for Inactive)
REMARK    1  A    between atoms: N_2  and  C_12
REMARK    2  A    between atoms: C_7  and  C_13
REMARK    3  A    between atoms: C_12  and  C_14
REMARK    4  A    between atoms: C_18  and  C_21
REMARK                            x       y       z     vdW  Elec       q    Type
REMARK                         _______ _______ _______ _____ _____    ______ ____
ROOT
ATOM      2  N   UNL     1      -3.151 -11.381  11.999  0.00  0.00    -0.281 NA
ATOM      3  N   UNL     1      -0.812 -13.975  13.292  0.00  0.00    -0.347 N 
ATOM      4  N   UNL     1      -2.595 -15.321  13.198  0.00  0.00    -0.240 NA
ATOM      7  C   UNL     1      -4.395 -11.998  12.551  0.00  0.00    +0.152 C 
ATOM      8  C   UNL     1      -4.314 -13.567  12.554  0.00  0.00    +0.086 C 
ATOM      9  C   UNL     1      -1.901 -11.732  12.706  0.00  0.00    +0.140 C 
ATOM     10  C   UNL     1      -1.871 -13.190  12.948  0.00  0.00    +0.053 A 
ATOM     11  C   UNL     1      -2.952 -14.036  12.903  0.00  0.00    +0.065 A 
ATOM     15  C   UNL     1      -1.299 -15.251  13.430  0.00  0.00    +0.197 A 
ATOM     28  H   UNL     1       0.146 -13.679  13.424  0.00  0.00    +0.167 HD
ENDROOT
BRANCH   7  13
ATOM      1  O   UNL     1      -5.591 -10.264  13.818  0.00  0.00    -0.336 OA
ATOM      5  N   UNL     1      -4.701 -11.871  15.098  0.00  0.00    -0.190 NA
ATOM      6  N   UNL     1      -5.915  -9.933  15.140  0.00  0.00    -0.056 NA
ATOM     13  C   UNL     1      -4.876 -11.418  13.883  0.00  0.00    +0.245 A 
ATOM     18  C   UNL     1      -5.356 -10.928  15.835  0.00  0.00    +0.202 A 
BRANCH  18  21
ATOM     21  C   UNL     1      -5.434 -11.009  17.265  0.00  0.00    +0.022 A 
ATOM     23  C   UNL     1      -6.450 -10.340  17.948  0.00  0.00    +0.012 A 
ATOM     24  C   UNL     1      -4.494 -11.758  17.974  0.00  0.00    +0.012 A 
ATOM     25  C   UNL     1      -6.526 -10.418  19.338  0.00  0.00    +0.001 A 
ATOM     26  C   UNL     1      -4.570 -11.836  19.364  0.00  0.00    +0.001 A 
ATOM     27  C   UNL     1      -5.585 -11.167  20.046  0.00  0.00    +0.000 A 
ENDBRANCH  18  21
ENDBRANCH   7  13
BRANCH   2  12
ATOM     12  C   UNL     1      -3.249  -9.944  11.770  0.00  0.00    +0.120 C 
BRANCH  12  14
ATOM     14  C   UNL     1      -4.141  -9.621  10.601  0.00  0.00    -0.033 A 
ATOM     16  C   UNL     1      -5.099  -8.613  10.712  0.00  0.00    +0.005 A 
ATOM     17  C   UNL     1      -4.009 -10.330   9.407  0.00  0.00    +0.005 A 
ATOM     19  C   UNL     1      -5.926  -8.314   9.628  0.00  0.00    +0.000 A 
ATOM     20  C   UNL     1      -4.836 -10.031   8.324  0.00  0.00    +0.000 A 
ATOM     22  C   UNL     1      -5.794  -9.023   8.435  0.00  0.00    +0.000 A 
ENDBRANCH  12  14
ENDBRANCH   2  12
TORSDOF 4
ENDMDL
MODEL 10
REMARK VINA RESULT:      -6.3     28.589     31.342
REMARK  Name = 26744752
REMARK  4 active torsions:
REMARK  status: ('A' for Active; 'I' for Inactive)
REMARK    1  A    between atoms: N_2  and  C_12
REMARK    2  A    between atoms: C_7  and  C_13
REMARK    3  A    between atoms: C_12  and  C_14
REMARK    4  A    between atoms: C_18  and  C_21
REMARK                            x       y       z     vdW  Elec       q    Type
REMARK                         _______ _______ _______ _____ _____    ______ ____
ROOT
ATOM      2  N   UNL     1     -11.940 -10.345  17.848  0.00  0.00    -0.281 NA
ATOM      3  N   UNL     1     -13.727 -13.055  19.673  0.00  0.00    -0.347 N 
ATOM      4  N   UNL     1     -13.384 -11.773  21.473  0.00  0.00    -0.240 NA
ATOM      7  C   UNL     1     -11.145  -9.862  19.017  0.00  0.00    +0.152 C 
ATOM      8  C   UNL     1     -11.946 -10.001  20.361  0.00  0.00    +0.086 C 
ATOM      9  C   UNL     1     -12.387 -11.752  17.922  0.00  0.00    +0.140 C 
ATOM     10  C   UNL     1     -12.949 -12.015  19.265  0.00  0.00    +0.053 A 
ATOM     11  C   UNL     1     -12.748 -11.248  20.385  0.00  0.00    +0.065 A 
ATOM     15  C   UNL     1     -13.965 -12.864  21.012  0.00  0.00    +0.197 A 
ATOM     28  H   UNL     1     -14.064 -13.823  19.106  0.00  0.00    +0.167 HD
ENDROOT
BRANCH   7  13
ATOM      1  O   UNL     1      -9.460 -11.261  20.132  0.00  0.00    -0.336 OA
ATOM      5  N   UNL     1      -8.690 -10.172  18.334  0.00  0.00    -0.190 NA
ATOM      6  N   UNL     1      -8.112 -11.619  20.009  0.00  0.00    -0.056 NA
ATOM     13  C   UNL     1      -9.718 -10.407  19.107  0.00  0.00    +0.245 A 
ATOM     18  C   UNL     1      -7.727 -10.938  18.926  0.00  0.00    +0.202 A 
BRANCH  18  21
ATOM     21  C   UNL     1      -6.390 -11.000  18.409  0.00  0.00    +0.022 A 
ATOM     23  C   UNL     1      -5.417 -11.740  19.080  0.00  0.00    +0.012 A 
ATOM     24  C   UNL     1      -6.063 -10.320  17.236  0.00  0.00    +0.012 A 
ATOM     25  C   UNL     1      -4.117 -11.801  18.579  0.00  0.00    +0.001 A 
ATOM     26  C   UNL     1      -4.764 -10.381  16.734  0.00  0.00    +0.001 A 
ATOM     27  C   UNL     1      -3.791 -11.121  17.405  0.00  0.00    +0.000 A 
ENDBRANCH  18  21
ENDBRANCH   7  13
BRANCH   2  12
ATOM     12  C   UNL     1     -11.340 -10.044  16.553  0.00  0.00    +0.120 C 
BRANCH  12  14
ATOM     14  C   UNL     1     -11.438  -8.581  16.216  0.00  0.00    -0.033 A 
ATOM     16  C   UNL     1     -12.686  -7.962  16.147  0.00  0.00    +0.005 A 
ATOM     17  C   UNL     1     -10.279  -7.842  15.971  0.00  0.00    +0.005 A 
ATOM     19  C   UNL     1     -12.776  -6.606  15.834  0.00  0.00    +0.000 A 
ATOM     20  C   UNL     1     -10.370  -6.486  15.658  0.00  0.00    +0.000 A 
ATOM     22  C   UNL     1     -11.619  -5.868  15.590  0.00  0.00    +0.000 A 
ENDBRANCH  12  14
ENDBRANCH   2  12
TORSDOF 4
ENDMDL
