MODEL 1
REMARK VINA RESULT:      -7.0      0.000      0.000
REMARK  Name = 75368610
REMARK  6 active torsions:
REMARK  status: ('A' for Active; 'I' for Inactive)
REMARK    1  A    between atoms: S_1  and  C_25
REMARK    2  A    between atoms: S_1  and  C_29
REMARK    3  A    between atoms: N_7  and  C_15
REMARK    4  A    between atoms: N_8  and  C_16
REMARK    5  A    between atoms: C_15  and  C_17
REMARK    6  A    between atoms: C_16  and  C_18
REMARK                            x       y       z     vdW  Elec       q    Type
REMARK                         _______ _______ _______ _____ _____    ______ ____
ROOT
ATOM      3  O   UNL     1     -16.464   4.804  20.276  0.00  0.00    -0.252 OA
ATOM      6  N   UNL     1     -16.176   4.695  22.604  0.00  0.00    -0.278 N 
ATOM      7  N   UNL     1     -16.735   4.090  25.294  0.00  0.00    -0.295 NA
ATOM      8  N   UNL     1     -15.715   6.632  21.564  0.00  0.00    -0.279 N 
ATOM      9  C   UNL     1     -15.633   5.546  23.644  0.00  0.00    +0.109 C 
ATOM     10  C   UNL     1     -16.517   5.494  24.889  0.00  0.00    +0.109 C 
ATOM     11  C   UNL     1     -15.542   6.918  22.979  0.00  0.00    +0.133 C 
ATOM     12  C   UNL     1     -16.565   3.339  22.930  0.00  0.00    +0.125 C 
ATOM     13  C   UNL     1     -17.396   3.328  24.216  0.00  0.00    +0.104 C 
ATOM     14  C   UNL     1     -16.153   5.311  21.346  0.00  0.00    +0.305 C 
ENDROOT
BRANCH   7  15
ATOM     15  C   UNL     1     -17.529   4.032  26.520  0.00  0.00    +0.119 C 
BRANCH  15  17
ATOM     17  C   UNL     1     -16.951   3.073  27.520  0.00  0.00    -0.033 A 
ATOM     19  C   UNL     1     -15.968   3.504  28.411  0.00  0.00    +0.007 A 
ATOM     20  C   UNL     1     -17.395   1.752  27.556  0.00  0.00    +0.007 A 
ATOM     23  C   UNL     1     -15.429   2.612  29.340  0.00  0.00    +0.027 A 
ATOM     24  C   UNL     1     -16.857   0.860  28.485  0.00  0.00    +0.027 A 
ATOM     25  C   UNL     1     -15.874   1.290  29.376  0.00  0.00    +0.088 A 
BRANCH  25   1
ATOM      1  S   UNL     1     -15.204   0.176  30.541  0.00  0.00    -0.006 S 
ATOM      4  O   UNL     1     -14.909   0.898  31.771  0.00  0.00    -0.170 OA
ATOM      5  O   UNL     1     -16.062  -1.000  30.582  0.00  0.00    -0.170 OA
ATOM     29  C   UNL     1     -13.643  -0.312  29.840  0.00  0.00    +0.200 C 
ENDBRANCH  25   1
ENDBRANCH  15  17
ENDBRANCH   7  15
BRANCH   8  16
ATOM     16  C   UNL     1     -15.587   7.659  20.554  0.00  0.00    +0.144 C 
BRANCH  16  18
ATOM      2  F   UNL     1     -10.552   7.522  18.037  0.00  0.00    -0.205 F 
ATOM     18  C   UNL     1     -14.244   7.623  19.882  0.00  0.00    -0.030 A 
ATOM     21  C   UNL     1     -14.117   8.031  18.554  0.00  0.00    +0.008 A 
ATOM     22  C   UNL     1     -13.124   7.180  20.586  0.00  0.00    +0.008 A 
ATOM     26  C   UNL     1     -12.870   7.997  17.931  0.00  0.00    +0.038 A 
ATOM     27  C   UNL     1     -11.877   7.145  19.963  0.00  0.00    +0.038 A 
ATOM     28  C   UNL     1     -11.750   7.555  18.635  0.00  0.00    +0.123 A 
ENDBRANCH  16  18
ENDBRANCH   8  16
TORSDOF 5
ENDMDL
MODEL 2
REMARK VINA RESULT:      -6.6     19.608     20.932
REMARK  Name = 75368610
REMARK  6 active torsions:
REMARK  status: ('A' for Active; 'I' for Inactive)
REMARK    1  A    between atoms: S_1  and  C_25
REMARK    2  A    between atoms: S_1  and  C_29
REMARK    3  A    between atoms: N_7  and  C_15
REMARK    4  A    between atoms: N_8  and  C_16
REMARK    5  A    between atoms: C_15  and  C_17
REMARK    6  A    between atoms: C_16  and  C_18
REMARK                            x       y       z     vdW  Elec       q    Type
REMARK                         _______ _______ _______ _____ _____    ______ ____
ROOT
ATOM      3  O   UNL     1      -1.411 -10.483  12.064  0.00  0.00    -0.252 OA
ATOM      6  N   UNL     1      -2.721 -10.465  14.013  0.00  0.00    -0.278 N 
ATOM      7  N   UNL     1      -3.448 -10.915  16.693  0.00  0.00    -0.295 NA
ATOM      8  N   UNL     1      -3.707 -11.025  12.075  0.00  0.00    -0.279 N 
ATOM      9  C   UNL     1      -4.124 -10.609  14.347  0.00  0.00    +0.109 C 
ATOM     10  C   UNL     1      -4.286 -11.461  15.606  0.00  0.00    +0.109 C 
ATOM     11  C   UNL     1      -4.737 -11.210  13.083  0.00  0.00    +0.133 C 
ATOM     12  C   UNL     1      -1.784 -10.078  15.047  0.00  0.00    +0.125 C 
ATOM     13  C   UNL     1      -2.022 -10.913  16.308  0.00  0.00    +0.104 C 
ATOM     14  C   UNL     1      -2.479 -10.634  12.644  0.00  0.00    +0.305 C 
ENDROOT
BRANCH   7  15
ATOM     15  C   UNL     1      -3.642 -11.687  17.920  0.00  0.00    +0.119 C 
BRANCH  15  17
ATOM     17  C   UNL     1      -5.080 -11.702  18.352  0.00  0.00    -0.033 A 
ATOM     19  C   UNL     1      -5.841 -12.862  18.204  0.00  0.00    +0.007 A 
ATOM     20  C   UNL     1      -5.654 -10.556  18.901  0.00  0.00    +0.007 A 
ATOM     23  C   UNL     1      -7.177 -12.875  18.606  0.00  0.00    +0.027 A 
ATOM     24  C   UNL     1      -6.991 -10.569  19.302  0.00  0.00    +0.027 A 
ATOM     25  C   UNL     1      -7.752 -11.728  19.155  0.00  0.00    +0.088 A 
BRANCH  25   1
ATOM      1  S   UNL     1      -9.422 -11.746  19.661  0.00  0.00    -0.006 S 
ATOM      4  O   UNL     1      -9.711 -13.025  20.295  0.00  0.00    -0.170 OA
ATOM      5  O   UNL     1      -9.686 -10.507  20.380  0.00  0.00    -0.170 OA
ATOM     29  C   UNL     1     -10.346 -11.702  18.141  0.00  0.00    +0.200 C 
ENDBRANCH  25   1
ENDBRANCH  15  17
ENDBRANCH   7  15
BRANCH   8  16
ATOM     16  C   UNL     1      -3.925 -11.364  10.685  0.00  0.00    +0.144 C 
BRANCH  16  18
ATOM      2  F   UNL     1      -7.458  -7.771   8.172  0.00  0.00    -0.205 F 
ATOM     18  C   UNL     1      -4.868 -10.406  10.015  0.00  0.00    -0.030 A 
ATOM     21  C   UNL     1      -5.954 -10.891   9.286  0.00  0.00    +0.008 A 
ATOM     22  C   UNL     1      -4.656  -9.031  10.121  0.00  0.00    +0.008 A 
ATOM     26  C   UNL     1      -6.829 -10.000   8.664  0.00  0.00    +0.038 A 
ATOM     27  C   UNL     1      -5.531  -8.141   9.498  0.00  0.00    +0.038 A 
ATOM     28  C   UNL     1      -6.618  -8.626   8.769  0.00  0.00    +0.123 A 
ENDBRANCH  16  18
ENDBRANCH   8  16
TORSDOF 5
ENDMDL
MODEL 3
REMARK VINA RESULT:      -6.6     19.050     20.512
REMARK  Name = 75368610
REMARK  6 active torsions:
REMARK  status: ('A' for Active; 'I' for Inactive)
REMARK    1  A    between atoms: S_1  and  C_25
REMARK    2  A    between atoms: S_1  and  C_29
REMARK    3  A    between atoms: N_7  and  C_15
REMARK    4  A    between atoms: N_8  and  C_16
REMARK    5  A    between atoms: C_15  and  C_17
REMARK    6  A    between atoms: C_16  and  C_18
REMARK                            x       y       z     vdW  Elec       q    Type
REMARK                         _______ _______ _______ _____ _____    ______ ____
ROOT
ATOM      3  O   UNL     1      -1.641 -11.800  15.186  0.00  0.00    -0.252 OA
ATOM      6  N   UNL     1      -3.782 -10.945  15.636  0.00  0.00    -0.278 N 
ATOM      7  N   UNL     1      -6.346 -10.753  16.779  0.00  0.00    -0.295 NA
ATOM      8  N   UNL     1      -3.090 -11.007  13.501  0.00  0.00    -0.279 N 
ATOM      9  C   UNL     1      -4.835 -10.284  14.893  0.00  0.00    +0.109 C 
ATOM     10  C   UNL     1      -6.202 -10.826  15.310  0.00  0.00    +0.109 C 
ATOM     11  C   UNL     1      -4.463 -10.537  13.433  0.00  0.00    +0.133 C 
ATOM     12  C   UNL     1      -3.897 -11.062  17.075  0.00  0.00    +0.125 C 
ATOM     13  C   UNL     1      -5.299 -11.550  17.450  0.00  0.00    +0.104 C 
ATOM     14  C   UNL     1      -2.702 -11.309  14.821  0.00  0.00    +0.305 C 
ENDROOT
BRANCH   7  15
ATOM     15  C   UNL     1      -7.674 -11.213  17.183  0.00  0.00    +0.119 C 
BRANCH  15  17
ATOM     17  C   UNL     1      -8.743 -10.218  16.834  0.00  0.00    -0.033 A 
ATOM     19  C   UNL     1      -8.754  -8.964  17.444  0.00  0.00    +0.007 A 
ATOM     20  C   UNL     1      -9.725 -10.549  15.901  0.00  0.00    +0.007 A 
ATOM     23  C   UNL     1      -9.748  -8.040  17.120  0.00  0.00    +0.027 A 
ATOM     24  C   UNL     1     -10.719  -9.625  15.577  0.00  0.00    +0.027 A 
ATOM     25  C   UNL     1     -10.730  -8.371  16.186  0.00  0.00    +0.088 A 
BRANCH  25   1
ATOM      1  S   UNL     1     -11.971  -7.213  15.778  0.00  0.00    -0.006 S 
ATOM      4  O   UNL     1     -13.226  -7.629  16.389  0.00  0.00    -0.170 OA
ATOM      5  O   UNL     1     -11.446  -5.881  16.041  0.00  0.00    -0.170 OA
ATOM     29  C   UNL     1     -12.173  -7.382  14.018  0.00  0.00    +0.200 C 
ENDBRANCH  25   1
ENDBRANCH  15  17
ENDBRANCH   7  15
BRANCH   8  16
ATOM     16  C   UNL     1      -2.309 -11.264  12.311  0.00  0.00    +0.144 C 
BRANCH  16  18
ATOM      2  F   UNL     1      -4.988  -9.625   7.637  0.00  0.00    -0.205 F 
ATOM     18  C   UNL     1      -3.023 -10.826  11.064  0.00  0.00    -0.030 A 
ATOM     21  C   UNL     1      -2.992  -9.487  10.676  0.00  0.00    +0.008 A 
ATOM     22  C   UNL     1      -3.718 -11.760  10.294  0.00  0.00    +0.008 A 
ATOM     26  C   UNL     1      -3.656  -9.081   9.518  0.00  0.00    +0.038 A 
ATOM     27  C   UNL     1      -4.382 -11.353   9.137  0.00  0.00    +0.038 A 
ATOM     28  C   UNL     1      -4.351 -10.014   8.749  0.00  0.00    +0.123 A 
ENDBRANCH  16  18
ENDBRANCH   8  16
TORSDOF 5
ENDMDL
MODEL 4
REMARK VINA RESULT:      -6.5     16.810     18.070
REMARK  Name = 75368610
REMARK  6 active torsions:
REMARK  status: ('A' for Active; 'I' for Inactive)
REMARK    1  A    between atoms: S_1  and  C_25
REMARK    2  A    between atoms: S_1  and  C_29
REMARK    3  A    between atoms: N_7  and  C_15
REMARK    4  A    between atoms: N_8  and  C_16
REMARK    5  A    between atoms: C_15  and  C_17
REMARK    6  A    between atoms: C_16  and  C_18
REMARK                            x       y       z     vdW  Elec       q    Type
REMARK                         _______ _______ _______ _____ _____    ______ ____
ROOT
ATOM      3  O   UNL     1     -13.105  -8.506  13.733  0.00  0.00    -0.252 OA
ATOM      6  N   UNL     1     -10.938  -8.407  14.634  0.00  0.00    -0.278 N 
ATOM      7  N   UNL     1      -8.598  -9.254  15.946  0.00  0.00    -0.295 NA
ATOM      8  N   UNL     1     -12.321  -6.675  14.996  0.00  0.00    -0.279 N 
ATOM      9  C   UNL     1     -10.120  -7.425  15.316  0.00  0.00    +0.109 C 
ATOM     10  C   UNL     1      -9.339  -8.082  16.454  0.00  0.00    +0.109 C 
ATOM     11  C   UNL     1     -11.123  -6.361  15.756  0.00  0.00    +0.133 C 
ATOM     12  C   UNL     1     -10.343  -9.662  14.223  0.00  0.00    +0.125 C 
ATOM     13  C   UNL     1      -9.523 -10.253  15.372  0.00  0.00    +0.104 C 
ATOM     14  C   UNL     1     -12.230  -7.934  14.370  0.00  0.00    +0.305 C 
ENDROOT
BRANCH   7  15
ATOM     15  C   UNL     1      -7.800  -9.854  17.015  0.00  0.00    +0.119 C 
BRANCH  15  17
ATOM     17  C   UNL     1      -6.412 -10.194  16.556  0.00  0.00    -0.033 A 
ATOM     19  C   UNL     1      -6.076 -10.079  15.207  0.00  0.00    +0.007 A 
ATOM     20  C   UNL     1      -5.460 -10.626  17.478  0.00  0.00    +0.007 A 
ATOM     23  C   UNL     1      -4.786 -10.396  14.780  0.00  0.00    +0.027 A 
ATOM     24  C   UNL     1      -4.169 -10.943  17.051  0.00  0.00    +0.027 A 
ATOM     25  C   UNL     1      -3.833 -10.829  15.703  0.00  0.00    +0.088 A 
BRANCH  25   1
ATOM      1  S   UNL     1      -2.218 -11.221  15.170  0.00  0.00    -0.006 S 
ATOM      4  O   UNL     1      -1.263 -10.732  16.154  0.00  0.00    -0.170 OA
ATOM      5  O   UNL     1      -2.202 -12.625  14.783  0.00  0.00    -0.170 OA
ATOM     29  C   UNL     1      -1.988 -10.248  13.698  0.00  0.00    +0.200 C 
ENDBRANCH  25   1
ENDBRANCH  15  17
ENDBRANCH   7  15
BRANCH   8  16
ATOM     16  C   UNL     1     -13.496  -5.833  15.036  0.00  0.00    +0.144 C 
BRANCH  16  18
ATOM      2  F   UNL     1     -14.040  -2.747  10.357  0.00  0.00    -0.205 F 
ATOM     18  C   UNL     1     -13.641  -5.009  13.788  0.00  0.00    -0.030 A 
ATOM     21  C   UNL     1     -12.534  -4.348  13.257  0.00  0.00    +0.008 A 
ATOM     22  C   UNL     1     -14.883  -4.907  13.161  0.00  0.00    +0.008 A 
ATOM     26  C   UNL     1     -12.668  -3.584  12.097  0.00  0.00    +0.038 A 
ATOM     27  C   UNL     1     -15.017  -4.142  12.002  0.00  0.00    +0.038 A 
ATOM     28  C   UNL     1     -13.910  -3.481  11.470  0.00  0.00    +0.123 A 
ENDBRANCH  16  18
ENDBRANCH   8  16
TORSDOF 5
ENDMDL
MODEL 5
REMARK VINA RESULT:      -6.5     19.181     21.813
REMARK  Name = 75368610
REMARK  6 active torsions:
REMARK  status: ('A' for Active; 'I' for Inactive)
REMARK    1  A    between atoms: S_1  and  C_25
REMARK    2  A    between atoms: S_1  and  C_29
REMARK    3  A    between atoms: N_7  and  C_15
REMARK    4  A    between atoms: N_8  and  C_16
REMARK    5  A    between atoms: C_15  and  C_17
REMARK    6  A    between atoms: C_16  and  C_18
REMARK                            x       y       z     vdW  Elec       q    Type
REMARK                         _______ _______ _______ _____ _____    ______ ____
ROOT
ATOM      3  O   UNL     1      -4.625 -10.682   7.724  0.00  0.00    -0.252 OA
ATOM      6  N   UNL     1      -6.441  -9.309   8.299  0.00  0.00    -0.278 N 
ATOM      7  N   UNL     1      -8.623  -7.565   7.966  0.00  0.00    -0.295 NA
ATOM      8  N   UNL     1      -4.558  -9.146   9.512  0.00  0.00    -0.279 N 
ATOM      9  C   UNL     1      -6.776  -8.390   9.367  0.00  0.00    +0.109 C 
ATOM     10  C   UNL     1      -7.479  -7.154   8.806  0.00  0.00    +0.109 C 
ATOM     11  C   UNL     1      -5.433  -8.113  10.042  0.00  0.00    +0.133 C 
ATOM     12  C   UNL     1      -7.454  -9.663   7.327  0.00  0.00    +0.125 C 
ATOM     13  C   UNL     1      -8.173  -8.403   6.837  0.00  0.00    +0.104 C 
ATOM     14  C   UNL     1      -5.144  -9.824   8.425  0.00  0.00    +0.305 C 
ENDROOT
BRANCH   7  15
ATOM     15  C   UNL     1      -9.339  -6.389   7.473  0.00  0.00    +0.119 C 
BRANCH  15  17
ATOM     17  C   UNL     1     -10.237  -5.798   8.521  0.00  0.00    -0.033 A 
ATOM     19  C   UNL     1     -10.214  -4.425   8.765  0.00  0.00    +0.007 A 
ATOM     20  C   UNL     1     -11.093  -6.622   9.250  0.00  0.00    +0.007 A 
ATOM     23  C   UNL     1     -11.048  -3.875   9.740  0.00  0.00    +0.027 A 
ATOM     24  C   UNL     1     -11.928  -6.073  10.224  0.00  0.00    +0.027 A 
ATOM     25  C   UNL     1     -11.905  -4.700  10.469  0.00  0.00    +0.088 A 
BRANCH  25   1
ATOM      1  S   UNL     1     -12.952  -4.013  11.685  0.00  0.00    -0.006 S 
ATOM      4  O   UNL     1     -13.678  -5.088  12.347  0.00  0.00    -0.170 OA
ATOM      5  O   UNL     1     -12.166  -3.078  12.477  0.00  0.00    -0.170 OA
ATOM     29  C   UNL     1     -14.148  -3.074  10.761  0.00  0.00    +0.200 C 
ENDBRANCH  25   1
ENDBRANCH  15  17
ENDBRANCH   7  15
BRANCH   8  16
ATOM     16  C   UNL     1      -3.200  -9.313   9.981  0.00  0.00    +0.144 C 
BRANCH  16  18
ATOM      2  F   UNL     1      -2.940 -12.590  14.553  0.00  0.00    -0.205 F 
ATOM     18  C   UNL     1      -3.130 -10.187  11.201  0.00  0.00    -0.030 A 
ATOM     21  C   UNL     1      -1.991 -10.172  12.006  0.00  0.00    +0.008 A 
ATOM     22  C   UNL     1      -4.205 -11.014  11.528  0.00  0.00    +0.008 A 
ATOM     26  C   UNL     1      -1.927 -10.983  13.139  0.00  0.00    +0.038 A 
ATOM     27  C   UNL     1      -4.141 -11.826  12.660  0.00  0.00    +0.038 A 
ATOM     28  C   UNL     1      -3.001 -11.810  13.466  0.00  0.00    +0.123 A 
ENDBRANCH  16  18
ENDBRANCH   8  16
TORSDOF 5
ENDMDL
MODEL 6
REMARK VINA RESULT:      -6.5      4.716     10.201
REMARK  Name = 75368610
REMARK  6 active torsions:
REMARK  status: ('A' for Active; 'I' for Inactive)
REMARK    1  A    between atoms: S_1  and  C_25
REMARK    2  A    between atoms: S_1  and  C_29
REMARK    3  A    between atoms: N_7  and  C_15
REMARK    4  A    between atoms: N_8  and  C_16
REMARK    5  A    between atoms: C_15  and  C_17
REMARK    6  A    between atoms: C_16  and  C_18
REMARK                            x       y       z     vdW  Elec       q    Type
REMARK                         _______ _______ _______ _____ _____    ______ ____
ROOT
ATOM      3  O   UNL     1     -18.429   5.030  26.754  0.00  0.00    -0.252 OA
ATOM      6  N   UNL     1     -16.874   5.235  25.006  0.00  0.00    -0.278 N 
ATOM      7  N   UNL     1     -15.859   5.832  22.451  0.00  0.00    -0.295 NA
ATOM      8  N   UNL     1     -16.861   3.350  26.226  0.00  0.00    -0.279 N 
ATOM      9  C   UNL     1     -15.735   4.490  24.510  0.00  0.00    +0.109 C 
ATOM     10  C   UNL     1     -15.744   4.458  22.982  0.00  0.00    +0.109 C 
ATOM     11  C   UNL     1     -15.875   3.125  25.181  0.00  0.00    +0.133 C 
ATOM     12  C   UNL     1     -17.168   6.537  24.444  0.00  0.00    +0.125 C 
ATOM     13  C   UNL     1     -17.107   6.473  22.915  0.00  0.00    +0.104 C 
ATOM     14  C   UNL     1     -17.502   4.596  26.083  0.00  0.00    +0.305 C 
ENDROOT
BRANCH   7  15
ATOM     15  C   UNL     1     -15.808   5.817  20.990  0.00  0.00    +0.119 C 
BRANCH  15  17
ATOM     17  C   UNL     1     -14.695   6.673  20.458  0.00  0.00    -0.033 A 
ATOM     19  C   UNL     1     -13.444   6.651  21.075  0.00  0.00    +0.007 A 
ATOM     20  C   UNL     1     -14.912   7.490  19.349  0.00  0.00    +0.007 A 
ATOM     23  C   UNL     1     -12.409   7.446  20.581  0.00  0.00    +0.027 A 
ATOM     24  C   UNL     1     -13.877   8.285  18.856  0.00  0.00    +0.027 A 
ATOM     25  C   UNL     1     -12.626   8.264  19.471  0.00  0.00    +0.088 A 
BRANCH  25   1
ATOM      1  S   UNL     1     -11.331   9.256  18.851  0.00  0.00    -0.006 S 
ATOM      4  O   UNL     1     -11.873  10.548  18.455  0.00  0.00    -0.170 OA
ATOM      5  O   UNL     1     -10.227   9.196  19.799  0.00  0.00    -0.170 OA
ATOM     29  C   UNL     1     -10.816   8.431  17.361  0.00  0.00    +0.200 C 
ENDBRANCH  25   1
ENDBRANCH  15  17
ENDBRANCH   7  15
BRANCH   8  16
ATOM     16  C   UNL     1     -17.211   2.322  27.182  0.00  0.00    +0.144 C 
BRANCH  16  18
ATOM      2  F   UNL     1     -13.403   1.897  31.307  0.00  0.00    -0.205 F 
ATOM     18  C   UNL     1     -16.195   2.208  28.282  0.00  0.00    -0.030 A 
ATOM     21  C   UNL     1     -15.862   0.956  28.797  0.00  0.00    +0.008 A 
ATOM     22  C   UNL     1     -15.585   3.356  28.789  0.00  0.00    +0.008 A 
ATOM     26  C   UNL     1     -14.918   0.850  29.818  0.00  0.00    +0.038 A 
ATOM     27  C   UNL     1     -14.642   3.251  29.811  0.00  0.00    +0.038 A 
ATOM     28  C   UNL     1     -14.309   1.997  30.326  0.00  0.00    +0.123 A 
ENDBRANCH  16  18
ENDBRANCH   8  16
TORSDOF 5
ENDMDL
MODEL 7
REMARK VINA RESULT:      -6.4     19.519     20.773
REMARK  Name = 75368610
REMARK  6 active torsions:
REMARK  status: ('A' for Active; 'I' for Inactive)
REMARK    1  A    between atoms: S_1  and  C_25
REMARK    2  A    between atoms: S_1  and  C_29
REMARK    3  A    between atoms: N_7  and  C_15
REMARK    4  A    between atoms: N_8  and  C_16
REMARK    5  A    between atoms: C_15  and  C_17
REMARK    6  A    between atoms: C_16  and  C_18
REMARK                            x       y       z     vdW  Elec       q    Type
REMARK                         _______ _______ _______ _____ _____    ______ ____
ROOT
ATOM      3  O   UNL     1      -1.772 -10.383  14.356  0.00  0.00    -0.252 OA
ATOM      6  N   UNL     1      -3.789 -10.992  15.393  0.00  0.00    -0.278 N 
ATOM      7  N   UNL     1      -5.552 -11.820  17.423  0.00  0.00    -0.295 NA
ATOM      8  N   UNL     1      -3.351 -11.820  13.352  0.00  0.00    -0.279 N 
ATOM      9  C   UNL     1      -4.991 -11.714  15.029  0.00  0.00    +0.109 C 
ATOM     10  C   UNL     1      -5.441 -12.612  16.180  0.00  0.00    +0.109 C 
ATOM     11  C   UNL     1      -4.595 -12.456  13.754  0.00  0.00    +0.133 C 
ATOM     12  C   UNL     1      -3.737 -10.301  16.665  0.00  0.00    +0.125 C 
ATOM     13  C   UNL     1      -4.253 -11.215  17.779  0.00  0.00    +0.104 C 
ATOM     14  C   UNL     1      -2.838 -10.985  14.364  0.00  0.00    +0.305 C 
ENDROOT
BRANCH   7  15
ATOM     15  C   UNL     1      -6.041 -12.658  18.517  0.00  0.00    +0.119 C 
BRANCH  15  17
ATOM     17  C   UNL     1      -7.449 -12.310  18.905  0.00  0.00    -0.033 A 
ATOM     19  C   UNL     1      -7.962 -11.047  18.607  0.00  0.00    +0.007 A 
ATOM     20  C   UNL     1      -8.242 -13.248  19.565  0.00  0.00    +0.007 A 
ATOM     23  C   UNL     1      -9.271 -10.723  18.968  0.00  0.00    +0.027 A 
ATOM     24  C   UNL     1      -9.551 -12.924  19.926  0.00  0.00    +0.027 A 
ATOM     25  C   UNL     1     -10.065 -11.662  19.628  0.00  0.00    +0.088 A 
BRANCH  25   1
ATOM      1  S   UNL     1     -11.703 -11.259  20.076  0.00  0.00    -0.006 S 
ATOM      4  O   UNL     1     -12.204 -12.270  20.996  0.00  0.00    -0.170 OA
ATOM      5  O   UNL     1     -11.729  -9.854  20.460  0.00  0.00    -0.170 OA
ATOM     29  C   UNL     1     -12.629 -11.428  18.567  0.00  0.00    +0.200 C 
ENDBRANCH  25   1
ENDBRANCH  15  17
ENDBRANCH   7  15
BRANCH   8  16
ATOM     16  C   UNL     1      -2.684 -12.156  12.114  0.00  0.00    +0.144 C 
BRANCH  16  18
ATOM      2  F   UNL     1      -4.830  -9.344   7.733  0.00  0.00    -0.205 F 
ATOM     18  C   UNL     1      -3.257 -11.406  10.945  0.00  0.00    -0.030 A 
ATOM     21  C   UNL     1      -3.941 -12.094   9.943  0.00  0.00    +0.008 A 
ATOM     22  C   UNL     1      -3.104 -10.022  10.863  0.00  0.00    +0.008 A 
ATOM     26  C   UNL     1      -4.473 -11.397   8.858  0.00  0.00    +0.038 A 
ATOM     27  C   UNL     1      -3.635  -9.325   9.777  0.00  0.00    +0.038 A 
ATOM     28  C   UNL     1      -4.320 -10.013   8.775  0.00  0.00    +0.123 A 
ENDBRANCH  16  18
ENDBRANCH   8  16
TORSDOF 5
ENDMDL
MODEL 8
REMARK VINA RESULT:      -6.4      5.088     10.452
REMARK  Name = 75368610
REMARK  6 active torsions:
REMARK  status: ('A' for Active; 'I' for Inactive)
REMARK    1  A    between atoms: S_1  and  C_25
REMARK    2  A    between atoms: S_1  and  C_29
REMARK    3  A    between atoms: N_7  and  C_15
REMARK    4  A    between atoms: N_8  and  C_16
REMARK    5  A    between atoms: C_15  and  C_17
REMARK    6  A    between atoms: C_16  and  C_18
REMARK                            x       y       z     vdW  Elec       q    Type
REMARK                         _______ _______ _______ _____ _____    ______ ____
ROOT
ATOM      3  O   UNL     1     -18.291   3.473  22.667  0.00  0.00    -0.252 OA
ATOM      6  N   UNL     1     -16.273   4.650  22.904  0.00  0.00    -0.278 N 
ATOM      7  N   UNL     1     -13.815   5.819  22.192  0.00  0.00    -0.295 NA
ATOM      8  N   UNL     1     -16.821   3.150  24.483  0.00  0.00    -0.279 N 
ATOM      9  C   UNL     1     -15.242   4.790  23.912  0.00  0.00    +0.109 C 
ATOM     10  C   UNL     1     -13.859   4.802  23.262  0.00  0.00    +0.109 C 
ATOM     11  C   UNL     1     -15.497   3.616  24.857  0.00  0.00    +0.133 C 
ATOM     12  C   UNL     1     -16.238   5.501  21.733  0.00  0.00    +0.125 C 
ATOM     13  C   UNL     1     -14.823   5.531  21.150  0.00  0.00    +0.104 C 
ATOM     14  C   UNL     1     -17.261   3.729  23.276  0.00  0.00    +0.305 C 
ENDROOT
BRANCH   7  15
ATOM     15  C   UNL     1     -12.478   5.880  21.603  0.00  0.00    +0.119 C 
BRANCH  15  17
ATOM     17  C   UNL     1     -12.232   7.184  20.902  0.00  0.00    -0.033 A 
ATOM     19  C   UNL     1     -11.547   7.204  19.687  0.00  0.00    +0.007 A 
ATOM     20  C   UNL     1     -12.687   8.375  21.467  0.00  0.00    +0.007 A 
ATOM     23  C   UNL     1     -11.318   8.417  19.035  0.00  0.00    +0.027 A 
ATOM     24  C   UNL     1     -12.457   9.588  20.815  0.00  0.00    +0.027 A 
ATOM     25  C   UNL     1     -11.773   9.609  19.600  0.00  0.00    +0.088 A 
BRANCH  25   1
ATOM      1  S   UNL     1     -11.491  11.125  18.783  0.00  0.00    -0.006 S 
ATOM      4  O   UNL     1     -11.970  12.212  19.625  0.00  0.00    -0.170 OA
ATOM      5  O   UNL     1     -10.113  11.130  18.311  0.00  0.00    -0.170 OA
ATOM     29  C   UNL     1     -12.555  11.066  17.359  0.00  0.00    +0.200 C 
ENDBRANCH  25   1
ENDBRANCH  15  17
ENDBRANCH   7  15
BRANCH   8  16
ATOM     16  C   UNL     1     -17.499   2.101  25.214  0.00  0.00    +0.144 C 
BRANCH  16  18
ATOM      2  F   UNL     1     -16.261   2.226  30.706  0.00  0.00    -0.205 F 
ATOM     18  C   UNL     1     -17.168   2.134  26.679  0.00  0.00    -0.030 A 
ATOM     21  C   UNL     1     -16.524   1.049  27.273  0.00  0.00    +0.008 A 
ATOM     22  C   UNL     1     -17.507   3.250  27.446  0.00  0.00    +0.008 A 
ATOM     26  C   UNL     1     -16.216   1.081  28.634  0.00  0.00    +0.038 A 
ATOM     27  C   UNL     1     -17.201   3.280  28.806  0.00  0.00    +0.038 A 
ATOM     28  C   UNL     1     -16.555   2.195  29.400  0.00  0.00    +0.123 A 
ENDBRANCH  16  18
ENDBRANCH   8  16
TORSDOF 5
ENDMDL
MODEL 9
REMARK VINA RESULT:      -6.3     31.188     36.030
REMARK  Name = 75368610
REMARK  6 active torsions:
REMARK  status: ('A' for Active; 'I' for Inactive)
REMARK    1  A    between atoms: S_1  and  C_25
REMARK    2  A    between atoms: S_1  and  C_29
REMARK    3  A    between atoms: N_7  and  C_15
REMARK    4  A    between atoms: N_8  and  C_16
REMARK    5  A    between atoms: C_15  and  C_17
REMARK    6  A    between atoms: C_16  and  C_18
REMARK                            x       y       z     vdW  Elec       q    Type
REMARK                         _______ _______ _______ _____ _____    ______ ____
ROOT
ATOM      3  O   UNL     1      12.058   7.955   3.861  0.00  0.00    -0.252 OA
ATOM      6  N   UNL     1      12.800   6.061   2.688  0.00  0.00    -0.278 N 
ATOM      7  N   UNL     1      14.067   4.540   0.689  0.00  0.00    -0.295 NA
ATOM      8  N   UNL     1      10.688   6.079   3.451  0.00  0.00    -0.279 N 
ATOM      9  C   UNL     1      12.293   4.739   2.383  0.00  0.00    +0.109 C 
ATOM     10  C   UNL     1      12.621   4.363   0.938  0.00  0.00    +0.109 C 
ATOM     11  C   UNL     1      10.801   4.843   2.695  0.00  0.00    +0.133 C 
ATOM     12  C   UNL     1      14.168   6.390   2.346  0.00  0.00    +0.125 C 
ATOM     13  C   UNL     1      14.472   5.942   0.914  0.00  0.00    +0.104 C 
ATOM     14  C   UNL     1      11.874   6.838   3.396  0.00  0.00    +0.305 C 
ENDROOT
BRANCH   7  15
ATOM     15  C   UNL     1      14.401   4.125  -0.673  0.00  0.00    +0.119 C 
BRANCH  15  17
ATOM     17  C   UNL     1      13.175   3.845  -1.492  0.00  0.00    -0.033 A 
ATOM     19  C   UNL     1      12.496   4.895  -2.111  0.00  0.00    +0.007 A 
ATOM     20  C   UNL     1      12.715   2.537  -1.634  0.00  0.00    +0.007 A 
ATOM     23  C   UNL     1      11.355   4.636  -2.872  0.00  0.00    +0.027 A 
ATOM     24  C   UNL     1      11.575   2.277  -2.395  0.00  0.00    +0.027 A 
ATOM     25  C   UNL     1      10.895   3.326  -3.014  0.00  0.00    +0.088 A 
BRANCH  25   1
ATOM      1  S   UNL     1       9.471   3.000  -3.970  0.00  0.00    -0.006 S 
ATOM      4  O   UNL     1       8.932   1.702  -3.588  0.00  0.00    -0.170 OA
ATOM      5  O   UNL     1       8.618   4.180  -3.920  0.00  0.00    -0.170 OA
ATOM     29  C   UNL     1      10.081   2.839  -5.633  0.00  0.00    +0.200 C 
ENDBRANCH  25   1
ENDBRANCH  15  17
ENDBRANCH   7  15
BRANCH   8  16
ATOM     16  C   UNL     1       9.439   6.504   4.043  0.00  0.00    +0.144 C 
BRANCH  16  18
ATOM      2  F   UNL     1       9.310   5.566   9.594  0.00  0.00    -0.205 F 
ATOM     18  C   UNL     1       9.404   6.254   5.524  0.00  0.00    -0.030 A 
ATOM     21  C   UNL     1       8.917   7.237   6.385  0.00  0.00    +0.008 A 
ATOM     22  C   UNL     1       9.859   5.039   6.037  0.00  0.00    +0.008 A 
ATOM     26  C   UNL     1       8.885   7.004   7.760  0.00  0.00    +0.038 A 
ATOM     27  C   UNL     1       9.828   4.807   7.411  0.00  0.00    +0.038 A 
ATOM     28  C   UNL     1       9.340   5.790   8.273  0.00  0.00    +0.123 A 
ENDBRANCH  16  18
ENDBRANCH   8  16
TORSDOF 5
ENDMDL
MODEL 10
REMARK VINA RESULT:      -6.3     22.987     24.476
REMARK  Name = 75368610
REMARK  6 active torsions:
REMARK  status: ('A' for Active; 'I' for Inactive)
REMARK    1  A    between atoms: S_1  and  C_25
REMARK    2  A    between atoms: S_1  and  C_29
REMARK    3  A    between atoms: N_7  and  C_15
REMARK    4  A    between atoms: N_8  and  C_16
REMARK    5  A    between atoms: C_15  and  C_17
REMARK    6  A    between atoms: C_16  and  C_18
REMARK                            x       y       z     vdW  Elec       q    Type
REMARK                         _______ _______ _______ _____ _____    ______ ____
ROOT
ATOM      3  O   UNL     1      -5.207 -10.024   6.484  0.00  0.00    -0.252 OA
ATOM      6  N   UNL     1      -4.764 -10.452   8.750  0.00  0.00    -0.278 N 
ATOM      7  N   UNL     1      -3.485 -10.294  11.252  0.00  0.00    -0.295 NA
ATOM      8  N   UNL     1      -5.239 -12.192   7.413  0.00  0.00    -0.279 N 
ATOM      9  C   UNL     1      -4.823 -11.591   9.643  0.00  0.00    +0.109 C 
ATOM     10  C   UNL     1      -3.611 -11.601  10.574  0.00  0.00    +0.109 C 
ATOM     11  C   UNL     1      -4.916 -12.787   8.698  0.00  0.00    +0.133 C 
ATOM     12  C   UNL     1      -4.495  -9.137   9.296  0.00  0.00    +0.125 C 
ATOM     13  C   UNL     1      -3.314  -9.206  10.268  0.00  0.00    +0.104 C 
ATOM     14  C   UNL     1      -5.089 -10.791   7.431  0.00  0.00    +0.305 C 
ENDROOT
BRANCH   7  15
ATOM     15  C   UNL     1      -2.364 -10.313  12.190  0.00  0.00    +0.119 C 
BRANCH  15  17
ATOM     17  C   UNL     1      -2.813 -10.587  13.596  0.00  0.00    -0.033 A 
ATOM     19  C   UNL     1      -4.167 -10.774  13.871  0.00  0.00    +0.007 A 
ATOM     20  C   UNL     1      -1.876 -10.654  14.626  0.00  0.00    +0.007 A 
ATOM     23  C   UNL     1      -4.585 -11.029  15.178  0.00  0.00    +0.027 A 
ATOM     24  C   UNL     1      -2.293 -10.908  15.933  0.00  0.00    +0.027 A 
ATOM     25  C   UNL     1      -3.647 -11.095  16.209  0.00  0.00    +0.088 A 
BRANCH  25   1
ATOM      1  S   UNL     1      -4.169 -11.418  17.843  0.00  0.00    -0.006 S 
ATOM      4  O   UNL     1      -2.996 -11.620  18.683  0.00  0.00    -0.170 OA
ATOM      5  O   UNL     1      -5.152 -10.407  18.208  0.00  0.00    -0.170 OA
ATOM     29  C   UNL     1      -5.007 -12.983  17.740  0.00  0.00    +0.200 C 
ENDBRANCH  25   1
ENDBRANCH  15  17
ENDBRANCH   7  15
BRANCH   8  16
ATOM     16  C   UNL     1      -5.525 -12.997   6.246  0.00  0.00    +0.144 C 
BRANCH  16  18
ATOM      2  F   UNL     1      -1.058 -13.446   2.847  0.00  0.00    -0.205 F 
ATOM     18  C   UNL     1      -4.333 -13.117   5.340  0.00  0.00    -0.030 A 
ATOM     21  C   UNL     1      -3.229 -13.872   5.735  0.00  0.00    +0.008 A 
ATOM     22  C   UNL     1      -4.331 -12.473   4.102  0.00  0.00    +0.008 A 
ATOM     26  C   UNL     1      -2.123 -13.984   4.893  0.00  0.00    +0.038 A 
ATOM     27  C   UNL     1      -3.224 -12.583   3.261  0.00  0.00    +0.038 A 
ATOM     28  C   UNL     1      -2.120 -13.340   3.656  0.00  0.00    +0.123 A 
ENDBRANCH  16  18
ENDBRANCH   8  16
TORSDOF 5
ENDMDL
