MODEL 1
REMARK VINA RESULT:      -7.1      0.000      0.000
REMARK  Name = 26743171
REMARK  11 active torsions:
REMARK  status: ('A' for Active; 'I' for Inactive)
REMARK    1  A    between atoms: O_3  and  C_20
REMARK    2  A    between atoms: O_3  and  C_26
REMARK    3  A    between atoms: O_4  and  C_27
REMARK    4  A    between atoms: O_4  and  C_33
REMARK    5  A    between atoms: N_6  and  C_19
REMARK    6  A    between atoms: C_8  and  C_14
REMARK    7  A    between atoms: C_9  and  C_13
REMARK    8  A    between atoms: C_13  and  C_15
REMARK    9  A    between atoms: C_14  and  C_16
REMARK   10  A    between atoms: C_18  and  C_20
REMARK   11  A    between atoms: C_19  and  C_21
REMARK                            x       y       z     vdW  Elec       q    Type
REMARK                         _______ _______ _______ _____ _____    ______ ____
ROOT
ATOM      5  N   UNL     1      -4.565 -11.954  19.595  0.00  0.00    -0.316 NA
ATOM      8  C   UNL     1      -6.669 -10.741  17.959  0.00  0.00    +0.004 C 
ATOM      9  C   UNL     1      -5.372 -11.303  17.327  0.00  0.00    +0.012 C 
ATOM     10  C   UNL     1      -6.440 -10.343  19.425  0.00  0.00    +0.019 C 
ATOM     11  C   UNL     1      -4.806 -12.417  18.228  0.00  0.00    +0.085 C 
ATOM     12  C   UNL     1      -5.800 -11.481  20.219  0.00  0.00    +0.081 C 
ATOM     34  H   UNL     1      -3.880 -11.198  19.586  0.00  0.00    +0.122 HD
ENDROOT
BRANCH   9  13
ATOM     13  C   UNL     1      -4.306 -10.236  17.046  0.00  0.00    +0.064 C 
BRANCH  13  15
ATOM      2  O   UNL     1      -1.437 -11.138  15.068  0.00  0.00    -0.356 OA
ATOM      7  N   UNL     1      -2.027 -10.657  16.231  0.00  0.00    -0.083 NA
ATOM     15  C   UNL     1      -3.342 -10.691  15.991  0.00  0.00    +0.084 A 
ATOM     17  C   UNL     1      -3.637 -11.179  14.706  0.00  0.00    +0.074 A 
ATOM     18  C   UNL     1      -2.406 -11.445  14.168  0.00  0.00    +0.175 A 
BRANCH  18  20
ATOM     20  C   UNL     1      -1.954 -11.972  12.875  0.00  0.00    +0.306 C 
BRANCH  20   3
ATOM      3  O   UNL     1      -1.670 -10.898  11.974  0.00  0.00    -0.484 OA
BRANCH   3  26
ATOM     26  C   UNL     1      -2.621 -10.629  11.029  0.00  0.00    +0.121 A 
ATOM     28  C   UNL     1      -2.765  -9.333  10.536  0.00  0.00    +0.045 A 
ATOM     29  C   UNL     1      -3.445 -11.650  10.558  0.00  0.00    +0.045 A 
ATOM     30  C   UNL     1      -3.736  -9.058   9.572  0.00  0.00    +0.004 A 
ATOM     31  C   UNL     1      -4.415 -11.376   9.595  0.00  0.00    +0.004 A 
ATOM     32  C   UNL     1      -4.561 -10.079   9.101  0.00  0.00    +0.000 A 
ENDBRANCH   3  26
ENDBRANCH  20   3
ENDBRANCH  18  20
ENDBRANCH  13  15
ENDBRANCH   9  13
BRANCH   8  14
ATOM     14  C   UNL     1      -7.277  -9.583  17.170  0.00  0.00    +0.099 C 
BRANCH  14  16
ATOM      1  O   UNL     1      -9.265 -10.483  16.126  0.00  0.00    -0.276 OA
ATOM      6  N   UNL     1      -9.482  -8.958  17.866  0.00  0.00    -0.311 N 
ATOM     16  C   UNL     1      -8.769  -9.746  16.973  0.00  0.00    +0.214 C 
ATOM     35  H   UNL     1      -8.980  -8.373  18.528  0.00  0.00    +0.149 HD
BRANCH   6  19
ATOM     19  C   UNL     1     -10.926  -8.915  17.902  0.00  0.00    +0.139 C 
BRANCH  19  21
ATOM     21  C   UNL     1     -11.488  -8.024  16.832  0.00  0.00    -0.030 A 
ATOM     22  C   UNL     1     -11.071  -6.696  16.740  0.00  0.00    +0.009 A 
ATOM     23  C   UNL     1     -12.426  -8.525  15.930  0.00  0.00    +0.009 A 
ATOM     24  C   UNL     1     -11.594  -5.868  15.746  0.00  0.00    +0.046 A 
ATOM     25  C   UNL     1     -12.949  -7.698  14.936  0.00  0.00    +0.046 A 
ATOM     27  C   UNL     1     -12.532  -6.370  14.844  0.00  0.00    +0.120 A 
BRANCH  27   4
ATOM      4  O   UNL     1     -13.041  -5.562  13.873  0.00  0.00    -0.495 OA
ATOM     33  C   UNL     1     -13.542  -6.197  12.697  0.00  0.00    +0.277 C 
ENDBRANCH  27   4
ENDBRANCH  19  21
ENDBRANCH   6  19
ENDBRANCH  14  16
ENDBRANCH   8  14
TORSDOF 10
ENDMDL
MODEL 2
REMARK VINA RESULT:      -7.0      1.996      3.509
REMARK  Name = 26743171
REMARK  11 active torsions:
REMARK  status: ('A' for Active; 'I' for Inactive)
REMARK    1  A    between atoms: O_3  and  C_20
REMARK    2  A    between atoms: O_3  and  C_26
REMARK    3  A    between atoms: O_4  and  C_27
REMARK    4  A    between atoms: O_4  and  C_33
REMARK    5  A    between atoms: N_6  and  C_19
REMARK    6  A    between atoms: C_8  and  C_14
REMARK    7  A    between atoms: C_9  and  C_13
REMARK    8  A    between atoms: C_13  and  C_15
REMARK    9  A    between atoms: C_14  and  C_16
REMARK   10  A    between atoms: C_18  and  C_20
REMARK   11  A    between atoms: C_19  and  C_21
REMARK                            x       y       z     vdW  Elec       q    Type
REMARK                         _______ _______ _______ _____ _____    ______ ____
ROOT
ATOM      5  N   UNL     1      -4.703 -12.022  19.351  0.00  0.00    -0.316 NA
ATOM      8  C   UNL     1      -6.640 -10.579  17.695  0.00  0.00    +0.004 C 
ATOM      9  C   UNL     1      -5.362 -11.207  17.088  0.00  0.00    +0.012 C 
ATOM     10  C   UNL     1      -6.445 -10.269  19.187  0.00  0.00    +0.019 C 
ATOM     11  C   UNL     1      -4.918 -12.401  17.953  0.00  0.00    +0.085 C 
ATOM     12  C   UNL     1      -5.926 -11.488  19.948  0.00  0.00    +0.081 C 
ATOM     34  H   UNL     1      -3.965 -11.321  19.406  0.00  0.00    +0.122 HD
ENDROOT
BRANCH   9  13
ATOM     13  C   UNL     1      -4.209 -10.211  16.903  0.00  0.00    +0.064 C 
BRANCH  13  15
ATOM      2  O   UNL     1      -1.401 -11.308  14.935  0.00  0.00    -0.356 OA
ATOM      7  N   UNL     1      -1.985 -10.917  16.135  0.00  0.00    -0.083 NA
ATOM     15  C   UNL     1      -3.262 -10.664  15.831  0.00  0.00    +0.084 A 
ATOM     17  C   UNL     1      -3.538 -10.876  14.469  0.00  0.00    +0.074 A 
ATOM     18  C   UNL     1      -2.336 -11.280  13.951  0.00  0.00    +0.175 A 
BRANCH  18  20
ATOM     20  C   UNL     1      -1.886 -11.668  12.610  0.00  0.00    +0.306 C 
BRANCH  20   3
ATOM      3  O   UNL     1      -1.813 -10.520  11.759  0.00  0.00    -0.484 OA
BRANCH   3  26
ATOM     26  C   UNL     1      -2.805 -10.387  10.829  0.00  0.00    +0.121 A 
ATOM     28  C   UNL     1      -3.067  -9.141  10.262  0.00  0.00    +0.045 A 
ATOM     29  C   UNL     1      -3.556 -11.499  10.446  0.00  0.00    +0.045 A 
ATOM     30  C   UNL     1      -4.080  -9.005   9.313  0.00  0.00    +0.004 A 
ATOM     31  C   UNL     1      -4.568 -11.363   9.497  0.00  0.00    +0.004 A 
ATOM     32  C   UNL     1      -4.831 -10.116   8.930  0.00  0.00    +0.000 A 
ENDBRANCH   3  26
ENDBRANCH  20   3
ENDBRANCH  18  20
ENDBRANCH  13  15
ENDBRANCH   9  13
BRANCH   8  14
ATOM     14  C   UNL     1      -7.127  -9.343  16.942  0.00  0.00    +0.099 C 
BRANCH  14  16
ATOM      1  O   UNL     1      -9.076  -9.986  15.663  0.00  0.00    -0.276 OA
ATOM      6  N   UNL     1      -9.347  -8.723  17.595  0.00  0.00    -0.311 N 
ATOM     16  C   UNL     1      -8.608  -9.405  16.637  0.00  0.00    +0.214 C 
ATOM     35  H   UNL     1      -8.867  -8.266  18.364  0.00  0.00    +0.149 HD
BRANCH   6  19
ATOM     19  C   UNL     1     -10.787  -8.618  17.553  0.00  0.00    +0.139 C 
BRANCH  19  21
ATOM     21  C   UNL     1     -11.446  -9.505  18.569  0.00  0.00    -0.030 A 
ATOM     22  C   UNL     1     -12.837  -9.544  18.664  0.00  0.00    +0.009 A 
ATOM     23  C   UNL     1     -10.667 -10.293  19.417  0.00  0.00    +0.009 A 
ATOM     24  C   UNL     1     -13.449 -10.369  19.608  0.00  0.00    +0.046 A 
ATOM     25  C   UNL     1     -11.278 -11.117  20.361  0.00  0.00    +0.046 A 
ATOM     27  C   UNL     1     -12.669 -11.156  20.456  0.00  0.00    +0.120 A 
BRANCH  27   4
ATOM      4  O   UNL     1     -13.267 -11.961  21.377  0.00  0.00    -0.495 OA
ATOM     33  C   UNL     1     -12.631 -13.207  21.658  0.00  0.00    +0.277 C 
ENDBRANCH  27   4
ENDBRANCH  19  21
ENDBRANCH   6  19
ENDBRANCH  14  16
ENDBRANCH   8  14
TORSDOF 10
ENDMDL
MODEL 3
REMARK VINA RESULT:      -6.9      3.025      6.755
REMARK  Name = 26743171
REMARK  11 active torsions:
REMARK  status: ('A' for Active; 'I' for Inactive)
REMARK    1  A    between atoms: O_3  and  C_20
REMARK    2  A    between atoms: O_3  and  C_26
REMARK    3  A    between atoms: O_4  and  C_27
REMARK    4  A    between atoms: O_4  and  C_33
REMARK    5  A    between atoms: N_6  and  C_19
REMARK    6  A    between atoms: C_8  and  C_14
REMARK    7  A    between atoms: C_9  and  C_13
REMARK    8  A    between atoms: C_13  and  C_15
REMARK    9  A    between atoms: C_14  and  C_16
REMARK   10  A    between atoms: C_18  and  C_20
REMARK   11  A    between atoms: C_19  and  C_21
REMARK                            x       y       z     vdW  Elec       q    Type
REMARK                         _______ _______ _______ _____ _____    ______ ____
ROOT
ATOM      5  N   UNL     1     -11.860 -10.443  18.990  0.00  0.00    -0.316 NA
ATOM      8  C   UNL     1      -9.138 -11.325  19.616  0.00  0.00    +0.004 C 
ATOM      9  C   UNL     1      -9.450 -10.494  18.348  0.00  0.00    +0.012 C 
ATOM     10  C   UNL     1     -10.379 -12.100  20.085  0.00  0.00    +0.019 C 
ATOM     11  C   UNL     1     -10.705  -9.635  18.596  0.00  0.00    +0.085 C 
ATOM     12  C   UNL     1     -11.592 -11.181  20.224  0.00  0.00    +0.081 C 
ATOM     34  H   UNL     1     -12.089 -11.100  18.245  0.00  0.00    +0.122 HD
ENDROOT
BRANCH   9  13
ATOM     13  C   UNL     1      -9.611 -11.338  17.077  0.00  0.00    +0.064 C 
BRANCH  13  15
ATOM      2  O   UNL     1      -6.976  -9.889  15.098  0.00  0.00    -0.356 OA
ATOM      7  N   UNL     1      -7.859  -9.873  16.171  0.00  0.00    -0.083 NA
ATOM     15  C   UNL     1      -8.550 -11.013  16.067  0.00  0.00    +0.084 A 
ATOM     17  C   UNL     1      -8.149 -11.780  14.960  0.00  0.00    +0.074 A 
ATOM     18  C   UNL     1      -7.158 -11.030  14.384  0.00  0.00    +0.175 A 
BRANCH  18  20
ATOM     20  C   UNL     1      -6.300 -11.210  13.208  0.00  0.00    +0.306 C 
BRANCH  20   3
ATOM      3  O   UNL     1      -5.236 -10.254  13.218  0.00  0.00    -0.484 OA
BRANCH   3  26
ATOM     26  C   UNL     1      -4.824  -9.788  12.002  0.00  0.00    +0.121 A 
ATOM     28  C   UNL     1      -5.594  -8.848  11.318  0.00  0.00    +0.045 A 
ATOM     29  C   UNL     1      -3.633 -10.253  11.444  0.00  0.00    +0.045 A 
ATOM     30  C   UNL     1      -5.173  -8.373  10.075  0.00  0.00    +0.004 A 
ATOM     31  C   UNL     1      -3.212  -9.777  10.202  0.00  0.00    +0.004 A 
ATOM     32  C   UNL     1      -3.983  -8.838   9.517  0.00  0.00    +0.000 A 
ENDBRANCH   3  26
ENDBRANCH  20   3
ENDBRANCH  18  20
ENDBRANCH  13  15
ENDBRANCH   9  13
BRANCH   8  14
ATOM     14  C   UNL     1      -7.943 -12.262  19.450  0.00  0.00    +0.099 C 
BRANCH  14  16
ATOM      1  O   UNL     1      -6.158 -11.070  20.565  0.00  0.00    -0.276 OA
ATOM      6  N   UNL     1      -6.028 -11.435  18.273  0.00  0.00    -0.311 N 
ATOM     16  C   UNL     1      -6.623 -11.524  19.524  0.00  0.00    +0.214 C 
ATOM     35  H   UNL     1      -6.495 -11.837  17.467  0.00  0.00    +0.149 HD
BRANCH   6  19
ATOM     19  C   UNL     1      -4.759 -10.781  18.048  0.00  0.00    +0.139 C 
BRANCH  19  21
ATOM     21  C   UNL     1      -4.056 -11.319  16.836  0.00  0.00    -0.030 A 
ATOM     22  C   UNL     1      -4.487 -12.510  16.251  0.00  0.00    +0.009 A 
ATOM     23  C   UNL     1      -2.973 -10.629  16.293  0.00  0.00    +0.009 A 
ATOM     24  C   UNL     1      -3.834 -13.011  15.124  0.00  0.00    +0.046 A 
ATOM     25  C   UNL     1      -2.319 -11.128  15.167  0.00  0.00    +0.046 A 
ATOM     27  C   UNL     1      -2.751 -12.319  14.582  0.00  0.00    +0.120 A 
BRANCH  27   4
ATOM      4  O   UNL     1      -2.114 -12.807  13.482  0.00  0.00    -0.495 OA
ATOM     33  C   UNL     1      -1.684 -14.167  13.532  0.00  0.00    +0.277 C 
ENDBRANCH  27   4
ENDBRANCH  19  21
ENDBRANCH   6  19
ENDBRANCH  14  16
ENDBRANCH   8  14
TORSDOF 10
ENDMDL
MODEL 4
REMARK VINA RESULT:      -6.9     27.666     30.077
REMARK  Name = 26743171
REMARK  11 active torsions:
REMARK  status: ('A' for Active; 'I' for Inactive)
REMARK    1  A    between atoms: O_3  and  C_20
REMARK    2  A    between atoms: O_3  and  C_26
REMARK    3  A    between atoms: O_4  and  C_27
REMARK    4  A    between atoms: O_4  and  C_33
REMARK    5  A    between atoms: N_6  and  C_19
REMARK    6  A    between atoms: C_8  and  C_14
REMARK    7  A    between atoms: C_9  and  C_13
REMARK    8  A    between atoms: C_13  and  C_15
REMARK    9  A    between atoms: C_14  and  C_16
REMARK   10  A    between atoms: C_18  and  C_20
REMARK   11  A    between atoms: C_19  and  C_21
REMARK                            x       y       z     vdW  Elec       q    Type
REMARK                         _______ _______ _______ _____ _____    ______ ____
ROOT
ATOM      5  N   UNL     1      16.893  10.751  20.118  0.00  0.00    -0.316 NA
ATOM      8  C   UNL     1      15.438   8.965  21.926  0.00  0.00    +0.004 C 
ATOM      9  C   UNL     1      16.919   8.712  21.553  0.00  0.00    +0.012 C 
ATOM     10  C   UNL     1      14.728   9.784  20.837  0.00  0.00    +0.019 C 
ATOM     11  C   UNL     1      17.593  10.050  21.195  0.00  0.00    +0.085 C 
ATOM     12  C   UNL     1      15.511  11.050  20.491  0.00  0.00    +0.081 C 
ATOM     34  H   UNL     1      16.900  10.177  19.275  0.00  0.00    +0.122 HD
ENDROOT
BRANCH   9  13
ATOM     13  C   UNL     1      17.108   7.689  20.425  0.00  0.00    +0.064 C 
BRANCH  13  15
ATOM      2  O   UNL     1      19.743   5.237  20.340  0.00  0.00    -0.356 OA
ATOM      7  N   UNL     1      18.569   5.799  19.850  0.00  0.00    -0.083 NA
ATOM     15  C   UNL     1      18.319   6.834  20.658  0.00  0.00    +0.084 A 
ATOM     17  C   UNL     1      19.290   6.972  21.665  0.00  0.00    +0.074 A 
ATOM     18  C   UNL     1      20.162   5.944  21.420  0.00  0.00    +0.175 A 
BRANCH  18  20
ATOM     20  C   UNL     1      21.397   5.483  22.065  0.00  0.00    +0.306 C 
BRANCH  20   3
ATOM      3  O   UNL     1      21.590   4.087  21.826  0.00  0.00    -0.484 OA
BRANCH   3  26
ATOM     26  C   UNL     1      22.749   3.731  21.194  0.00  0.00    +0.121 A 
ATOM     28  C   UNL     1      23.479   4.686  20.488  0.00  0.00    +0.045 A 
ATOM     29  C   UNL     1      23.201   2.413  21.256  0.00  0.00    +0.045 A 
ATOM     30  C   UNL     1      24.661   4.323  19.842  0.00  0.00    +0.004 A 
ATOM     31  C   UNL     1      24.383   2.050  20.612  0.00  0.00    +0.004 A 
ATOM     32  C   UNL     1      25.113   3.005  19.904  0.00  0.00    +0.000 A 
ENDBRANCH   3  26
ENDBRANCH  20   3
ENDBRANCH  18  20
ENDBRANCH  13  15
ENDBRANCH   9  13
BRANCH   8  14
ATOM     14  C   UNL     1      14.663   7.687  22.237  0.00  0.00    +0.099 C 
BRANCH  14  16
ATOM      1  O   UNL     1      12.289   7.941  21.850  0.00  0.00    -0.276 OA
ATOM      6  N   UNL     1      13.625   7.030  20.181  0.00  0.00    -0.311 N 
ATOM     16  C   UNL     1      13.385   7.582  21.432  0.00  0.00    +0.214 C 
ATOM     35  H   UNL     1      14.569   6.756  19.928  0.00  0.00    +0.149 HD
BRANCH   6  19
ATOM     19  C   UNL     1      12.585   6.811  19.202  0.00  0.00    +0.139 C 
BRANCH  19  21
ATOM     21  C   UNL     1      12.723   7.727  18.020  0.00  0.00    -0.030 A 
ATOM     22  C   UNL     1      11.598   8.363  17.496  0.00  0.00    +0.009 A 
ATOM     23  C   UNL     1      13.976   7.942  17.448  0.00  0.00    +0.009 A 
ATOM     24  C   UNL     1      11.725   9.213  16.397  0.00  0.00    +0.046 A 
ATOM     25  C   UNL     1      14.105   8.792  16.350  0.00  0.00    +0.046 A 
ATOM     27  C   UNL     1      12.980   9.428  15.825  0.00  0.00    +0.120 A 
BRANCH  27   4
ATOM      4  O   UNL     1      13.104  10.259  14.754  0.00  0.00    -0.495 OA
ATOM     33  C   UNL     1      13.903  11.429  14.929  0.00  0.00    +0.277 C 
ENDBRANCH  27   4
ENDBRANCH  19  21
ENDBRANCH   6  19
ENDBRANCH  14  16
ENDBRANCH   8  14
TORSDOF 10
ENDMDL
MODEL 5
REMARK VINA RESULT:      -6.8     28.334     30.612
REMARK  Name = 26743171
REMARK  11 active torsions:
REMARK  status: ('A' for Active; 'I' for Inactive)
REMARK    1  A    between atoms: O_3  and  C_20
REMARK    2  A    between atoms: O_3  and  C_26
REMARK    3  A    between atoms: O_4  and  C_27
REMARK    4  A    between atoms: O_4  and  C_33
REMARK    5  A    between atoms: N_6  and  C_19
REMARK    6  A    between atoms: C_8  and  C_14
REMARK    7  A    between atoms: C_9  and  C_13
REMARK    8  A    between atoms: C_13  and  C_15
REMARK    9  A    between atoms: C_14  and  C_16
REMARK   10  A    between atoms: C_18  and  C_20
REMARK   11  A    between atoms: C_19  and  C_21
REMARK                            x       y       z     vdW  Elec       q    Type
REMARK                         _______ _______ _______ _____ _____    ______ ____
ROOT
ATOM      5  N   UNL     1      18.956   8.918  21.643  0.00  0.00    -0.316 NA
ATOM      8  C   UNL     1      16.711   7.128  21.069  0.00  0.00    +0.004 C 
ATOM      9  C   UNL     1      18.135   6.584  21.336  0.00  0.00    +0.012 C 
ATOM     10  C   UNL     1      16.762   8.571  20.545  0.00  0.00    +0.019 C 
ATOM     11  C   UNL     1      18.904   7.577  22.227  0.00  0.00    +0.085 C 
ATOM     12  C   UNL     1      17.613   9.463  21.449  0.00  0.00    +0.081 C 
ATOM     34  H   UNL     1      19.440   8.883  20.747  0.00  0.00    +0.122 HD
ENDROOT
BRANCH   9  13
ATOM     13  C   UNL     1      18.928   6.270  20.061  0.00  0.00    +0.064 C 
BRANCH  13  15
ATOM      2  O   UNL     1      22.474   6.343  20.678  0.00  0.00    -0.356 OA
ATOM      7  N   UNL     1      21.270   6.955  20.350  0.00  0.00    -0.083 NA
ATOM     15  C   UNL     1      20.366   5.971  20.370  0.00  0.00    +0.084 A 
ATOM     17  C   UNL     1      20.936   4.729  20.701  0.00  0.00    +0.074 A 
ATOM     18  C   UNL     1      22.262   5.018  20.884  0.00  0.00    +0.175 A 
BRANCH  18  20
ATOM     20  C   UNL     1      23.438   4.215  21.242  0.00  0.00    +0.306 C 
BRANCH  20   3
ATOM      3  O   UNL     1      23.154   2.823  21.082  0.00  0.00    -0.484 OA
BRANCH   3  26
ATOM     26  C   UNL     1      23.841   1.965  21.895  0.00  0.00    +0.121 A 
ATOM     28  C   UNL     1      24.835   1.145  21.361  0.00  0.00    +0.045 A 
ATOM     29  C   UNL     1      23.548   1.909  23.257  0.00  0.00    +0.045 A 
ATOM     30  C   UNL     1      25.535   0.268  22.190  0.00  0.00    +0.004 A 
ATOM     31  C   UNL     1      24.248   1.033  24.086  0.00  0.00    +0.004 A 
ATOM     32  C   UNL     1      25.242   0.212  23.553  0.00  0.00    +0.000 A 
ENDBRANCH   3  26
ENDBRANCH  20   3
ENDBRANCH  18  20
ENDBRANCH  13  15
ENDBRANCH   9  13
BRANCH   8  14
ATOM     14  C   UNL     1      15.885   6.241  20.139  0.00  0.00    +0.099 C 
BRANCH  14  16
ATOM      1  O   UNL     1      13.963   7.163  18.996  0.00  0.00    -0.276 OA
ATOM      6  N   UNL     1      13.777   6.556  21.231  0.00  0.00    -0.311 N 
ATOM     16  C   UNL     1      14.450   6.709  20.027  0.00  0.00    +0.214 C 
ATOM     35  H   UNL     1      14.269   6.177  22.034  0.00  0.00    +0.149 HD
BRANCH   6  19
ATOM     19  C   UNL     1      12.392   6.923  21.413  0.00  0.00    +0.139 C 
BRANCH  19  21
ATOM     21  C   UNL     1      12.243   8.337  21.896  0.00  0.00    -0.030 A 
ATOM     22  C   UNL     1      10.985   8.826  22.245  0.00  0.00    +0.009 A 
ATOM     23  C   UNL     1      13.364   9.161  21.997  0.00  0.00    +0.009 A 
ATOM     24  C   UNL     1      10.846  10.140  22.694  0.00  0.00    +0.046 A 
ATOM     25  C   UNL     1      13.226  10.474  22.445  0.00  0.00    +0.046 A 
ATOM     27  C   UNL     1      11.968  10.963  22.794  0.00  0.00    +0.120 A 
BRANCH  27   4
ATOM      4  O   UNL     1      11.833  12.245  23.233  0.00  0.00    -0.495 OA
ATOM     33  C   UNL     1      10.834  13.045  22.600  0.00  0.00    +0.277 C 
ENDBRANCH  27   4
ENDBRANCH  19  21
ENDBRANCH   6  19
ENDBRANCH  14  16
ENDBRANCH   8  14
TORSDOF 10
ENDMDL
MODEL 6
REMARK VINA RESULT:      -6.6      3.123      7.101
REMARK  Name = 26743171
REMARK  11 active torsions:
REMARK  status: ('A' for Active; 'I' for Inactive)
REMARK    1  A    between atoms: O_3  and  C_20
REMARK    2  A    between atoms: O_3  and  C_26
REMARK    3  A    between atoms: O_4  and  C_27
REMARK    4  A    between atoms: O_4  and  C_33
REMARK    5  A    between atoms: N_6  and  C_19
REMARK    6  A    between atoms: C_8  and  C_14
REMARK    7  A    between atoms: C_9  and  C_13
REMARK    8  A    between atoms: C_13  and  C_15
REMARK    9  A    between atoms: C_14  and  C_16
REMARK   10  A    between atoms: C_18  and  C_20
REMARK   11  A    between atoms: C_19  and  C_21
REMARK                            x       y       z     vdW  Elec       q    Type
REMARK                         _______ _______ _______ _____ _____    ______ ____
ROOT
ATOM      5  N   UNL     1      -4.562  -8.719   9.018  0.00  0.00    -0.316 NA
ATOM      8  C   UNL     1      -5.101 -11.333  10.223  0.00  0.00    +0.004 C 
ATOM      9  C   UNL     1      -4.557 -10.150  11.060  0.00  0.00    +0.012 C 
ATOM     10  C   UNL     1      -4.730 -11.175   8.741  0.00  0.00    +0.019 C 
ATOM     11  C   UNL     1      -4.993  -8.822  10.413  0.00  0.00    +0.085 C 
ATOM     12  C   UNL     1      -5.127  -9.798   8.209  0.00  0.00    +0.081 C 
ATOM     34  H   UNL     1      -3.544  -8.756   8.970  0.00  0.00    +0.122 HD
ENDROOT
BRANCH   9  13
ATOM     13  C   UNL     1      -3.037 -10.183  11.264  0.00  0.00    +0.064 C 
BRANCH  13  15
ATOM      2  O   UNL     1      -1.458 -10.225  14.499  0.00  0.00    -0.356 OA
ATOM      7  N   UNL     1      -1.440 -10.021  13.125  0.00  0.00    -0.083 NA
ATOM     15  C   UNL     1      -2.683 -10.299  12.718  0.00  0.00    +0.084 A 
ATOM     17  C   UNL     1      -3.519 -10.681  13.781  0.00  0.00    +0.074 A 
ATOM     18  C   UNL     1      -2.701 -10.619  14.878  0.00  0.00    +0.175 A 
BRANCH  18  20
ATOM     20  C   UNL     1      -2.897 -10.880  16.309  0.00  0.00    +0.306 C 
BRANCH  20   3
ATOM      3  O   UNL     1      -3.718 -12.036  16.494  0.00  0.00    -0.484 OA
BRANCH   3  26
ATOM     26  C   UNL     1      -4.803 -11.888  17.313  0.00  0.00    +0.121 A 
ATOM     28  C   UNL     1      -4.853 -10.830  18.219  0.00  0.00    +0.045 A 
ATOM     29  C   UNL     1      -5.859 -12.796  17.242  0.00  0.00    +0.045 A 
ATOM     30  C   UNL     1      -5.959 -10.680  19.056  0.00  0.00    +0.004 A 
ATOM     31  C   UNL     1      -6.965 -12.646  18.077  0.00  0.00    +0.004 A 
ATOM     32  C   UNL     1      -7.016 -11.588  18.984  0.00  0.00    +0.000 A 
ENDBRANCH   3  26
ENDBRANCH  20   3
ENDBRANCH  18  20
ENDBRANCH  13  15
ENDBRANCH   9  13
BRANCH   8  14
ATOM     14  C   UNL     1      -4.669 -12.700  10.749  0.00  0.00    +0.099 C 
BRANCH  14  16
ATOM      1  O   UNL     1      -5.304 -14.142  12.584  0.00  0.00    -0.276 OA
ATOM      6  N   UNL     1      -6.782 -12.501  11.860  0.00  0.00    -0.311 N 
ATOM     16  C   UNL     1      -5.591 -13.213  11.835  0.00  0.00    +0.214 C 
ATOM     35  H   UNL     1      -6.930 -11.751  11.192  0.00  0.00    +0.149 HD
BRANCH   6  19
ATOM     19  C   UNL     1      -7.847 -12.778  12.796  0.00  0.00    +0.139 C 
BRANCH  19  21
ATOM     21  C   UNL     1      -7.928 -11.741  13.879  0.00  0.00    -0.030 A 
ATOM     22  C   UNL     1      -9.081 -11.635  14.657  0.00  0.00    +0.009 A 
ATOM     23  C   UNL     1      -6.851 -10.886  14.108  0.00  0.00    +0.009 A 
ATOM     24  C   UNL     1      -9.157 -10.672  15.664  0.00  0.00    +0.046 A 
ATOM     25  C   UNL     1      -6.926  -9.923  15.114  0.00  0.00    +0.046 A 
ATOM     27  C   UNL     1      -8.079  -9.817  15.892  0.00  0.00    +0.120 A 
BRANCH  27   4
ATOM      4  O   UNL     1      -8.153  -8.878  16.875  0.00  0.00    -0.495 OA
ATOM     33  C   UNL     1      -9.456  -8.428  17.245  0.00  0.00    +0.277 C 
ENDBRANCH  27   4
ENDBRANCH  19  21
ENDBRANCH   6  19
ENDBRANCH  14  16
ENDBRANCH   8  14
TORSDOF 10
ENDMDL
MODEL 7
REMARK VINA RESULT:      -6.6     28.354     31.672
REMARK  Name = 26743171
REMARK  11 active torsions:
REMARK  status: ('A' for Active; 'I' for Inactive)
REMARK    1  A    between atoms: O_3  and  C_20
REMARK    2  A    between atoms: O_3  and  C_26
REMARK    3  A    between atoms: O_4  and  C_27
REMARK    4  A    between atoms: O_4  and  C_33
REMARK    5  A    between atoms: N_6  and  C_19
REMARK    6  A    between atoms: C_8  and  C_14
REMARK    7  A    between atoms: C_9  and  C_13
REMARK    8  A    between atoms: C_13  and  C_15
REMARK    9  A    between atoms: C_14  and  C_16
REMARK   10  A    between atoms: C_18  and  C_20
REMARK   11  A    between atoms: C_19  and  C_21
REMARK                            x       y       z     vdW  Elec       q    Type
REMARK                         _______ _______ _______ _____ _____    ______ ____
ROOT
ATOM      5  N   UNL     1      25.195   1.622  21.151  0.00  0.00    -0.316 NA
ATOM      8  C   UNL     1      23.392   1.531  23.457  0.00  0.00    +0.004 C 
ATOM      9  C   UNL     1      23.248   2.610  22.357  0.00  0.00    +0.012 C 
ATOM     10  C   UNL     1      24.832   0.999  23.522  0.00  0.00    +0.019 C 
ATOM     11  C   UNL     1      23.804   2.063  21.029  0.00  0.00    +0.085 C 
ATOM     12  C   UNL     1      25.326   0.557  22.145  0.00  0.00    +0.081 C 
ATOM     34  H   UNL     1      25.782   2.411  21.421  0.00  0.00    +0.122 HD
ENDROOT
BRANCH   9  13
ATOM     13  C   UNL     1      23.906   3.950  22.712  0.00  0.00    +0.064 C 
BRANCH  13  15
ATOM      2  O   UNL     1      22.047   6.932  23.493  0.00  0.00    -0.356 OA
ATOM      7  N   UNL     1      23.200   6.158  23.527  0.00  0.00    -0.083 NA
ATOM     15  C   UNL     1      22.882   5.035  22.875  0.00  0.00    +0.084 A 
ATOM     17  C   UNL     1      21.555   5.045  22.412  0.00  0.00    +0.074 A 
ATOM     18  C   UNL     1      21.074   6.259  22.826  0.00  0.00    +0.175 A 
BRANCH  18  20
ATOM     20  C   UNL     1      19.780   6.938  22.696  0.00  0.00    +0.306 C 
BRANCH  20   3
ATOM      3  O   UNL     1      19.602   7.415  21.359  0.00  0.00    -0.484 OA
BRANCH   3  26
ATOM     26  C   UNL     1      18.419   7.099  20.752  0.00  0.00    +0.121 A 
ATOM     28  C   UNL     1      18.369   6.064  19.819  0.00  0.00    +0.045 A 
ATOM     29  C   UNL     1      17.262   7.813  21.065  0.00  0.00    +0.045 A 
ATOM     30  C   UNL     1      17.161   5.743  19.198  0.00  0.00    +0.004 A 
ATOM     31  C   UNL     1      16.055   7.491  20.445  0.00  0.00    +0.004 A 
ATOM     32  C   UNL     1      16.005   6.457  19.511  0.00  0.00    +0.000 A 
ENDBRANCH   3  26
ENDBRANCH  20   3
ENDBRANCH  18  20
ENDBRANCH  13  15
ENDBRANCH   9  13
BRANCH   8  14
ATOM     14  C   UNL     1      22.924   2.000  24.833  0.00  0.00    +0.099 C 
BRANCH  14  16
ATOM      1  O   UNL     1      23.264   0.432  26.644  0.00  0.00    -0.276 OA
ATOM      6  N   UNL     1      21.308   0.323  25.394  0.00  0.00    -0.311 N 
ATOM     16  C   UNL     1      22.549   0.843  25.735  0.00  0.00    +0.214 C 
ATOM     35  H   UNL     1      20.792   0.727  24.618  0.00  0.00    +0.149 HD
BRANCH   6  19
ATOM     19  C   UNL     1      20.701  -0.789  26.087  0.00  0.00    +0.139 C 
BRANCH  19  21
ATOM     21  C   UNL     1      19.672  -1.485  25.243  0.00  0.00    -0.030 A 
ATOM     22  C   UNL     1      19.913  -2.776  24.773  0.00  0.00    +0.009 A 
ATOM     23  C   UNL     1      18.475  -0.841  24.931  0.00  0.00    +0.009 A 
ATOM     24  C   UNL     1      18.958  -3.422  23.988  0.00  0.00    +0.046 A 
ATOM     25  C   UNL     1      17.519  -1.487  24.147  0.00  0.00    +0.046 A 
ATOM     27  C   UNL     1      17.760  -2.777  23.676  0.00  0.00    +0.120 A 
BRANCH  27   4
ATOM      4  O   UNL     1      16.828  -3.409  22.911  0.00  0.00    -0.495 OA
ATOM     33  C   UNL     1      15.569  -2.754  22.751  0.00  0.00    +0.277 C 
ENDBRANCH  27   4
ENDBRANCH  19  21
ENDBRANCH   6  19
ENDBRANCH  14  16
ENDBRANCH   8  14
TORSDOF 10
ENDMDL
MODEL 8
REMARK VINA RESULT:      -6.5     24.767     28.219
REMARK  Name = 26743171
REMARK  11 active torsions:
REMARK  status: ('A' for Active; 'I' for Inactive)
REMARK    1  A    between atoms: O_3  and  C_20
REMARK    2  A    between atoms: O_3  and  C_26
REMARK    3  A    between atoms: O_4  and  C_27
REMARK    4  A    between atoms: O_4  and  C_33
REMARK    5  A    between atoms: N_6  and  C_19
REMARK    6  A    between atoms: C_8  and  C_14
REMARK    7  A    between atoms: C_9  and  C_13
REMARK    8  A    between atoms: C_13  and  C_15
REMARK    9  A    between atoms: C_14  and  C_16
REMARK   10  A    between atoms: C_18  and  C_20
REMARK   11  A    between atoms: C_19  and  C_21
REMARK                            x       y       z     vdW  Elec       q    Type
REMARK                         _______ _______ _______ _____ _____    ______ ____
ROOT
ATOM      5  N   UNL     1      15.329   6.722  -1.223  0.00  0.00    -0.316 NA
ATOM      8  C   UNL     1      13.572   5.113   0.480  0.00  0.00    +0.004 C 
ATOM      9  C   UNL     1      13.897   6.589   0.814  0.00  0.00    +0.012 C 
ATOM     10  C   UNL     1      14.683   4.485  -0.376  0.00  0.00    +0.019 C 
ATOM     11  C   UNL     1      14.230   7.346  -0.485  0.00  0.00    +0.085 C 
ATOM     12  C   UNL     1      15.001   5.347  -1.597  0.00  0.00    +0.081 C 
ATOM     34  H   UNL     1      16.172   6.725  -0.649  0.00  0.00    +0.122 HD
ENDROOT
BRANCH   9  13
ATOM     13  C   UNL     1      15.020   6.758   1.846  0.00  0.00    +0.064 C 
BRANCH  13  15
ATOM      2  O   UNL     1      13.765   9.031   4.340  0.00  0.00    -0.356 OA
ATOM      7  N   UNL     1      14.171   8.727   3.046  0.00  0.00    -0.083 NA
ATOM     15  C   UNL     1      14.523   7.438   3.088  0.00  0.00    +0.084 A 
ATOM     17  C   UNL     1      14.361   6.883   4.370  0.00  0.00    +0.074 A 
ATOM     18  C   UNL     1      13.883   7.925   5.119  0.00  0.00    +0.175 A 
BRANCH  18  20
ATOM     20  C   UNL     1      13.493   8.071   6.526  0.00  0.00    +0.306 C 
BRANCH  20   3
ATOM      3  O   UNL     1      12.823   6.892   6.980  0.00  0.00    -0.484 OA
BRANCH   3  26
ATOM     26  C   UNL     1      11.511   7.034   7.332  0.00  0.00    +0.121 A 
ATOM     28  C   UNL     1      10.924   8.299   7.342  0.00  0.00    +0.045 A 
ATOM     29  C   UNL     1      10.757   5.914   7.683  0.00  0.00    +0.045 A 
ATOM     30  C   UNL     1       9.585   8.444   7.703  0.00  0.00    +0.004 A 
ATOM     31  C   UNL     1       9.418   6.058   8.043  0.00  0.00    +0.004 A 
ATOM     32  C   UNL     1       8.831   7.324   8.053  0.00  0.00    +0.000 A 
ENDBRANCH   3  26
ENDBRANCH  20   3
ENDBRANCH  18  20
ENDBRANCH  13  15
ENDBRANCH   9  13
BRANCH   8  14
ATOM     14  C   UNL     1      13.288   4.258   1.714  0.00  0.00    +0.099 C 
BRANCH  14  16
ATOM      1  O   UNL     1      10.915   3.953   1.357  0.00  0.00    -0.276 OA
ATOM      6  N   UNL     1      11.668   4.742   3.410  0.00  0.00    -0.311 N 
ATOM     16  C   UNL     1      11.827   4.289   2.108  0.00  0.00    +0.214 C 
ATOM     35  H   UNL     1      12.485   5.005   3.951  0.00  0.00    +0.149 HD
BRANCH   6  19
ATOM     19  C   UNL     1      10.378   4.875   4.047  0.00  0.00    +0.139 C 
BRANCH  19  21
ATOM     21  C   UNL     1       9.890   6.295   4.039  0.00  0.00    -0.030 A 
ATOM     22  C   UNL     1       8.582   6.584   4.427  0.00  0.00    +0.009 A 
ATOM     23  C   UNL     1      10.744   7.324   3.646  0.00  0.00    +0.009 A 
ATOM     24  C   UNL     1       8.127   7.903   4.420  0.00  0.00    +0.046 A 
ATOM     25  C   UNL     1      10.291   8.643   3.638  0.00  0.00    +0.046 A 
ATOM     27  C   UNL     1       8.983   8.932   4.026  0.00  0.00    +0.120 A 
BRANCH  27   4
ATOM      4  O   UNL     1       8.540  10.220   4.020  0.00  0.00    -0.495 OA
ATOM     33  C   UNL     1       8.868  11.024   5.152  0.00  0.00    +0.277 C 
ENDBRANCH  27   4
ENDBRANCH  19  21
ENDBRANCH   6  19
ENDBRANCH  14  16
ENDBRANCH   8  14
TORSDOF 10
ENDMDL
MODEL 9
REMARK VINA RESULT:      -6.5      2.060      8.674
REMARK  Name = 26743171
REMARK  11 active torsions:
REMARK  status: ('A' for Active; 'I' for Inactive)
REMARK    1  A    between atoms: O_3  and  C_20
REMARK    2  A    between atoms: O_3  and  C_26
REMARK    3  A    between atoms: O_4  and  C_27
REMARK    4  A    between atoms: O_4  and  C_33
REMARK    5  A    between atoms: N_6  and  C_19
REMARK    6  A    between atoms: C_8  and  C_14
REMARK    7  A    between atoms: C_9  and  C_13
REMARK    8  A    between atoms: C_13  and  C_15
REMARK    9  A    between atoms: C_14  and  C_16
REMARK   10  A    between atoms: C_18  and  C_20
REMARK   11  A    between atoms: C_19  and  C_21
REMARK                            x       y       z     vdW  Elec       q    Type
REMARK                         _______ _______ _______ _____ _____    ______ ____
ROOT
ATOM      5  N   UNL     1      -9.296 -12.393  17.030  0.00  0.00    -0.316 NA
ATOM      8  C   UNL     1      -7.376 -11.180  18.880  0.00  0.00    +0.004 C 
ATOM      9  C   UNL     1      -8.484 -10.343  18.195  0.00  0.00    +0.012 C 
ATOM     10  C   UNL     1      -7.039 -12.429  18.051  0.00  0.00    +0.019 C 
ATOM     11  C   UNL     1      -9.682 -11.252  17.864  0.00  0.00    +0.085 C 
ATOM     12  C   UNL     1      -8.297 -13.223  17.700  0.00  0.00    +0.081 C 
ATOM     34  H   UNL     1      -8.919 -12.058  16.144  0.00  0.00    +0.122 HD
ENDROOT
BRANCH   9  13
ATOM     13  C   UNL     1      -8.009  -9.591  16.945  0.00  0.00    +0.064 C 
BRANCH  13  15
ATOM      2  O   UNL     1     -10.525  -8.031  14.897  0.00  0.00    -0.356 OA
ATOM      7  N   UNL     1      -9.518  -8.965  15.110  0.00  0.00    -0.083 NA
ATOM     15  C   UNL     1      -9.107  -8.749  16.364  0.00  0.00    +0.084 A 
ATOM     17  C   UNL     1      -9.811  -7.702  16.983  0.00  0.00    +0.074 A 
ATOM     18  C   UNL     1     -10.690  -7.285  16.019  0.00  0.00    +0.175 A 
BRANCH  18  20
ATOM     20  C   UNL     1     -11.722  -6.243  15.966  0.00  0.00    +0.306 C 
BRANCH  20   3
ATOM      3  O   UNL     1     -12.722  -6.583  15.002  0.00  0.00    -0.484 OA
BRANCH   3  26
ATOM     26  C   UNL     1     -13.086  -5.597  14.128  0.00  0.00    +0.121 A 
ATOM     28  C   UNL     1     -12.108  -4.831  13.496  0.00  0.00    +0.045 A 
ATOM     29  C   UNL     1     -14.435  -5.358  13.869  0.00  0.00    +0.045 A 
ATOM     30  C   UNL     1     -12.480  -3.823  12.604  0.00  0.00    +0.004 A 
ATOM     31  C   UNL     1     -14.807  -4.353  12.978  0.00  0.00    +0.004 A 
ATOM     32  C   UNL     1     -13.829  -3.584  12.346  0.00  0.00    +0.000 A 
ENDBRANCH   3  26
ENDBRANCH  20   3
ENDBRANCH  18  20
ENDBRANCH  13  15
ENDBRANCH   9  13
BRANCH   8  14
ATOM     14  C   UNL     1      -6.115 -10.379  19.194  0.00  0.00    +0.099 C 
BRANCH  14  16
ATOM      1  O   UNL     1      -4.247 -11.915  19.255  0.00  0.00    -0.276 OA
ATOM      6  N   UNL     1      -4.526 -10.533  17.408  0.00  0.00    -0.311 N 
ATOM     16  C   UNL     1      -4.866 -11.043  18.653  0.00  0.00    +0.214 C 
ATOM     35  H   UNL     1      -5.098  -9.804  16.993  0.00  0.00    +0.149 HD
BRANCH   6  19
ATOM     19  C   UNL     1      -3.376 -10.983  16.658  0.00  0.00    +0.139 C 
BRANCH  19  21
ATOM     21  C   UNL     1      -3.549 -10.770  15.182  0.00  0.00    -0.030 A 
ATOM     22  C   UNL     1      -2.430 -10.676  14.355  0.00  0.00    +0.009 A 
ATOM     23  C   UNL     1      -4.829 -10.669  14.636  0.00  0.00    +0.009 A 
ATOM     24  C   UNL     1      -2.589 -10.479  12.983  0.00  0.00    +0.046 A 
ATOM     25  C   UNL     1      -4.989 -10.471  13.266  0.00  0.00    +0.046 A 
ATOM     27  C   UNL     1      -3.870 -10.377  12.439  0.00  0.00    +0.120 A 
BRANCH  27   4
ATOM      4  O   UNL     1      -4.026 -10.185  11.100  0.00  0.00    -0.495 OA
ATOM     33  C   UNL     1      -2.996  -9.466  10.424  0.00  0.00    +0.277 C 
ENDBRANCH  27   4
ENDBRANCH  19  21
ENDBRANCH   6  19
ENDBRANCH  14  16
ENDBRANCH   8  14
TORSDOF 10
ENDMDL
MODEL 10
REMARK VINA RESULT:      -6.4      2.541      8.712
REMARK  Name = 26743171
REMARK  11 active torsions:
REMARK  status: ('A' for Active; 'I' for Inactive)
REMARK    1  A    between atoms: O_3  and  C_20
REMARK    2  A    between atoms: O_3  and  C_26
REMARK    3  A    between atoms: O_4  and  C_27
REMARK    4  A    between atoms: O_4  and  C_33
REMARK    5  A    between atoms: N_6  and  C_19
REMARK    6  A    between atoms: C_8  and  C_14
REMARK    7  A    between atoms: C_9  and  C_13
REMARK    8  A    between atoms: C_13  and  C_15
REMARK    9  A    between atoms: C_14  and  C_16
REMARK   10  A    between atoms: C_18  and  C_20
REMARK   11  A    between atoms: C_19  and  C_21
REMARK                            x       y       z     vdW  Elec       q    Type
REMARK                         _______ _______ _______ _____ _____    ______ ____
ROOT
ATOM      5  N   UNL     1     -12.738 -11.203  20.319  0.00  0.00    -0.316 NA
ATOM      8  C   UNL     1      -9.907 -11.615  19.694  0.00  0.00    +0.004 C 
ATOM      9  C   UNL     1     -10.655 -10.331  19.261  0.00  0.00    +0.012 C 
ATOM     10  C   UNL     1     -10.884 -12.786  19.878  0.00  0.00    +0.019 C 
ATOM     11  C   UNL     1     -11.821 -10.066  20.233  0.00  0.00    +0.085 C 
ATOM     12  C   UNL     1     -12.049 -12.404  20.789  0.00  0.00    +0.081 C 
ATOM     34  H   UNL     1     -13.147 -11.384  19.402  0.00  0.00    +0.122 HD
ENDROOT
BRANCH   9  13
ATOM     13  C   UNL     1     -11.152 -10.362  17.810  0.00  0.00    +0.064 C 
BRANCH  13  15
ATOM      2  O   UNL     1     -10.080  -7.207  16.449  0.00  0.00    -0.356 OA
ATOM      7  N   UNL     1      -9.839  -8.410  17.101  0.00  0.00    -0.083 NA
ATOM     15  C   UNL     1     -11.030  -9.015  17.161  0.00  0.00    +0.084 A 
ATOM     17  C   UNL     1     -12.048  -8.248  16.569  0.00  0.00    +0.074 A 
ATOM     18  C   UNL     1     -11.398  -7.122  16.137  0.00  0.00    +0.175 A 
BRANCH  18  20
ATOM     20  C   UNL     1     -11.828  -5.905  15.438  0.00  0.00    +0.306 C 
BRANCH  20   3
ATOM      3  O   UNL     1     -12.718  -6.235  14.369  0.00  0.00    -0.484 OA
BRANCH   3  26
ATOM     26  C   UNL     1     -12.540  -5.556  13.196  0.00  0.00    +0.121 A 
ATOM     28  C   UNL     1     -12.464  -4.164  13.201  0.00  0.00    +0.045 A 
ATOM     29  C   UNL     1     -12.435  -6.255  11.994  0.00  0.00    +0.045 A 
ATOM     30  C   UNL     1     -12.283  -3.470  12.004  0.00  0.00    +0.004 A 
ATOM     31  C   UNL     1     -12.253  -5.563  10.798  0.00  0.00    +0.004 A 
ATOM     32  C   UNL     1     -12.177  -4.170  10.802  0.00  0.00    +0.000 A 
ENDBRANCH   3  26
ENDBRANCH  20   3
ENDBRANCH  18  20
ENDBRANCH  13  15
ENDBRANCH   9  13
BRANCH   8  14
ATOM     14  C   UNL     1      -8.767 -12.000  18.755  0.00  0.00    +0.099 C 
BRANCH  14  16
ATOM      1  O   UNL     1      -7.095 -10.499  19.652  0.00  0.00    -0.276 OA
ATOM      6  N   UNL     1      -7.517 -10.501  17.366  0.00  0.00    -0.311 N 
ATOM     16  C   UNL     1      -7.703 -10.926  18.674  0.00  0.00    +0.214 C 
ATOM     35  H   UNL     1      -8.075 -10.911  16.623  0.00  0.00    +0.149 HD
BRANCH   6  19
ATOM     19  C   UNL     1      -6.563  -9.481  16.996  0.00  0.00    +0.139 C 
BRANCH  19  21
ATOM     21  C   UNL     1      -5.332 -10.064  16.365  0.00  0.00    -0.030 A 
ATOM     22  C   UNL     1      -4.258 -10.456  17.163  0.00  0.00    +0.009 A 
ATOM     23  C   UNL     1      -5.263 -10.216  14.980  0.00  0.00    +0.009 A 
ATOM     24  C   UNL     1      -3.114 -10.998  16.577  0.00  0.00    +0.046 A 
ATOM     25  C   UNL     1      -4.120 -10.758  14.394  0.00  0.00    +0.046 A 
ATOM     27  C   UNL     1      -3.046 -11.150  15.192  0.00  0.00    +0.120 A 
BRANCH  27   4
ATOM      4  O   UNL     1      -1.930 -11.680  14.620  0.00  0.00    -0.495 OA
ATOM     33  C   UNL     1      -2.070 -12.226  13.309  0.00  0.00    +0.277 C 
ENDBRANCH  27   4
ENDBRANCH  19  21
ENDBRANCH   6  19
ENDBRANCH  14  16
ENDBRANCH   8  14
TORSDOF 10
ENDMDL
