MODEL 1
REMARK VINA RESULT:      -7.0      0.000      0.000
REMARK  Name = 45783621
REMARK  8 active torsions:
REMARK  status: ('A' for Active; 'I' for Inactive)
REMARK    1  A    between atoms: O_4  and  C_30
REMARK    2  A    between atoms: O_4  and  C_31
REMARK    3  A    between atoms: N_5  and  C_11
REMARK    4  A    between atoms: N_10  and  C_28
REMARK    5  A    between atoms: C_12  and  C_20
REMARK    6  A    between atoms: C_21  and  C_22
REMARK    7  A    between atoms: C_23  and  C_24
REMARK    8  A    between atoms: C_29  and  C_30
REMARK                            x       y       z     vdW  Elec       q    Type
REMARK                         _______ _______ _______ _____ _____    ______ ____
ROOT
ATOM      1  O   UNL     1      15.585   8.882  20.442  0.00  0.00    -0.336 OA
ATOM      7  N   UNL     1      15.803   6.668  20.702  0.00  0.00    -0.190 NA
ATOM      8  N   UNL     1      16.960   8.633  20.526  0.00  0.00    -0.056 NA
ATOM     20  C   UNL     1      14.976   7.672  20.555  0.00  0.00    +0.245 A 
ATOM     23  C   UNL     1      17.009   7.307  20.678  0.00  0.00    +0.204 A 
ENDROOT
BRANCH  23  24
ATOM      9  N   UNL     1      19.724   4.858  20.002  0.00  0.00    -0.239 NA
ATOM     24  C   UNL     1      18.243   6.590  20.811  0.00  0.00    +0.041 A 
ATOM     25  C   UNL     1      19.141   6.891  21.829  0.00  0.00    +0.016 A 
ATOM     26  C   UNL     1      18.579   5.573  19.932  0.00  0.00    +0.124 A 
ATOM     27  C   UNL     1      20.330   6.178  21.935  0.00  0.00    +0.044 A 
ATOM     28  C   UNL     1      20.572   5.179  21.005  0.00  0.00    +0.125 A 
BRANCH  28  10
ATOM      3  O   UNL     1      23.402   6.015  20.418  0.00  0.00    -0.273 OA
ATOM     10  N   UNL     1      21.772   4.467  21.120  0.00  0.00    -0.268 N 
ATOM     29  C   UNL     1      23.066   4.909  20.832  0.00  0.00    +0.244 C 
ATOM     32  H   UNL     1      21.663   3.513  21.456  0.00  0.00    +0.156 HD
BRANCH  29  30
ATOM     30  C   UNL     1      24.102   3.834  21.079  0.00  0.00    +0.255 C 
BRANCH  30   4
ATOM      4  O   UNL     1      23.438   2.622  21.373  0.00  0.00    -0.374 OA
ATOM     31  C   UNL     1      24.239   1.488  21.055  0.00  0.00    +0.194 C 
ENDBRANCH  30   4
ENDBRANCH  29  30
ENDBRANCH  28  10
ENDBRANCH  23  24
BRANCH  20  12
ATOM      5  N   UNL     1      12.889   9.027  20.561  0.00  0.00    -0.288 NA
ATOM     12  C   UNL     1      13.463   7.669  20.492  0.00  0.00    +0.146 C 
ATOM     13  C   UNL     1      11.630   8.982  19.818  0.00  0.00    +0.085 C 
ATOM     14  C   UNL     1      12.925   7.084  19.173  0.00  0.00    +0.030 C 
ATOM     17  C   UNL     1      12.011   8.160  18.605  0.00  0.00    +0.017 C 
BRANCH   5  11
ATOM      2  O   UNL     1       9.990  12.840  24.416  0.00  0.00    -0.276 OA
ATOM      6  N   UNL     1      11.809  11.542  23.782  0.00  0.00    -0.302 N 
ATOM     11  C   UNL     1      12.703   9.505  21.929  0.00  0.00    +0.060 C 
ATOM     15  C   UNL     1      11.213   9.742  22.206  0.00  0.00    +0.038 C 
ATOM     16  C   UNL     1      13.502  10.796  22.150  0.00  0.00    +0.038 C 
ATOM     18  C   UNL     1      11.004  10.332  23.600  0.00  0.00    +0.109 C 
ATOM     19  C   UNL     1      13.247  11.366  23.546  0.00  0.00    +0.109 C 
ATOM     21  C   UNL     1      11.197  12.727  24.188  0.00  0.00    +0.212 C 
ATOM     22  C   UNL     1      12.093  13.929  24.350  0.00  0.00    +0.109 C 
ENDBRANCH   5  11
ENDBRANCH  20  12
TORSDOF 6
ENDMDL
MODEL 2
REMARK VINA RESULT:      -6.9     28.154     32.186
REMARK  Name = 45783621
REMARK  8 active torsions:
REMARK  status: ('A' for Active; 'I' for Inactive)
REMARK    1  A    between atoms: O_4  and  C_30
REMARK    2  A    between atoms: O_4  and  C_31
REMARK    3  A    between atoms: N_5  and  C_11
REMARK    4  A    between atoms: N_10  and  C_28
REMARK    5  A    between atoms: C_12  and  C_20
REMARK    6  A    between atoms: C_21  and  C_22
REMARK    7  A    between atoms: C_23  and  C_24
REMARK    8  A    between atoms: C_29  and  C_30
REMARK                            x       y       z     vdW  Elec       q    Type
REMARK                         _______ _______ _______ _____ _____    ______ ____
ROOT
ATOM      1  O   UNL     1      -9.797 -11.474  17.946  0.00  0.00    -0.336 OA
ATOM      7  N   UNL     1      -8.644  -9.782  17.035  0.00  0.00    -0.190 NA
ATOM      8  N   UNL     1     -10.749 -10.588  17.426  0.00  0.00    -0.056 NA
ATOM     20  C   UNL     1      -8.584 -10.924  17.673  0.00  0.00    +0.245 A 
ATOM     23  C   UNL     1      -9.993  -9.618  16.906  0.00  0.00    +0.204 A 
ENDROOT
BRANCH  23  24
ATOM      9  N   UNL     1     -11.514  -7.489  14.265  0.00  0.00    -0.239 NA
ATOM     24  C   UNL     1     -10.551  -8.469  16.254  0.00  0.00    +0.041 A 
ATOM     25  C   UNL     1     -10.677  -7.256  16.921  0.00  0.00    +0.016 A 
ATOM     26  C   UNL     1     -10.981  -8.533  14.938  0.00  0.00    +0.124 A 
ATOM     27  C   UNL     1     -11.222  -6.159  16.262  0.00  0.00    +0.044 A 
ATOM     28  C   UNL     1     -11.621  -6.326  14.946  0.00  0.00    +0.125 A 
BRANCH  28  10
ATOM      3  O   UNL     1     -14.286  -5.973  13.594  0.00  0.00    -0.273 OA
ATOM     10  N   UNL     1     -12.168  -5.215  14.292  0.00  0.00    -0.268 N 
ATOM     29  C   UNL     1     -13.420  -5.108  13.679  0.00  0.00    +0.244 C 
ATOM     32  H   UNL     1     -11.562  -4.399  14.273  0.00  0.00    +0.156 HD
BRANCH  29  30
ATOM     30  C   UNL     1     -13.639  -3.739  13.072  0.00  0.00    +0.255 C 
BRANCH  30   4
ATOM      4  O   UNL     1     -12.396  -3.235  12.626  0.00  0.00    -0.374 OA
ATOM     31  C   UNL     1     -12.174  -3.516  11.247  0.00  0.00    +0.194 C 
ENDBRANCH  30   4
ENDBRANCH  29  30
ENDBRANCH  28  10
ENDBRANCH  23  24
BRANCH  20  12
ATOM      5  N   UNL     1      -6.101 -11.082  17.710  0.00  0.00    -0.288 NA
ATOM     12  C   UNL     1      -7.370 -11.702  18.138  0.00  0.00    +0.146 C 
ATOM     13  C   UNL     1      -5.106 -11.436  18.723  0.00  0.00    +0.085 C 
ATOM     14  C   UNL     1      -7.268 -11.782  19.672  0.00  0.00    +0.030 C 
ATOM     17  C   UNL     1      -5.885 -11.244  20.007  0.00  0.00    +0.017 C 
BRANCH   5  11
ATOM      2  O   UNL     1      -1.527 -12.576  13.881  0.00  0.00    -0.276 OA
ATOM      6  N   UNL     1      -3.641 -11.726  14.333  0.00  0.00    -0.302 N 
ATOM     11  C   UNL     1      -5.687 -11.487  16.368  0.00  0.00    +0.060 C 
ATOM     15  C   UNL     1      -4.585 -12.552  16.456  0.00  0.00    +0.038 C 
ATOM     16  C   UNL     1      -5.193 -10.268  15.578  0.00  0.00    +0.038 C 
ATOM     18  C   UNL     1      -4.070 -12.919  15.065  0.00  0.00    +0.109 C 
ATOM     19  C   UNL     1      -4.665 -10.681  14.205  0.00  0.00    +0.109 C 
ATOM     21  C   UNL     1      -2.358 -11.668  13.791  0.00  0.00    +0.212 C 
ATOM     22  C   UNL     1      -1.992 -10.405  13.054  0.00  0.00    +0.109 C 
ENDBRANCH   5  11
ENDBRANCH  20  12
TORSDOF 6
ENDMDL
MODEL 3
REMARK VINA RESULT:      -6.7     27.445     30.927
REMARK  Name = 45783621
REMARK  8 active torsions:
REMARK  status: ('A' for Active; 'I' for Inactive)
REMARK    1  A    between atoms: O_4  and  C_30
REMARK    2  A    between atoms: O_4  and  C_31
REMARK    3  A    between atoms: N_5  and  C_11
REMARK    4  A    between atoms: N_10  and  C_28
REMARK    5  A    between atoms: C_12  and  C_20
REMARK    6  A    between atoms: C_21  and  C_22
REMARK    7  A    between atoms: C_23  and  C_24
REMARK    8  A    between atoms: C_29  and  C_30
REMARK                            x       y       z     vdW  Elec       q    Type
REMARK                         _______ _______ _______ _____ _____    ______ ____
ROOT
ATOM      1  O   UNL     1      -2.515 -10.866  14.557  0.00  0.00    -0.336 OA
ATOM      7  N   UNL     1      -4.663 -10.460  14.069  0.00  0.00    -0.190 NA
ATOM      8  N   UNL     1      -3.193 -10.829  15.782  0.00  0.00    -0.056 NA
ATOM     20  C   UNL     1      -3.453 -10.639  13.601  0.00  0.00    +0.245 A 
ATOM     23  C   UNL     1      -4.453 -10.586  15.411  0.00  0.00    +0.204 A 
ENDROOT
BRANCH  23  24
ATOM      9  N   UNL     1      -7.823  -9.857  16.802  0.00  0.00    -0.239 NA
ATOM     24  C   UNL     1      -5.525 -10.460  16.355  0.00  0.00    +0.041 A 
ATOM     25  C   UNL     1      -5.345 -10.794  17.693  0.00  0.00    +0.016 A 
ATOM     26  C   UNL     1      -6.772 -10.000  15.964  0.00  0.00    +0.124 A 
ATOM     27  C   UNL     1      -6.403 -10.660  18.586  0.00  0.00    +0.044 A 
ATOM     28  C   UNL     1      -7.610 -10.190  18.095  0.00  0.00    +0.125 A 
BRANCH  28  10
ATOM      3  O   UNL     1     -10.183 -11.733  18.330  0.00  0.00    -0.273 OA
ATOM     10  N   UNL     1      -8.668 -10.059  19.002  0.00  0.00    -0.268 N 
ATOM     29  C   UNL     1      -9.847 -10.809  19.065  0.00  0.00    +0.244 C 
ATOM     32  H   UNL     1      -8.542  -9.321  19.691  0.00  0.00    +0.156 HD
BRANCH  29  30
ATOM     30  C   UNL     1     -10.751 -10.354  20.190  0.00  0.00    +0.255 C 
BRANCH  30   4
ATOM      4  O   UNL     1     -11.990  -9.951  19.643  0.00  0.00    -0.374 OA
ATOM     31  C   UNL     1     -12.976  -9.754  20.652  0.00  0.00    +0.194 C 
ENDBRANCH  30   4
ENDBRANCH  29  30
ENDBRANCH  28  10
ENDBRANCH  23  24
BRANCH  20  12
ATOM      5  N   UNL     1      -3.537  -9.519  11.380  0.00  0.00    -0.288 NA
ATOM     12  C   UNL     1      -2.967 -10.631  12.166  0.00  0.00    +0.146 C 
ATOM     13  C   UNL     1      -2.546  -9.185  10.357  0.00  0.00    +0.085 C 
ATOM     14  C   UNL     1      -1.442 -10.444  12.058  0.00  0.00    +0.030 C 
ATOM     17  C   UNL     1      -1.253  -9.244  11.143  0.00  0.00    +0.017 C 
BRANCH   5  11
ATOM      2  O   UNL     1      -7.635  -8.550   6.899  0.00  0.00    -0.276 OA
ATOM      6  N   UNL     1      -7.057  -9.140   9.070  0.00  0.00    -0.302 N 
ATOM     11  C   UNL     1      -4.842  -9.833  10.801  0.00  0.00    +0.060 C 
ATOM     15  C   UNL     1      -4.730  -9.930   9.274  0.00  0.00    +0.038 C 
ATOM     16  C   UNL     1      -5.866  -8.763  11.198  0.00  0.00    +0.038 C 
ATOM     18  C   UNL     1      -6.101 -10.163   8.641  0.00  0.00    +0.109 C 
ATOM     19  C   UNL     1      -7.215  -9.019  10.525  0.00  0.00    +0.109 C 
ATOM     21  C   UNL     1      -7.759  -8.403   8.118  0.00  0.00    +0.212 C 
ATOM     22  C   UNL     1      -8.723  -7.368   8.641  0.00  0.00    +0.109 C 
ENDBRANCH   5  11
ENDBRANCH  20  12
TORSDOF 6
ENDMDL
MODEL 4
REMARK VINA RESULT:      -6.6      2.833      4.163
REMARK  Name = 45783621
REMARK  8 active torsions:
REMARK  status: ('A' for Active; 'I' for Inactive)
REMARK    1  A    between atoms: O_4  and  C_30
REMARK    2  A    between atoms: O_4  and  C_31
REMARK    3  A    between atoms: N_5  and  C_11
REMARK    4  A    between atoms: N_10  and  C_28
REMARK    5  A    between atoms: C_12  and  C_20
REMARK    6  A    between atoms: C_21  and  C_22
REMARK    7  A    between atoms: C_23  and  C_24
REMARK    8  A    between atoms: C_29  and  C_30
REMARK                            x       y       z     vdW  Elec       q    Type
REMARK                         _______ _______ _______ _____ _____    ______ ____
ROOT
ATOM      1  O   UNL     1      19.075   9.734  22.562  0.00  0.00    -0.336 OA
ATOM      7  N   UNL     1      18.809   8.143  21.008  0.00  0.00    -0.190 NA
ATOM      8  N   UNL     1      19.962   8.706  22.903  0.00  0.00    -0.056 NA
ATOM     20  C   UNL     1      18.435   9.323  21.436  0.00  0.00    +0.245 A 
ATOM     23  C   UNL     1      19.747   7.804  21.940  0.00  0.00    +0.204 A 
ENDROOT
BRANCH  23  24
ATOM      9  N   UNL     1      21.888   4.942  22.964  0.00  0.00    -0.239 NA
ATOM     24  C   UNL     1      20.450   6.556  21.881  0.00  0.00    +0.041 A 
ATOM     25  C   UNL     1      20.399   5.757  20.744  0.00  0.00    +0.016 A 
ATOM     26  C   UNL     1      21.202   6.107  22.955  0.00  0.00    +0.124 A 
ATOM     27  C   UNL     1      21.091   4.551  20.716  0.00  0.00    +0.044 A 
ATOM     28  C   UNL     1      21.815   4.193  21.842  0.00  0.00    +0.125 A 
BRANCH  28  10
ATOM      3  O   UNL     1      24.469   3.498  20.606  0.00  0.00    -0.273 OA
ATOM     10  N   UNL     1      22.508   2.977  21.803  0.00  0.00    -0.268 N 
ATOM     29  C   UNL     1      23.747   2.711  21.211  0.00  0.00    +0.244 C 
ATOM     32  H   UNL     1      22.033   2.207  22.268  0.00  0.00    +0.156 HD
BRANCH  29  30
ATOM     30  C   UNL     1      24.157   1.264  21.378  0.00  0.00    +0.255 C 
BRANCH  30   4
ATOM      4  O   UNL     1      25.214   1.196  22.313  0.00  0.00    -0.374 OA
ATOM     31  C   UNL     1      25.863  -0.072  22.287  0.00  0.00    +0.194 C 
ENDBRANCH  30   4
ENDBRANCH  29  30
ENDBRANCH  28  10
ENDBRANCH  23  24
BRANCH  20  12
ATOM      5  N   UNL     1      16.102  10.183  21.538  0.00  0.00    -0.288 NA
ATOM     12  C   UNL     1      17.409  10.274  20.856  0.00  0.00    +0.146 C 
ATOM     13  C   UNL     1      15.487  11.506  21.430  0.00  0.00    +0.085 C 
ATOM     14  C   UNL     1      17.822  11.751  20.998  0.00  0.00    +0.030 C 
ATOM     17  C   UNL     1      16.659  12.421  21.716  0.00  0.00    +0.017 C 
BRANCH   5  11
ATOM      2  O   UNL     1      10.523   8.474  19.599  0.00  0.00    -0.276 OA
ATOM      6  N   UNL     1      12.607   8.033  20.526  0.00  0.00    -0.302 N 
ATOM     11  C   UNL     1      15.244   9.131  20.997  0.00  0.00    +0.060 C 
ATOM     15  C   UNL     1      14.310   9.712  19.927  0.00  0.00    +0.038 C 
ATOM     16  C   UNL     1      14.431   8.483  22.125  0.00  0.00    +0.038 C 
ATOM     18  C   UNL     1      13.338   8.649  19.417  0.00  0.00    +0.109 C 
ATOM     19  C   UNL     1      13.455   7.445  21.571  0.00  0.00    +0.109 C 
ATOM     21  C   UNL     1      11.213   8.005  20.508  0.00  0.00    +0.212 C 
ATOM     22  C   UNL     1      10.535   7.355  21.687  0.00  0.00    +0.109 C 
ENDBRANCH   5  11
ENDBRANCH  20  12
TORSDOF 6
ENDMDL
MODEL 5
REMARK VINA RESULT:      -6.6     28.496     31.438
REMARK  Name = 45783621
REMARK  8 active torsions:
REMARK  status: ('A' for Active; 'I' for Inactive)
REMARK    1  A    between atoms: O_4  and  C_30
REMARK    2  A    between atoms: O_4  and  C_31
REMARK    3  A    between atoms: N_5  and  C_11
REMARK    4  A    between atoms: N_10  and  C_28
REMARK    5  A    between atoms: C_12  and  C_20
REMARK    6  A    between atoms: C_21  and  C_22
REMARK    7  A    between atoms: C_23  and  C_24
REMARK    8  A    between atoms: C_29  and  C_30
REMARK                            x       y       z     vdW  Elec       q    Type
REMARK                         _______ _______ _______ _____ _____    ______ ____
ROOT
ATOM      1  O   UNL     1      -6.300 -10.324   5.197  0.00  0.00    -0.336 OA
ATOM      7  N   UNL     1      -6.787  -9.374   7.166  0.00  0.00    -0.190 NA
ATOM      8  N   UNL     1      -5.247 -10.654   6.060  0.00  0.00    -0.056 NA
ATOM     20  C   UNL     1      -7.163  -9.570   5.928  0.00  0.00    +0.245 A 
ATOM     23  C   UNL     1      -5.607 -10.058   7.200  0.00  0.00    +0.204 A 
ENDROOT
BRANCH  23  24
ATOM      9  N   UNL     1      -3.768 -11.472  10.107  0.00  0.00    -0.239 NA
ATOM     24  C   UNL     1      -4.809 -10.124   8.390  0.00  0.00    +0.041 A 
ATOM     25  C   UNL     1      -4.310  -8.970   8.984  0.00  0.00    +0.016 A 
ATOM     26  C   UNL     1      -4.512 -11.340   8.985  0.00  0.00    +0.124 A 
ATOM     27  C   UNL     1      -3.541  -9.066  10.139  0.00  0.00    +0.044 A 
ATOM     28  C   UNL     1      -3.301 -10.328  10.656  0.00  0.00    +0.125 A 
BRANCH  28  10
ATOM      3  O   UNL     1      -4.125 -10.477  13.546  0.00  0.00    -0.273 OA
ATOM     10  N   UNL     1      -2.525 -10.413  11.818  0.00  0.00    -0.268 N 
ATOM     29  C   UNL     1      -2.965 -10.480  13.144  0.00  0.00    +0.244 C 
ATOM     32  H   UNL     1      -1.521 -10.424  11.653  0.00  0.00    +0.156 HD
BRANCH  29  30
ATOM     30  C   UNL     1      -1.812 -10.554  14.121  0.00  0.00    +0.255 C 
BRANCH  30   4
ATOM      4  O   UNL     1      -1.894 -11.774  14.829  0.00  0.00    -0.374 OA
ATOM     31  C   UNL     1      -1.498 -12.881  14.024  0.00  0.00    +0.194 C 
ENDBRANCH  30   4
ENDBRANCH  29  30
ENDBRANCH  28  10
ENDBRANCH  23  24
BRANCH  20  12
ATOM      5  N   UNL     1      -8.698  -7.661   5.489  0.00  0.00    -0.288 NA
ATOM     12  C   UNL     1      -8.405  -9.082   5.212  0.00  0.00    +0.146 C 
ATOM     13  C   UNL     1      -9.384  -7.143   4.305  0.00  0.00    +0.085 C 
ATOM     14  C   UNL     1      -8.278  -9.163   3.679  0.00  0.00    +0.030 C 
ATOM     17  C   UNL     1      -8.577  -7.757   3.181  0.00  0.00    +0.017 C 
BRANCH   5  11
ATOM      2  O   UNL     1     -12.994  -4.429   8.474  0.00  0.00    -0.276 OA
ATOM      6  N   UNL     1     -11.096  -5.767   8.409  0.00  0.00    -0.302 N 
ATOM     11  C   UNL     1      -9.479  -7.462   6.708  0.00  0.00    +0.060 C 
ATOM     15  C   UNL     1     -10.931  -7.118   6.353  0.00  0.00    +0.038 C 
ATOM     16  C   UNL     1      -8.854  -6.347   7.557  0.00  0.00    +0.038 C 
ATOM     18  C   UNL     1     -11.742  -6.812   7.612  0.00  0.00    +0.109 C 
ATOM     19  C   UNL     1      -9.708  -6.054   8.791  0.00  0.00    +0.109 C 
ATOM     21  C   UNL     1     -11.815  -4.630   8.776  0.00  0.00    +0.212 C 
ATOM     22  C   UNL     1     -11.078  -3.601   9.595  0.00  0.00    +0.109 C 
ENDBRANCH   5  11
ENDBRANCH  20  12
TORSDOF 6
ENDMDL
MODEL 6
REMARK VINA RESULT:      -6.5     28.638     31.385
REMARK  Name = 45783621
REMARK  8 active torsions:
REMARK  status: ('A' for Active; 'I' for Inactive)
REMARK    1  A    between atoms: O_4  and  C_30
REMARK    2  A    between atoms: O_4  and  C_31
REMARK    3  A    between atoms: N_5  and  C_11
REMARK    4  A    between atoms: N_10  and  C_28
REMARK    5  A    between atoms: C_12  and  C_20
REMARK    6  A    between atoms: C_21  and  C_22
REMARK    7  A    between atoms: C_23  and  C_24
REMARK    8  A    between atoms: C_29  and  C_30
REMARK                            x       y       z     vdW  Elec       q    Type
REMARK                         _______ _______ _______ _____ _____    ______ ____
ROOT
ATOM      1  O   UNL     1     -10.104 -10.777  20.023  0.00  0.00    -0.336 OA
ATOM      7  N   UNL     1      -9.534  -9.720  18.132  0.00  0.00    -0.190 NA
ATOM      8  N   UNL     1      -8.741 -11.035  19.827  0.00  0.00    -0.056 NA
ATOM     20  C   UNL     1     -10.492  -9.997  18.980  0.00  0.00    +0.245 A 
ATOM     23  C   UNL     1      -8.479 -10.378  18.694  0.00  0.00    +0.204 A 
ENDROOT
BRANCH  23  24
ATOM      9  N   UNL     1      -5.763  -9.715  16.243  0.00  0.00    -0.239 NA
ATOM     24  C   UNL     1      -7.176 -10.363  18.094  0.00  0.00    +0.041 A 
ATOM     25  C   UNL     1      -6.087 -10.949  18.730  0.00  0.00    +0.016 A 
ATOM     26  C   UNL     1      -6.963  -9.764  16.863  0.00  0.00    +0.124 A 
ATOM     27  C   UNL     1      -4.836 -10.919  18.123  0.00  0.00    +0.044 A 
ATOM     28  C   UNL     1      -4.728 -10.296  16.890  0.00  0.00    +0.125 A 
BRANCH  28  10
ATOM      3  O   UNL     1      -3.325 -12.361  15.211  0.00  0.00    -0.273 OA
ATOM     10  N   UNL     1      -3.464 -10.271  16.288  0.00  0.00    -0.268 N 
ATOM     29  C   UNL     1      -2.860 -11.266  15.514  0.00  0.00    +0.244 C 
ATOM     32  H   UNL     1      -2.939  -9.415  16.449  0.00  0.00    +0.156 HD
BRANCH  29  30
ATOM     30  C   UNL     1      -1.478 -10.863  15.048  0.00  0.00    +0.255 C 
BRANCH  30   4
ATOM      4  O   UNL     1      -1.606  -9.867  14.053  0.00  0.00    -0.374 OA
ATOM     31  C   UNL     1      -1.869 -10.430  12.771  0.00  0.00    +0.194 C 
ENDBRANCH  30   4
ENDBRANCH  29  30
ENDBRANCH  28  10
ENDBRANCH  23  24
BRANCH  20  12
ATOM      5  N   UNL     1     -12.565  -9.730  17.629  0.00  0.00    -0.288 NA
ATOM     12  C   UNL     1     -11.945  -9.572  18.960  0.00  0.00    +0.146 C 
ATOM     13  C   UNL     1     -13.986  -9.986  17.862  0.00  0.00    +0.085 C 
ATOM     14  C   UNL     1     -12.824 -10.416  19.902  0.00  0.00    +0.030 C 
ATOM     17  C   UNL     1     -13.943 -10.956  19.024  0.00  0.00    +0.017 C 
BRANCH   5  11
ATOM      2  O   UNL     1     -14.541  -6.304  12.921  0.00  0.00    -0.276 OA
ATOM      6  N   UNL     1     -12.867  -7.173  14.276  0.00  0.00    -0.302 N 
ATOM     11  C   UNL     1     -12.349  -8.579  16.754  0.00  0.00    +0.060 C 
ATOM     15  C   UNL     1     -13.678  -7.853  16.504  0.00  0.00    +0.038 C 
ATOM     16  C   UNL     1     -11.728  -9.035  15.427  0.00  0.00    +0.038 C 
ATOM     18  C   UNL     1     -13.492  -6.703  15.515  0.00  0.00    +0.109 C 
ATOM     19  C   UNL     1     -11.582  -7.861  14.459  0.00  0.00    +0.109 C 
ATOM     21  C   UNL     1     -13.478  -6.918  13.050  0.00  0.00    +0.212 C 
ATOM     22  C   UNL     1     -12.773  -7.437  11.823  0.00  0.00    +0.109 C 
ENDBRANCH   5  11
ENDBRANCH  20  12
TORSDOF 6
ENDMDL
MODEL 7
REMARK VINA RESULT:      -6.3     28.271     31.761
REMARK  Name = 45783621
REMARK  8 active torsions:
REMARK  status: ('A' for Active; 'I' for Inactive)
REMARK    1  A    between atoms: O_4  and  C_30
REMARK    2  A    between atoms: O_4  and  C_31
REMARK    3  A    between atoms: N_5  and  C_11
REMARK    4  A    between atoms: N_10  and  C_28
REMARK    5  A    between atoms: C_12  and  C_20
REMARK    6  A    between atoms: C_21  and  C_22
REMARK    7  A    between atoms: C_23  and  C_24
REMARK    8  A    between atoms: C_29  and  C_30
REMARK                            x       y       z     vdW  Elec       q    Type
REMARK                         _______ _______ _______ _____ _____    ______ ____
ROOT
ATOM      1  O   UNL     1      -4.874  -9.875  16.570  0.00  0.00    -0.336 OA
ATOM      7  N   UNL     1      -5.191 -12.047  17.016  0.00  0.00    -0.190 NA
ATOM      8  N   UNL     1      -6.039  -9.947  17.344  0.00  0.00    -0.056 NA
ATOM     20  C   UNL     1      -4.439 -11.154  16.424  0.00  0.00    +0.245 A 
ATOM     23  C   UNL     1      -6.160 -11.259  17.567  0.00  0.00    +0.204 A 
ENDROOT
BRANCH  23  24
ATOM      9  N   UNL     1      -9.002 -11.490  19.953  0.00  0.00    -0.239 NA
ATOM     24  C   UNL     1      -7.237 -11.815  18.333  0.00  0.00    +0.041 A 
ATOM     25  C   UNL     1      -7.571 -13.161  18.229  0.00  0.00    +0.016 A 
ATOM     26  C   UNL     1      -7.977 -11.030  19.202  0.00  0.00    +0.124 A 
ATOM     27  C   UNL     1      -8.620 -13.672  18.985  0.00  0.00    +0.044 A 
ATOM     28  C   UNL     1      -9.297 -12.803  19.825  0.00  0.00    +0.125 A 
BRANCH  28  10
ATOM      3  O   UNL     1      -9.283 -14.830  22.050  0.00  0.00    -0.273 OA
ATOM     10  N   UNL     1     -10.352 -13.329  20.582  0.00  0.00    -0.268 N 
ATOM     29  C   UNL     1     -10.286 -14.274  21.610  0.00  0.00    +0.244 C 
ATOM     32  H   UNL     1     -11.269 -12.963  20.335  0.00  0.00    +0.156 HD
BRANCH  29  30
ATOM     30  C   UNL     1     -11.652 -14.591  22.179  0.00  0.00    +0.255 C 
BRANCH  30   4
ATOM      4  O   UNL     1     -11.719 -14.100  23.502  0.00  0.00    -0.374 OA
ATOM     31  C   UNL     1     -12.992 -13.532  23.792  0.00  0.00    +0.194 C 
ENDBRANCH  30   4
ENDBRANCH  29  30
ENDBRANCH  28  10
ENDBRANCH  23  24
BRANCH  20  12
ATOM      5  N   UNL     1      -3.157 -10.536  14.382  0.00  0.00    -0.288 NA
ATOM     12  C   UNL     1      -3.173 -11.348  15.615  0.00  0.00    +0.146 C 
ATOM     13  C   UNL     1      -1.751 -10.246  14.098  0.00  0.00    +0.085 C 
ATOM     14  C   UNL     1      -1.908 -10.921  16.382  0.00  0.00    +0.030 C 
ATOM     17  C   UNL     1      -1.215  -9.915  15.475  0.00  0.00    +0.017 C 
BRANCH   5  11
ATOM      2  O   UNL     1      -4.345 -10.612   8.350  0.00  0.00    -0.276 OA
ATOM      6  N   UNL     1      -4.875 -11.090  10.560  0.00  0.00    -0.302 N 
ATOM     11  C   UNL     1      -3.823 -11.187  13.256  0.00  0.00    +0.060 C 
ATOM     15  C   UNL     1      -2.899 -11.194  12.031  0.00  0.00    +0.038 C 
ATOM     16  C   UNL     1      -5.137 -10.465  12.933  0.00  0.00    +0.038 C 
ATOM     18  C   UNL     1      -3.611 -11.784  10.815  0.00  0.00    +0.109 C 
ATOM     19  C   UNL     1      -5.805 -11.069  11.697  0.00  0.00    +0.109 C 
ATOM     21  C   UNL     1      -5.128 -10.549   9.301  0.00  0.00    +0.212 C 
ATOM     22  C   UNL     1      -6.451  -9.848   9.121  0.00  0.00    +0.109 C 
ENDBRANCH   5  11
ENDBRANCH  20  12
TORSDOF 6
ENDMDL
MODEL 8
REMARK VINA RESULT:      -6.3     27.880     31.080
REMARK  Name = 45783621
REMARK  8 active torsions:
REMARK  status: ('A' for Active; 'I' for Inactive)
REMARK    1  A    between atoms: O_4  and  C_30
REMARK    2  A    between atoms: O_4  and  C_31
REMARK    3  A    between atoms: N_5  and  C_11
REMARK    4  A    between atoms: N_10  and  C_28
REMARK    5  A    between atoms: C_12  and  C_20
REMARK    6  A    between atoms: C_21  and  C_22
REMARK    7  A    between atoms: C_23  and  C_24
REMARK    8  A    between atoms: C_29  and  C_30
REMARK                            x       y       z     vdW  Elec       q    Type
REMARK                         _______ _______ _______ _____ _____    ______ ____
ROOT
ATOM      1  O   UNL     1      -2.952 -12.217  12.599  0.00  0.00    -0.336 OA
ATOM      7  N   UNL     1      -3.766 -10.337  11.693  0.00  0.00    -0.190 NA
ATOM      8  N   UNL     1      -3.305 -12.540  11.282  0.00  0.00    -0.056 NA
ATOM     20  C   UNL     1      -3.256 -10.902  12.758  0.00  0.00    +0.245 A 
ATOM     23  C   UNL     1      -3.776 -11.381  10.814  0.00  0.00    +0.204 A 
ENDROOT
BRANCH  23  24
ATOM      9  N   UNL     1      -4.735 -12.232   7.324  0.00  0.00    -0.239 NA
ATOM     24  C   UNL     1      -4.267 -11.232   9.475  0.00  0.00    +0.041 A 
ATOM     25  C   UNL     1      -4.738 -10.007   9.015  0.00  0.00    +0.016 A 
ATOM     26  C   UNL     1      -4.287 -12.304   8.598  0.00  0.00    +0.124 A 
ATOM     27  C   UNL     1      -5.207  -9.894   7.711  0.00  0.00    +0.044 A 
ATOM     28  C   UNL     1      -5.184 -11.026   6.913  0.00  0.00    +0.125 A 
BRANCH  28  10
ATOM      3  O   UNL     1      -7.979 -11.248   5.819  0.00  0.00    -0.273 OA
ATOM     10  N   UNL     1      -5.659 -10.900   5.602  0.00  0.00    -0.268 N 
ATOM     29  C   UNL     1      -6.977 -11.014   5.149  0.00  0.00    +0.244 C 
ATOM     32  H   UNL     1      -4.939 -10.703   4.911  0.00  0.00    +0.156 HD
BRANCH  29  30
ATOM     30  C   UNL     1      -7.082 -10.819   3.652  0.00  0.00    +0.255 C 
BRANCH  30   4
ATOM      4  O   UNL     1      -8.185  -9.979   3.379  0.00  0.00    -0.374 OA
ATOM     31  C   UNL     1      -7.832  -8.601   3.450  0.00  0.00    +0.194 C 
ENDBRANCH  30   4
ENDBRANCH  29  30
ENDBRANCH  28  10
ENDBRANCH  23  24
BRANCH  20  12
ATOM      5  N   UNL     1      -3.301 -11.213  15.226  0.00  0.00    -0.288 NA
ATOM     12  C   UNL     1      -2.962 -10.301  14.117  0.00  0.00    +0.146 C 
ATOM     13  C   UNL     1      -2.387 -10.889  16.322  0.00  0.00    +0.085 C 
ATOM     14  C   UNL     1      -1.468  -9.983  14.315  0.00  0.00    +0.030 C 
ATOM     17  C   UNL     1      -1.073 -10.710  15.592  0.00  0.00    +0.017 C 
BRANCH   5  11
ATOM      2  O   UNL     1      -7.390 -10.614  19.780  0.00  0.00    -0.276 OA
ATOM      6  N   UNL     1      -6.745 -11.352  17.674  0.00  0.00    -0.302 N 
ATOM     11  C   UNL     1      -4.701 -11.127  15.634  0.00  0.00    +0.060 C 
ATOM     15  C   UNL     1      -4.867 -10.063  16.728  0.00  0.00    +0.038 C 
ATOM     16  C   UNL     1      -5.189 -12.493  16.135  0.00  0.00    +0.038 C 
ATOM     18  C   UNL     1      -6.307 -10.024  17.236  0.00  0.00    +0.109 C 
ATOM     19  C   UNL     1      -6.623 -12.405  16.657  0.00  0.00    +0.109 C 
ATOM     21  C   UNL     1      -7.264 -11.524  18.956  0.00  0.00    +0.212 C 
ATOM     22  C   UNL     1      -7.689 -12.921  19.330  0.00  0.00    +0.109 C 
ENDBRANCH   5  11
ENDBRANCH  20  12
TORSDOF 6
ENDMDL
MODEL 9
REMARK VINA RESULT:      -6.2     28.568     30.943
REMARK  Name = 45783621
REMARK  8 active torsions:
REMARK  status: ('A' for Active; 'I' for Inactive)
REMARK    1  A    between atoms: O_4  and  C_30
REMARK    2  A    between atoms: O_4  and  C_31
REMARK    3  A    between atoms: N_5  and  C_11
REMARK    4  A    between atoms: N_10  and  C_28
REMARK    5  A    between atoms: C_12  and  C_20
REMARK    6  A    between atoms: C_21  and  C_22
REMARK    7  A    between atoms: C_23  and  C_24
REMARK    8  A    between atoms: C_29  and  C_30
REMARK                            x       y       z     vdW  Elec       q    Type
REMARK                         _______ _______ _______ _____ _____    ______ ____
ROOT
ATOM      1  O   UNL     1      -1.961 -10.900  12.875  0.00  0.00    -0.336 OA
ATOM      7  N   UNL     1      -3.957 -11.645  12.180  0.00  0.00    -0.190 NA
ATOM      8  N   UNL     1      -2.215 -10.257  11.656  0.00  0.00    -0.056 NA
ATOM     20  C   UNL     1      -3.036 -11.699  13.109  0.00  0.00    +0.245 A 
ATOM     23  C   UNL     1      -3.408 -10.747  11.310  0.00  0.00    +0.204 A 
ENDROOT
BRANCH  23  24
ATOM      9  N   UNL     1      -5.142  -8.636   8.789  0.00  0.00    -0.239 NA
ATOM     24  C   UNL     1      -4.079 -10.365  10.102  0.00  0.00    +0.041 A 
ATOM     25  C   UNL     1      -4.324 -11.291   9.093  0.00  0.00    +0.016 A 
ATOM     26  C   UNL     1      -4.505  -9.062   9.902  0.00  0.00    +0.124 A 
ATOM     27  C   UNL     1      -4.977 -10.890   7.933  0.00  0.00    +0.044 A 
ATOM     28  C   UNL     1      -5.363  -9.564   7.831  0.00  0.00    +0.125 A 
BRANCH  28  10
ATOM      3  O   UNL     1      -8.218  -8.726   7.380  0.00  0.00    -0.273 OA
ATOM     10  N   UNL     1      -6.020  -9.172   6.658  0.00  0.00    -0.268 N 
ATOM     29  C   UNL     1      -7.357  -8.790   6.507  0.00  0.00    +0.244 C 
ATOM     32  H   UNL     1      -5.433  -9.173   5.827  0.00  0.00    +0.156 HD
BRANCH  29  30
ATOM     30  C   UNL     1      -7.690  -8.443   5.072  0.00  0.00    +0.255 C 
BRANCH  30   4
ATOM      4  O   UNL     1      -8.579  -7.346   5.064  0.00  0.00    -0.374 OA
ATOM     31  C   UNL     1      -9.703  -7.581   4.222  0.00  0.00    +0.194 C 
ENDBRANCH  30   4
ENDBRANCH  29  30
ENDBRANCH  28  10
ENDBRANCH  23  24
BRANCH  20  12
ATOM      5  N   UNL     1      -4.357 -12.780  14.920  0.00  0.00    -0.288 NA
ATOM     12  C   UNL     1      -3.006 -12.512  14.386  0.00  0.00    +0.146 C 
ATOM     13  C   UNL     1      -4.273 -14.053  15.636  0.00  0.00    +0.085 C 
ATOM     14  C   UNL     1      -2.381 -13.905  14.189  0.00  0.00    +0.030 C 
ATOM     17  C   UNL     1      -3.427 -14.886  14.696  0.00  0.00    +0.017 C 
BRANCH   5  11
ATOM      2  O   UNL     1      -6.332 -10.985  20.459  0.00  0.00    -0.276 OA
ATOM      6  N   UNL     1      -6.269 -10.825  18.143  0.00  0.00    -0.302 N 
ATOM     11  C   UNL     1      -4.864 -11.704  15.769  0.00  0.00    +0.060 C 
ATOM     15  C   UNL     1      -4.221 -11.783  17.160  0.00  0.00    +0.038 C 
ATOM     16  C   UNL     1      -6.392 -11.795  15.878  0.00  0.00    +0.038 C 
ATOM     18  C   UNL     1      -4.809 -10.726  18.093  0.00  0.00    +0.109 C 
ATOM     19  C   UNL     1      -6.936 -10.737  16.838  0.00  0.00    +0.109 C 
ATOM     21  C   UNL     1      -6.914 -10.951  19.372  0.00  0.00    +0.212 C 
ATOM     22  C   UNL     1      -8.418 -11.050  19.339  0.00  0.00    +0.109 C 
ENDBRANCH   5  11
ENDBRANCH  20  12
TORSDOF 6
ENDMDL
MODEL 10
REMARK VINA RESULT:      -6.2     28.776     31.177
REMARK  Name = 45783621
REMARK  8 active torsions:
REMARK  status: ('A' for Active; 'I' for Inactive)
REMARK    1  A    between atoms: O_4  and  C_30
REMARK    2  A    between atoms: O_4  and  C_31
REMARK    3  A    between atoms: N_5  and  C_11
REMARK    4  A    between atoms: N_10  and  C_28
REMARK    5  A    between atoms: C_12  and  C_20
REMARK    6  A    between atoms: C_21  and  C_22
REMARK    7  A    between atoms: C_23  and  C_24
REMARK    8  A    between atoms: C_29  and  C_30
REMARK                            x       y       z     vdW  Elec       q    Type
REMARK                         _______ _______ _______ _____ _____    ______ ____
ROOT
ATOM      1  O   UNL     1      -4.796 -11.580  14.339  0.00  0.00    -0.336 OA
ATOM      7  N   UNL     1      -5.841  -9.664  13.831  0.00  0.00    -0.190 NA
ATOM      8  N   UNL     1      -4.905 -11.553  12.942  0.00  0.00    -0.056 NA
ATOM     20  C   UNL     1      -5.371 -10.431  14.783  0.00  0.00    +0.245 A 
ATOM     23  C   UNL     1      -5.531 -10.394  12.720  0.00  0.00    +0.204 A 
ENDROOT
BRANCH  23  24
ATOM      9  N   UNL     1      -7.259 -10.140   9.438  0.00  0.00    -0.239 NA
ATOM     24  C   UNL     1      -5.865  -9.937  11.403  0.00  0.00    +0.041 A 
ATOM     25  C   UNL     1      -5.163  -8.895  10.805  0.00  0.00    +0.016 A 
ATOM     26  C   UNL     1      -6.895 -10.521  10.683  0.00  0.00    +0.124 A 
ATOM     27  C   UNL     1      -5.509  -8.475   9.526  0.00  0.00    +0.044 A 
ATOM     28  C   UNL     1      -6.555  -9.125   8.890  0.00  0.00    +0.125 A 
BRANCH  28  10
ATOM      3  O   UNL     1      -5.859 -10.276   6.199  0.00  0.00    -0.273 OA
ATOM     10  N   UNL     1      -6.895  -8.693   7.602  0.00  0.00    -0.268 N 
ATOM     29  C   UNL     1      -6.541  -9.272   6.379  0.00  0.00    +0.244 C 
ATOM     32  H   UNL     1      -7.469  -7.854   7.578  0.00  0.00    +0.156 HD
BRANCH  29  30
ATOM     30  C   UNL     1      -7.100  -8.501   5.203  0.00  0.00    +0.255 C 
BRANCH  30   4
ATOM      4  O   UNL     1      -7.956  -7.488   5.690  0.00  0.00    -0.374 OA
ATOM     31  C   UNL     1      -9.187  -7.445   4.973  0.00  0.00    +0.194 C 
ENDBRANCH  30   4
ENDBRANCH  29  30
ENDBRANCH  28  10
ENDBRANCH  23  24
BRANCH  20  12
ATOM      5  N   UNL     1      -6.270 -11.161  16.986  0.00  0.00    -0.288 NA
ATOM     12  C   UNL     1      -5.380 -10.216  16.282  0.00  0.00    +0.146 C 
ATOM     13  C   UNL     1      -5.698 -11.352  18.319  0.00  0.00    +0.085 C 
ATOM     14  C   UNL     1      -3.996 -10.433  16.921  0.00  0.00    +0.030 C 
ATOM     17  C   UNL     1      -4.219 -11.470  18.011  0.00  0.00    +0.017 C 
BRANCH   5  11
ATOM      2  O   UNL     1     -11.007  -8.464  14.141  0.00  0.00    -0.276 OA
ATOM      6  N   UNL     1      -9.803  -9.041  16.042  0.00  0.00    -0.302 N 
ATOM     11  C   UNL     1      -7.658 -10.710  17.042  0.00  0.00    +0.060 C 
ATOM     15  C   UNL     1      -8.367 -11.019  15.716  0.00  0.00    +0.038 C 
ATOM     16  C   UNL     1      -7.712  -9.206  17.342  0.00  0.00    +0.038 C 
ATOM     18  C   UNL     1      -9.792 -10.470  15.719  0.00  0.00    +0.109 C 
ATOM     19  C   UNL     1      -9.152  -8.693  17.311  0.00  0.00    +0.109 C 
ATOM     21  C   UNL     1     -10.434  -8.141  15.185  0.00  0.00    +0.212 C 
ATOM     22  C   UNL     1     -10.399  -6.688  15.587  0.00  0.00    +0.109 C 
ENDBRANCH   5  11
ENDBRANCH  20  12
TORSDOF 6
ENDMDL
