MODEL 1
REMARK VINA RESULT:      -6.3      0.000      0.000
REMARK  Name = 38027263
REMARK  12 active torsions:
REMARK  status: ('A' for Active; 'I' for Inactive)
REMARK    1  A    between atoms: S_1  and  N_5
REMARK    2  A    between atoms: S_1  and  C_25
REMARK    3  A    between atoms: N_5  and  C_14
REMARK    4  A    between atoms: N_6  and  C_18
REMARK    5  A    between atoms: C_7  and  C_11
REMARK    6  A    between atoms: C_8  and  C_14
REMARK    7  A    between atoms: C_10  and  C_15
REMARK    8  A    between atoms: C_11  and  C_16
REMARK    9  A    between atoms: C_11  and  C_17
REMARK   10  A    between atoms: C_12  and  C_19
REMARK   11  A    between atoms: C_15  and  C_20
REMARK   12  A    between atoms: C_25  and  C_26
REMARK                            x       y       z     vdW  Elec       q    Type
REMARK                         _______ _______ _______ _____ _____    ______ ____
ROOT
ATOM      7  C   UNL     1      14.771   8.799  20.734  0.00  0.00    +0.000 C 
ATOM      8  C   UNL     1      13.909   7.559  21.079  0.00  0.00    +0.030 C 
ATOM      9  C   UNL     1      14.609   9.882  21.812  0.00  0.00    +0.012 C 
ATOM     10  C   UNL     1      13.145  10.334  21.968  0.00  0.00    +0.023 C 
ATOM     12  C   UNL     1      12.197   9.154  22.046  0.00  0.00    -0.073 C 
ATOM     13  C   UNL     1      12.560   7.920  21.657  0.00  0.00    -0.023 C 
ATOM     19  C   UNL     1      10.834   9.418  22.625  0.00  0.00    +0.039 C 
ENDROOT
BRANCH   7  11
ATOM     11  C   UNL     1      16.251   8.436  20.581  0.00  0.00    -0.013 C 
ATOM     16  C   UNL     1      17.130   9.645  20.891  0.00  0.00    +0.007 C 
ATOM     17  C   UNL     1      16.608   7.263  21.488  0.00  0.00    +0.007 C 
ENDBRANCH   7  11
BRANCH   8  14
ATOM     14  C   UNL     1      13.716   6.661  19.852  0.00  0.00    +0.113 C 
BRANCH  14   5
ATOM      5  N   UNL     1      12.368   6.880  19.303  0.00  0.00    -0.194 NA
ATOM     32  H   UNL     1      11.800   6.025  19.244  0.00  0.00    +0.148 HD
BRANCH   5   1
ATOM      1  S   UNL     1      12.159   7.992  18.023  0.00  0.00    +0.033 S 
ATOM      3  O   UNL     1      11.859   9.306  18.559  0.00  0.00    -0.158 OA
ATOM      4  O   UNL     1      11.302   7.386  17.021  0.00  0.00    -0.158 OA
BRANCH   1  25
ATOM     25  C   UNL     1      13.806   8.036  17.357  0.00  0.00    +0.220 C 
BRANCH  25  26
ATOM     26  C   UNL     1      14.071   9.432  16.884  0.00  0.00    -0.025 A 
ATOM     27  C   UNL     1      14.710  10.344  17.724  0.00  0.00    +0.005 A 
ATOM     28  C   UNL     1      13.676   9.820  15.604  0.00  0.00    +0.005 A 
ATOM     29  C   UNL     1      14.956  11.644  17.283  0.00  0.00    +0.000 A 
ATOM     30  C   UNL     1      13.921  11.121  15.163  0.00  0.00    +0.000 A 
ATOM     31  C   UNL     1      14.561  12.033  16.002  0.00  0.00    +0.000 A 
ENDBRANCH  25  26
ENDBRANCH   1  25
ENDBRANCH   5   1
ENDBRANCH  14   5
ENDBRANCH   8  14
BRANCH  10  15
ATOM     15  C   UNL     1      12.739  11.291  20.842  0.00  0.00    +0.103 C 
BRANCH  15  20
ATOM      2  O   UNL     1      11.596  13.417  20.665  0.00  0.00    -0.276 OA
ATOM      6  N   UNL     1      12.267  12.648  22.752  0.00  0.00    -0.312 N 
ATOM     20  C   UNL     1      12.132  12.569  21.374  0.00  0.00    +0.214 C 
ATOM     33  H   UNL     1      12.685  11.864  23.248  0.00  0.00    +0.149 HD
BRANCH   6  18
ATOM     18  C   UNL     1      11.781  13.760  23.530  0.00  0.00    +0.073 C 
ATOM     21  C   UNL     1      12.673  14.038  24.733  0.00  0.00    +0.022 C 
ATOM     22  C   UNL     1      10.432  13.459  24.172  0.00  0.00    +0.022 C 
ATOM     23  C   UNL     1      12.218  13.034  25.788  0.00  0.00    +0.002 C 
ATOM     24  C   UNL     1      10.765  12.695  25.452  0.00  0.00    +0.002 C 
ENDBRANCH   6  18
ENDBRANCH  15  20
ENDBRANCH  10  15
TORSDOF 9
ENDMDL
MODEL 2
REMARK VINA RESULT:      -6.1     12.565     16.076
REMARK  Name = 38027263
REMARK  12 active torsions:
REMARK  status: ('A' for Active; 'I' for Inactive)
REMARK    1  A    between atoms: S_1  and  N_5
REMARK    2  A    between atoms: S_1  and  C_25
REMARK    3  A    between atoms: N_5  and  C_14
REMARK    4  A    between atoms: N_6  and  C_18
REMARK    5  A    between atoms: C_7  and  C_11
REMARK    6  A    between atoms: C_8  and  C_14
REMARK    7  A    between atoms: C_10  and  C_15
REMARK    8  A    between atoms: C_11  and  C_16
REMARK    9  A    between atoms: C_11  and  C_17
REMARK   10  A    between atoms: C_12  and  C_19
REMARK   11  A    between atoms: C_15  and  C_20
REMARK   12  A    between atoms: C_25  and  C_26
REMARK                            x       y       z     vdW  Elec       q    Type
REMARK                         _______ _______ _______ _____ _____    ______ ____
ROOT
ATOM      7  C   UNL     1      10.886   7.421   5.325  0.00  0.00    +0.000 C 
ATOM      8  C   UNL     1      10.850   5.872   5.317  0.00  0.00    +0.030 C 
ATOM      9  C   UNL     1      11.267   7.941   6.719  0.00  0.00    +0.012 C 
ATOM     10  C   UNL     1      10.282   7.471   7.806  0.00  0.00    +0.023 C 
ATOM     12  C   UNL     1       9.987   5.989   7.694  0.00  0.00    -0.073 C 
ATOM     13  C   UNL     1      10.259   5.289   6.579  0.00  0.00    -0.023 C 
ATOM     19  C   UNL     1       9.412   5.319   8.911  0.00  0.00    +0.039 C 
ENDROOT
BRANCH   7  11
ATOM     11  C   UNL     1      11.862   7.972   4.281  0.00  0.00    -0.013 C 
ATOM     16  C   UNL     1      11.963   9.490   4.395  0.00  0.00    +0.007 C 
ATOM     17  C   UNL     1      13.234   7.326   4.443  0.00  0.00    +0.007 C 
ENDBRANCH   7  11
BRANCH   8  14
ATOM     14  C   UNL     1      10.080   5.344   4.101  0.00  0.00    +0.113 C 
BRANCH  14   5
ATOM      5  N   UNL     1      10.845   4.246   3.488  0.00  0.00    -0.194 NA
ATOM     32  H   UNL     1      11.546   3.829   4.113  0.00  0.00    +0.148 HD
BRANCH   5   1
ATOM      1  S   UNL     1      11.300   4.362   1.845  0.00  0.00    +0.033 S 
ATOM      3  O   UNL     1      11.961   5.631   1.607  0.00  0.00    -0.158 OA
ATOM      4  O   UNL     1      10.178   3.944   1.024  0.00  0.00    -0.158 OA
BRANCH   1  25
ATOM     25  C   UNL     1      12.528   3.080   1.757  0.00  0.00    +0.220 C 
BRANCH  25  26
ATOM     26  C   UNL     1      13.554   3.499   0.750  0.00  0.00    -0.025 A 
ATOM     27  C   UNL     1      13.200   3.632  -0.593  0.00  0.00    +0.005 A 
ATOM     28  C   UNL     1      14.865   3.754   1.154  0.00  0.00    +0.005 A 
ATOM     29  C   UNL     1      14.156   4.021  -1.531  0.00  0.00    +0.000 A 
ATOM     30  C   UNL     1      15.821   4.143   0.216  0.00  0.00    +0.000 A 
ATOM     31  C   UNL     1      15.466   4.276  -1.127  0.00  0.00    +0.000 A 
ENDBRANCH  25  26
ENDBRANCH   1  25
ENDBRANCH   5   1
ENDBRANCH  14   5
ENDBRANCH   8  14
BRANCH  10  15
ATOM     15  C   UNL     1       8.989   8.292   7.773  0.00  0.00    +0.103 C 
BRANCH  15  20
ATOM      2  O   UNL     1       9.170  10.443   6.677  0.00  0.00    -0.276 OA
ATOM      6  N   UNL     1       9.626  10.273   8.949  0.00  0.00    -0.312 N 
ATOM     20  C   UNL     1       9.262   9.778   7.706  0.00  0.00    +0.214 C 
ATOM     33  H   UNL     1       9.622   9.643   9.747  0.00  0.00    +0.149 HD
BRANCH   6  18
ATOM     18  C   UNL     1       9.946  11.659   9.182  0.00  0.00    +0.073 C 
ATOM     21  C   UNL     1      10.823  11.835  10.416  0.00  0.00    +0.022 C 
ATOM     22  C   UNL     1       8.709  12.479   9.529  0.00  0.00    +0.022 C 
ATOM     23  C   UNL     1       9.846  11.809  11.588  0.00  0.00    +0.002 C 
ATOM     24  C   UNL     1       8.499  12.263  11.026  0.00  0.00    +0.002 C 
ENDBRANCH   6  18
ENDBRANCH  15  20
ENDBRANCH  10  15
TORSDOF 9
ENDMDL
MODEL 3
REMARK VINA RESULT:      -6.0     27.270     30.004
REMARK  Name = 38027263
REMARK  12 active torsions:
REMARK  status: ('A' for Active; 'I' for Inactive)
REMARK    1  A    between atoms: S_1  and  N_5
REMARK    2  A    between atoms: S_1  and  C_25
REMARK    3  A    between atoms: N_5  and  C_14
REMARK    4  A    between atoms: N_6  and  C_18
REMARK    5  A    between atoms: C_7  and  C_11
REMARK    6  A    between atoms: C_8  and  C_14
REMARK    7  A    between atoms: C_10  and  C_15
REMARK    8  A    between atoms: C_11  and  C_16
REMARK    9  A    between atoms: C_11  and  C_17
REMARK   10  A    between atoms: C_12  and  C_19
REMARK   11  A    between atoms: C_15  and  C_20
REMARK   12  A    between atoms: C_25  and  C_26
REMARK                            x       y       z     vdW  Elec       q    Type
REMARK                         _______ _______ _______ _____ _____    ______ ____
ROOT
ATOM      7  C   UNL     1      -6.102 -10.820  15.355  0.00  0.00    +0.000 C 
ATOM      8  C   UNL     1      -6.707 -10.570  16.760  0.00  0.00    +0.030 C 
ATOM      9  C   UNL     1      -5.243 -12.093  15.359  0.00  0.00    +0.012 C 
ATOM     10  C   UNL     1      -4.091 -12.015  16.379  0.00  0.00    +0.023 C 
ATOM     12  C   UNL     1      -4.567 -11.516  17.728  0.00  0.00    -0.073 C 
ATOM     13  C   UNL     1      -5.744 -10.884  17.881  0.00  0.00    -0.023 C 
ATOM     19  C   UNL     1      -3.677 -11.799  18.907  0.00  0.00    +0.039 C 
ENDROOT
BRANCH   7  11
ATOM     11  C   UNL     1      -7.189 -10.930  14.281  0.00  0.00    -0.013 C 
ATOM     16  C   UNL     1      -6.866 -10.016  13.103  0.00  0.00    +0.007 C 
ATOM     17  C   UNL     1      -7.334 -12.376  13.819  0.00  0.00    +0.007 C 
ENDBRANCH   7  11
BRANCH   8  14
ATOM     14  C   UNL     1      -7.202  -9.127  16.901  0.00  0.00    +0.113 C 
BRANCH  14   5
ATOM      5  N   UNL     1      -8.347  -9.098  17.824  0.00  0.00    -0.194 NA
ATOM     32  H   UNL     1      -8.243  -9.725  18.633  0.00  0.00    +0.148 HD
BRANCH   5   1
ATOM      1  S   UNL     1      -9.928  -8.971  17.191  0.00  0.00    +0.033 S 
ATOM      3  O   UNL     1      -9.951  -9.462  15.827  0.00  0.00    -0.158 OA
ATOM      4  O   UNL     1     -10.451  -7.657  17.515  0.00  0.00    -0.158 OA
BRANCH   1  25
ATOM     25  C   UNL     1     -10.783 -10.149  18.211  0.00  0.00    +0.220 C 
BRANCH  25  26
ATOM     26  C   UNL     1      -9.903 -11.352  18.354  0.00  0.00    -0.025 A 
ATOM     27  C   UNL     1      -9.207 -11.570  19.543  0.00  0.00    +0.005 A 
ATOM     28  C   UNL     1      -9.779 -12.255  17.298  0.00  0.00    +0.005 A 
ATOM     29  C   UNL     1      -8.387 -12.690  19.676  0.00  0.00    +0.000 A 
ATOM     30  C   UNL     1      -8.959 -13.375  17.431  0.00  0.00    +0.000 A 
ATOM     31  C   UNL     1      -8.262 -13.593  18.620  0.00  0.00    +0.000 A 
ENDBRANCH  25  26
ENDBRANCH   1  25
ENDBRANCH   5   1
ENDBRANCH  14   5
ENDBRANCH   8  14
BRANCH  10  15
ATOM     15  C   UNL     1      -2.941 -11.153  15.849  0.00  0.00    +0.103 C 
BRANCH  15  20
ATOM      2  O   UNL     1      -1.821 -12.818  14.496  0.00  0.00    -0.276 OA
ATOM      6  N   UNL     1      -2.493 -10.817  13.525  0.00  0.00    -0.312 N 
ATOM     20  C   UNL     1      -2.352 -11.713  14.574  0.00  0.00    +0.214 C 
ATOM     33  H   UNL     1      -2.994  -9.947  13.688  0.00  0.00    +0.149 HD
BRANCH   6  18
ATOM     18  C   UNL     1      -2.021 -11.085  12.190  0.00  0.00    +0.073 C 
ATOM     21  C   UNL     1      -1.956  -9.816  11.349  0.00  0.00    +0.022 C 
ATOM     22  C   UNL     1      -2.994 -11.959  11.407  0.00  0.00    +0.022 C 
ATOM     23  C   UNL     1      -3.386  -9.608  10.858  0.00  0.00    +0.002 C 
ATOM     24  C   UNL     1      -4.038 -10.991  10.856  0.00  0.00    +0.002 C 
ENDBRANCH   6  18
ENDBRANCH  15  20
ENDBRANCH  10  15
TORSDOF 9
ENDMDL
MODEL 4
REMARK VINA RESULT:      -5.9      1.624      2.381
REMARK  Name = 38027263
REMARK  12 active torsions:
REMARK  status: ('A' for Active; 'I' for Inactive)
REMARK    1  A    between atoms: S_1  and  N_5
REMARK    2  A    between atoms: S_1  and  C_25
REMARK    3  A    between atoms: N_5  and  C_14
REMARK    4  A    between atoms: N_6  and  C_18
REMARK    5  A    between atoms: C_7  and  C_11
REMARK    6  A    between atoms: C_8  and  C_14
REMARK    7  A    between atoms: C_10  and  C_15
REMARK    8  A    between atoms: C_11  and  C_16
REMARK    9  A    between atoms: C_11  and  C_17
REMARK   10  A    between atoms: C_12  and  C_19
REMARK   11  A    between atoms: C_15  and  C_20
REMARK   12  A    between atoms: C_25  and  C_26
REMARK                            x       y       z     vdW  Elec       q    Type
REMARK                         _______ _______ _______ _____ _____    ______ ____
ROOT
ATOM      7  C   UNL     1      15.024   8.300  20.352  0.00  0.00    +0.000 C 
ATOM      8  C   UNL     1      14.367   7.174  19.515  0.00  0.00    +0.030 C 
ATOM      9  C   UNL     1      14.542   8.238  21.809  0.00  0.00    +0.012 C 
ATOM     10  C   UNL     1      13.012   8.375  21.922  0.00  0.00    +0.023 C 
ATOM     12  C   UNL     1      12.292   7.483  20.933  0.00  0.00    -0.073 C 
ATOM     13  C   UNL     1      12.917   6.945  19.871  0.00  0.00    -0.023 C 
ATOM     19  C   UNL     1      10.845   7.186  21.216  0.00  0.00    +0.039 C 
ENDROOT
BRANCH   7  11
ATOM     11  C   UNL     1      16.554   8.222  20.307  0.00  0.00    -0.013 C 
ATOM     16  C   UNL     1      17.167   9.254  21.249  0.00  0.00    +0.007 C 
ATOM     17  C   UNL     1      17.025   6.816  20.666  0.00  0.00    +0.007 C 
ENDBRANCH   7  11
BRANCH   8  14
ATOM     14  C   UNL     1      14.487   7.458  18.014  0.00  0.00    +0.113 C 
BRANCH  14   5
ATOM      5  N   UNL     1      13.147   7.718  17.465  0.00  0.00    -0.194 NA
ATOM     32  H   UNL     1      12.544   6.886  17.429  0.00  0.00    +0.148 HD
BRANCH   5   1
ATOM      1  S   UNL     1      12.976   8.807  16.159  0.00  0.00    +0.033 S 
ATOM      3  O   UNL     1      11.577   8.920  15.795  0.00  0.00    -0.158 OA
ATOM      4  O   UNL     1      13.979   8.491  15.160  0.00  0.00    -0.158 OA
BRANCH   1  25
ATOM     25  C   UNL     1      13.463  10.329  16.939  0.00  0.00    +0.220 C 
BRANCH  25  26
ATOM     26  C   UNL     1      14.271  11.111  15.950  0.00  0.00    -0.025 A 
ATOM     27  C   UNL     1      13.678  11.574  14.775  0.00  0.00    +0.005 A 
ATOM     28  C   UNL     1      15.617  11.374  16.202  0.00  0.00    +0.005 A 
ATOM     29  C   UNL     1      14.431  12.302  13.854  0.00  0.00    +0.000 A 
ATOM     30  C   UNL     1      16.371  12.101  15.281  0.00  0.00    +0.000 A 
ATOM     31  C   UNL     1      15.777  12.565  14.106  0.00  0.00    +0.000 A 
ENDBRANCH  25  26
ENDBRANCH   1  25
ENDBRANCH   5   1
ENDBRANCH  14   5
ENDBRANCH   8  14
BRANCH  10  15
ATOM     15  C   UNL     1      12.575   9.836  21.763  0.00  0.00    +0.103 C 
BRANCH  15  20
ATOM      2  O   UNL     1      10.557   9.966  23.093  0.00  0.00    -0.276 OA
ATOM      6  N   UNL     1      12.441  11.155  23.752  0.00  0.00    -0.312 N 
ATOM     20  C   UNL     1      11.726  10.304  22.923  0.00  0.00    +0.214 C 
ATOM     33  H   UNL     1      13.421  11.330  23.546  0.00  0.00    +0.149 HD
BRANCH   6  18
ATOM     18  C   UNL     1      11.881  11.756  24.937  0.00  0.00    +0.073 C 
ATOM     21  C   UNL     1      10.797  12.771  24.595  0.00  0.00    +0.022 C 
ATOM     22  C   UNL     1      12.907  12.598  25.687  0.00  0.00    +0.022 C 
ATOM     23  C   UNL     1      11.561  14.045  24.247  0.00  0.00    +0.002 C 
ATOM     24  C   UNL     1      12.898  13.952  24.982  0.00  0.00    +0.002 C 
ENDBRANCH   6  18
ENDBRANCH  15  20
ENDBRANCH  10  15
TORSDOF 9
ENDMDL
MODEL 5
REMARK VINA RESULT:      -5.9     14.220     18.169
REMARK  Name = 38027263
REMARK  12 active torsions:
REMARK  status: ('A' for Active; 'I' for Inactive)
REMARK    1  A    between atoms: S_1  and  N_5
REMARK    2  A    between atoms: S_1  and  C_25
REMARK    3  A    between atoms: N_5  and  C_14
REMARK    4  A    between atoms: N_6  and  C_18
REMARK    5  A    between atoms: C_7  and  C_11
REMARK    6  A    between atoms: C_8  and  C_14
REMARK    7  A    between atoms: C_10  and  C_15
REMARK    8  A    between atoms: C_11  and  C_16
REMARK    9  A    between atoms: C_11  and  C_17
REMARK   10  A    between atoms: C_12  and  C_19
REMARK   11  A    between atoms: C_15  and  C_20
REMARK   12  A    between atoms: C_25  and  C_26
REMARK                            x       y       z     vdW  Elec       q    Type
REMARK                         _______ _______ _______ _____ _____    ______ ____
ROOT
ATOM      7  C   UNL     1      12.383   8.071   5.295  0.00  0.00    +0.000 C 
ATOM      8  C   UNL     1      12.285   9.473   4.643  0.00  0.00    +0.030 C 
ATOM      9  C   UNL     1      13.187   7.118   4.399  0.00  0.00    +0.012 C 
ATOM     10  C   UNL     1      12.558   6.962   3.001  0.00  0.00    +0.023 C 
ATOM     12  C   UNL     1      12.184   8.302   2.400  0.00  0.00    -0.073 C 
ATOM     13  C   UNL     1      12.080   9.415   3.147  0.00  0.00    -0.023 C 
ATOM     19  C   UNL     1      11.976   8.342   0.912  0.00  0.00    +0.039 C 
ENDROOT
BRANCH   7  11
ATOM     11  C   UNL     1      13.020   8.136   6.687  0.00  0.00    -0.013 C 
ATOM     16  C   UNL     1      13.302   6.730   7.209  0.00  0.00    +0.007 C 
ATOM     17  C   UNL     1      14.300   8.965   6.648  0.00  0.00    +0.007 C 
ENDBRANCH   7  11
BRANCH   8  14
ATOM     14  C   UNL     1      11.164  10.303   5.280  0.00  0.00    +0.113 C 
BRANCH  14   5
ATOM      5  N   UNL     1      10.098   9.399   5.739  0.00  0.00    -0.194 NA
ATOM     32  H   UNL     1      10.444   8.514   6.131  0.00  0.00    +0.148 HD
BRANCH   5   1
ATOM      1  S   UNL     1       8.651   9.288   4.836  0.00  0.00    +0.033 S 
ATOM      3  O   UNL     1       8.875   8.483   3.650  0.00  0.00    -0.158 OA
ATOM      4  O   UNL     1       8.067  10.611   4.735  0.00  0.00    -0.158 OA
BRANCH   1  25
ATOM     25  C   UNL     1       7.642   8.344   5.954  0.00  0.00    +0.220 C 
BRANCH  25  26
ATOM     26  C   UNL     1       8.478   7.222   6.488  0.00  0.00    -0.025 A 
ATOM     27  C   UNL     1       8.835   6.161   5.656  0.00  0.00    +0.005 A 
ATOM     28  C   UNL     1       8.897   7.237   7.818  0.00  0.00    +0.005 A 
ATOM     29  C   UNL     1       9.613   5.115   6.153  0.00  0.00    +0.000 A 
ATOM     30  C   UNL     1       9.675   6.191   8.316  0.00  0.00    +0.000 A 
ATOM     31  C   UNL     1      10.032   5.130   7.483  0.00  0.00    +0.000 A 
ENDBRANCH  25  26
ENDBRANCH   1  25
ENDBRANCH   5   1
ENDBRANCH  14   5
ENDBRANCH   8  14
BRANCH  10  15
ATOM     15  C   UNL     1      11.348   6.022   3.042  0.00  0.00    +0.103 C 
BRANCH  15  20
ATOM      2  O   UNL     1      10.871   3.724   2.451  0.00  0.00    -0.276 OA
ATOM      6  N   UNL     1      12.998   4.583   2.082  0.00  0.00    -0.312 N 
ATOM     20  C   UNL     1      11.678   4.649   2.502  0.00  0.00    +0.214 C 
ATOM     33  H   UNL     1      13.567   5.425   2.124  0.00  0.00    +0.149 HD
BRANCH   6  18
ATOM     18  C   UNL     1      13.590   3.393   1.525  0.00  0.00    +0.073 C 
ATOM     21  C   UNL     1      15.112   3.461   1.540  0.00  0.00    +0.022 C 
ATOM     22  C   UNL     1      13.274   3.242   0.041  0.00  0.00    +0.022 C 
ATOM     23  C   UNL     1      15.472   4.282   0.305  0.00  0.00    +0.002 C 
ATOM     24  C   UNL     1      14.310   4.107  -0.674  0.00  0.00    +0.002 C 
ENDBRANCH   6  18
ENDBRANCH  15  20
ENDBRANCH  10  15
TORSDOF 9
ENDMDL
MODEL 6
REMARK VINA RESULT:      -5.9     27.199     29.731
REMARK  Name = 38027263
REMARK  12 active torsions:
REMARK  status: ('A' for Active; 'I' for Inactive)
REMARK    1  A    between atoms: S_1  and  N_5
REMARK    2  A    between atoms: S_1  and  C_25
REMARK    3  A    between atoms: N_5  and  C_14
REMARK    4  A    between atoms: N_6  and  C_18
REMARK    5  A    between atoms: C_7  and  C_11
REMARK    6  A    between atoms: C_8  and  C_14
REMARK    7  A    between atoms: C_10  and  C_15
REMARK    8  A    between atoms: C_11  and  C_16
REMARK    9  A    between atoms: C_11  and  C_17
REMARK   10  A    between atoms: C_12  and  C_19
REMARK   11  A    between atoms: C_15  and  C_20
REMARK   12  A    between atoms: C_25  and  C_26
REMARK                            x       y       z     vdW  Elec       q    Type
REMARK                         _______ _______ _______ _____ _____    ______ ____
ROOT
ATOM      7  C   UNL     1      -6.063 -10.769  15.212  0.00  0.00    +0.000 C 
ATOM      8  C   UNL     1      -6.739 -10.661  16.602  0.00  0.00    +0.030 C 
ATOM      9  C   UNL     1      -5.108 -11.972  15.173  0.00  0.00    +0.012 C 
ATOM     10  C   UNL     1      -4.006 -11.876  16.245  0.00  0.00    +0.023 C 
ATOM     12  C   UNL     1      -4.572 -11.506  17.601  0.00  0.00    -0.073 C 
ATOM     13  C   UNL     1      -5.799 -10.976  17.742  0.00  0.00    -0.023 C 
ATOM     19  C   UNL     1      -3.709 -11.799  18.797  0.00  0.00    +0.039 C 
ENDROOT
BRANCH   7  11
ATOM     11  C   UNL     1      -7.095 -10.889  14.087  0.00  0.00    -0.013 C 
ATOM     16  C   UNL     1      -6.925  -9.750  13.085  0.00  0.00    +0.007 C 
ATOM     17  C   UNL     1      -6.971 -12.241  13.393  0.00  0.00    +0.007 C 
ENDBRANCH   7  11
BRANCH   8  14
ATOM     14  C   UNL     1      -7.351  -9.271  16.813  0.00  0.00    +0.113 C 
BRANCH  14   5
ATOM      5  N   UNL     1      -8.260  -9.315  17.968  0.00  0.00    -0.194 NA
ATOM     32  H   UNL     1      -7.792  -9.537  18.856  0.00  0.00    +0.148 HD
BRANCH   5   1
ATOM      1  S   UNL     1      -9.824  -9.977  17.776  0.00  0.00    +0.033 S 
ATOM      3  O   UNL     1     -10.783  -9.197  18.533  0.00  0.00    -0.158 OA
ATOM      4  O   UNL     1      -9.740 -11.416  17.944  0.00  0.00    -0.158 OA
BRANCH   1  25
ATOM     25  C   UNL     1     -10.101  -9.659  16.049  0.00  0.00    +0.220 C 
BRANCH  25  26
ATOM     26  C   UNL     1     -10.935  -8.420  15.941  0.00  0.00    -0.025 A 
ATOM     27  C   UNL     1     -12.321  -8.521  15.821  0.00  0.00    +0.005 A 
ATOM     28  C   UNL     1     -10.325  -7.166  15.958  0.00  0.00    +0.005 A 
ATOM     29  C   UNL     1     -13.098  -7.366  15.720  0.00  0.00    +0.000 A 
ATOM     30  C   UNL     1     -11.102  -6.012  15.856  0.00  0.00    +0.000 A 
ATOM     31  C   UNL     1     -12.488  -6.112  15.737  0.00  0.00    +0.000 A 
ENDBRANCH  25  26
ENDBRANCH   1  25
ENDBRANCH   5   1
ENDBRANCH  14   5
ENDBRANCH   8  14
BRANCH  10  15
ATOM     15  C   UNL     1      -2.907 -10.896  15.822  0.00  0.00    +0.103 C 
BRANCH  15  20
ATOM      2  O   UNL     1      -1.305 -12.214  14.576  0.00  0.00    -0.276 OA
ATOM      6  N   UNL     1      -2.646 -10.684  13.455  0.00  0.00    -0.312 N 
ATOM     20  C   UNL     1      -2.184 -11.357  14.576  0.00  0.00    +0.214 C 
ATOM     33  H   UNL     1      -3.415 -10.026  13.561  0.00  0.00    +0.149 HD
BRANCH   6  18
ATOM     18  C   UNL     1      -2.135 -10.919  12.128  0.00  0.00    +0.073 C 
ATOM     21  C   UNL     1      -2.214  -9.667  11.264  0.00  0.00    +0.022 C 
ATOM     22  C   UNL     1      -2.992 -11.916  11.356  0.00  0.00    +0.022 C 
ATOM     23  C   UNL     1      -3.654  -9.638  10.761  0.00  0.00    +0.002 C 
ATOM     24  C   UNL     1      -4.139 -11.088  10.780  0.00  0.00    +0.002 C 
ENDBRANCH   6  18
ENDBRANCH  15  20
ENDBRANCH  10  15
TORSDOF 9
ENDMDL
MODEL 7
REMARK VINA RESULT:      -5.9     27.131     29.693
REMARK  Name = 38027263
REMARK  12 active torsions:
REMARK  status: ('A' for Active; 'I' for Inactive)
REMARK    1  A    between atoms: S_1  and  N_5
REMARK    2  A    between atoms: S_1  and  C_25
REMARK    3  A    between atoms: N_5  and  C_14
REMARK    4  A    between atoms: N_6  and  C_18
REMARK    5  A    between atoms: C_7  and  C_11
REMARK    6  A    between atoms: C_8  and  C_14
REMARK    7  A    between atoms: C_10  and  C_15
REMARK    8  A    between atoms: C_11  and  C_16
REMARK    9  A    between atoms: C_11  and  C_17
REMARK   10  A    between atoms: C_12  and  C_19
REMARK   11  A    between atoms: C_15  and  C_20
REMARK   12  A    between atoms: C_25  and  C_26
REMARK                            x       y       z     vdW  Elec       q    Type
REMARK                         _______ _______ _______ _____ _____    ______ ____
ROOT
ATOM      7  C   UNL     1      -5.432 -10.513  10.532  0.00  0.00    +0.000 C 
ATOM      8  C   UNL     1      -4.846  -9.527   9.490  0.00  0.00    +0.030 C 
ATOM      9  C   UNL     1      -4.903 -10.187  11.936  0.00  0.00    +0.012 C 
ATOM     10  C   UNL     1      -3.365 -10.257  12.010  0.00  0.00    +0.023 C 
ATOM     12  C   UNL     1      -2.713  -9.527  10.854  0.00  0.00    -0.073 C 
ATOM     13  C   UNL     1      -3.393  -9.198   9.742  0.00  0.00    -0.023 C 
ATOM     19  C   UNL     1      -1.269  -9.143  11.024  0.00  0.00    +0.039 C 
ENDROOT
BRANCH   7  11
ATOM     11  C   UNL     1      -6.964 -10.489  10.536  0.00  0.00    -0.013 C 
ATOM     16  C   UNL     1      -7.506 -11.324  11.693  0.00  0.00    +0.007 C 
ATOM     17  C   UNL     1      -7.473  -9.053  10.622  0.00  0.00    +0.007 C 
ENDBRANCH   7  11
BRANCH   8  14
ATOM     14  C   UNL     1      -5.007 -10.068   8.065  0.00  0.00    +0.113 C 
BRANCH  14   5
ATOM      5  N   UNL     1      -5.738  -9.081   7.255  0.00  0.00    -0.194 NA
ATOM     32  H   UNL     1      -5.816  -8.156   7.698  0.00  0.00    +0.148 HD
BRANCH   5   1
ATOM      1  S   UNL     1      -7.102  -9.582   6.356  0.00  0.00    +0.033 S 
ATOM      3  O   UNL     1      -8.187  -9.919   7.258  0.00  0.00    -0.158 OA
ATOM      4  O   UNL     1      -6.665 -10.520   5.339  0.00  0.00    -0.158 OA
BRANCH   1  25
ATOM     25  C   UNL     1      -7.525  -8.064   5.534  0.00  0.00    +0.220 C 
BRANCH  25  26
ATOM     26  C   UNL     1      -8.518  -7.341   6.392  0.00  0.00    -0.025 A 
ATOM     27  C   UNL     1      -9.869  -7.342   6.047  0.00  0.00    +0.005 A 
ATOM     28  C   UNL     1      -8.090  -6.666   7.535  0.00  0.00    +0.005 A 
ATOM     29  C   UNL     1     -10.793  -6.668   6.845  0.00  0.00    +0.000 A 
ATOM     30  C   UNL     1      -9.014  -5.992   8.333  0.00  0.00    +0.000 A 
ATOM     31  C   UNL     1     -10.365  -5.992   7.988  0.00  0.00    +0.000 A 
ENDBRANCH  25  26
ENDBRANCH   1  25
ENDBRANCH   5   1
ENDBRANCH  14   5
ENDBRANCH   8  14
BRANCH  10  15
ATOM     15  C   UNL     1      -2.882 -11.710  12.084  0.00  0.00    +0.103 C 
BRANCH  15  20
ATOM      2  O   UNL     1      -1.534 -12.661  13.855  0.00  0.00    -0.276 OA
ATOM      6  N   UNL     1      -3.663 -11.865  14.338  0.00  0.00    -0.312 N 
ATOM     20  C   UNL     1      -2.589 -12.139  13.504  0.00  0.00    +0.214 C 
ATOM     33  H   UNL     1      -4.472 -11.384  13.952  0.00  0.00    +0.149 HD
BRANCH   6  18
ATOM     18  C   UNL     1      -3.665 -12.169  15.747  0.00  0.00    +0.073 C 
ATOM     21  C   UNL     1      -5.066 -12.493  16.251  0.00  0.00    +0.022 C 
ATOM     22  C   UNL     1      -3.273 -10.962  16.590  0.00  0.00    +0.022 C 
ATOM     23  C   UNL     1      -5.711 -11.131  16.491  0.00  0.00    +0.002 C 
ATOM     24  C   UNL     1      -4.561 -10.157  16.750  0.00  0.00    +0.002 C 
ENDBRANCH   6  18
ENDBRANCH  15  20
ENDBRANCH  10  15
TORSDOF 9
ENDMDL
MODEL 8
REMARK VINA RESULT:      -5.8     27.611     29.221
REMARK  Name = 38027263
REMARK  12 active torsions:
REMARK  status: ('A' for Active; 'I' for Inactive)
REMARK    1  A    between atoms: S_1  and  N_5
REMARK    2  A    between atoms: S_1  and  C_25
REMARK    3  A    between atoms: N_5  and  C_14
REMARK    4  A    between atoms: N_6  and  C_18
REMARK    5  A    between atoms: C_7  and  C_11
REMARK    6  A    between atoms: C_8  and  C_14
REMARK    7  A    between atoms: C_10  and  C_15
REMARK    8  A    between atoms: C_11  and  C_16
REMARK    9  A    between atoms: C_11  and  C_17
REMARK   10  A    between atoms: C_12  and  C_19
REMARK   11  A    between atoms: C_15  and  C_20
REMARK   12  A    between atoms: C_25  and  C_26
REMARK                            x       y       z     vdW  Elec       q    Type
REMARK                         _______ _______ _______ _____ _____    ______ ____
ROOT
ATOM      7  C   UNL     1      -5.882 -10.801  17.316  0.00  0.00    +0.000 C 
ATOM      8  C   UNL     1      -5.142 -11.707  16.302  0.00  0.00    +0.030 C 
ATOM      9  C   UNL     1      -7.338 -11.260  17.484  0.00  0.00    +0.012 C 
ATOM     10  C   UNL     1      -8.113 -11.236  16.153  0.00  0.00    +0.023 C 
ATOM     12  C   UNL     1      -7.325 -11.881  15.031  0.00  0.00    -0.073 C 
ATOM     13  C   UNL     1      -6.001 -12.095  15.120  0.00  0.00    -0.023 C 
ATOM     19  C   UNL     1      -8.103 -12.315  13.819  0.00  0.00    +0.039 C 
ENDROOT
BRANCH   7  11
ATOM     11  C   UNL     1      -5.183 -10.786  18.679  0.00  0.00    -0.013 C 
ATOM     16  C   UNL     1      -6.169 -10.402  19.779  0.00  0.00    +0.007 C 
ATOM     17  C   UNL     1      -4.553 -12.144  18.969  0.00  0.00    +0.007 C 
ENDBRANCH   7  11
BRANCH   8  14
ATOM     14  C   UNL     1      -3.855 -11.041  15.801  0.00  0.00    +0.113 C 
BRANCH  14   5
ATOM      5  N   UNL     1      -2.967 -12.072  15.240  0.00  0.00    -0.194 NA
ATOM     32  H   UNL     1      -2.388 -12.548  15.944  0.00  0.00    +0.148 HD
BRANCH   5   1
ATOM      1  S   UNL     1      -2.212 -11.793  13.733  0.00  0.00    +0.033 S 
ATOM      3  O   UNL     1      -1.155 -12.765  13.528  0.00  0.00    -0.158 OA
ATOM      4  O   UNL     1      -1.948 -10.373  13.604  0.00  0.00    -0.158 OA
BRANCH   1  25
ATOM     25  C   UNL     1      -3.543 -12.190  12.624  0.00  0.00    +0.220 C 
BRANCH  25  26
ATOM     26  C   UNL     1      -3.882 -10.950  11.856  0.00  0.00    -0.025 A 
ATOM     27  C   UNL     1      -3.067 -10.537  10.801  0.00  0.00    +0.005 A 
ATOM     28  C   UNL     1      -5.013 -10.206  12.196  0.00  0.00    +0.005 A 
ATOM     29  C   UNL     1      -3.383  -9.382  10.086  0.00  0.00    +0.000 A 
ATOM     30  C   UNL     1      -5.329  -9.051  11.481  0.00  0.00    +0.000 A 
ATOM     31  C   UNL     1      -4.514  -8.639  10.427  0.00  0.00    +0.000 A 
ENDBRANCH  25  26
ENDBRANCH   1  25
ENDBRANCH   5   1
ENDBRANCH  14   5
ENDBRANCH   8  14
BRANCH  10  15
ATOM     15  C   UNL     1      -8.529  -9.808  15.781  0.00  0.00    +0.103 C 
BRANCH  15  20
ATOM      2  O   UNL     1     -10.605 -10.242  16.948  0.00  0.00    -0.276 OA
ATOM      6  N   UNL     1     -10.259  -8.168  15.959  0.00  0.00    -0.312 N 
ATOM     20  C   UNL     1      -9.905  -9.464  16.305  0.00  0.00    +0.214 C 
ATOM     33  H   UNL     1      -9.582  -7.591  15.465  0.00  0.00    +0.149 HD
BRANCH   6  18
ATOM     18  C   UNL     1     -11.520  -7.571  16.324  0.00  0.00    +0.073 C 
ATOM     21  C   UNL     1     -12.625  -7.945  15.344  0.00  0.00    +0.022 C 
ATOM     22  C   UNL     1     -11.480  -6.051  16.223  0.00  0.00    +0.022 C 
ATOM     23  C   UNL     1     -12.445  -6.979  14.176  0.00  0.00    +0.002 C 
ATOM     24  C   UNL     1     -11.748  -5.745  14.751  0.00  0.00    +0.002 C 
ENDBRANCH   6  18
ENDBRANCH  15  20
ENDBRANCH  10  15
TORSDOF 9
ENDMDL
MODEL 9
REMARK VINA RESULT:      -5.7      4.700      8.135
REMARK  Name = 38027263
REMARK  12 active torsions:
REMARK  status: ('A' for Active; 'I' for Inactive)
REMARK    1  A    between atoms: S_1  and  N_5
REMARK    2  A    between atoms: S_1  and  C_25
REMARK    3  A    between atoms: N_5  and  C_14
REMARK    4  A    between atoms: N_6  and  C_18
REMARK    5  A    between atoms: C_7  and  C_11
REMARK    6  A    between atoms: C_8  and  C_14
REMARK    7  A    between atoms: C_10  and  C_15
REMARK    8  A    between atoms: C_11  and  C_16
REMARK    9  A    between atoms: C_11  and  C_17
REMARK   10  A    between atoms: C_12  and  C_19
REMARK   11  A    between atoms: C_15  and  C_20
REMARK   12  A    between atoms: C_25  and  C_26
REMARK                            x       y       z     vdW  Elec       q    Type
REMARK                         _______ _______ _______ _____ _____    ______ ____
ROOT
ATOM      7  C   UNL     1      17.259   8.240  21.510  0.00  0.00    +0.000 C 
ATOM      8  C   UNL     1      16.764   7.315  20.371  0.00  0.00    +0.030 C 
ATOM      9  C   UNL     1      18.759   8.531  21.353  0.00  0.00    +0.012 C 
ATOM     10  C   UNL     1      19.606   7.245  21.367  0.00  0.00    +0.023 C 
ATOM     12  C   UNL     1      19.025   6.178  20.461  0.00  0.00    -0.073 C 
ATOM     13  C   UNL     1      17.757   6.233  20.016  0.00  0.00    -0.023 C 
ATOM     19  C   UNL     1      19.948   5.068  20.042  0.00  0.00    +0.039 C 
ENDROOT
BRANCH   7  11
ATOM     11  C   UNL     1      16.477   9.557  21.552  0.00  0.00    -0.013 C 
ATOM     16  C   UNL     1      16.199  10.056  20.137  0.00  0.00    +0.007 C 
ATOM     17  C   UNL     1      15.175   9.378  22.326  0.00  0.00    +0.007 C 
ENDBRANCH   7  11
BRANCH   8  14
ATOM     14  C   UNL     1      15.416   6.676  20.723  0.00  0.00    +0.113 C 
BRANCH  14   5
ATOM      5  N   UNL     1      14.429   7.036  19.693  0.00  0.00    -0.194 NA
ATOM     32  H   UNL     1      14.758   7.755  19.036  0.00  0.00    +0.148 HD
BRANCH   5   1
ATOM      1  S   UNL     1      12.776   7.127  20.116  0.00  0.00    +0.033 S 
ATOM      3  O   UNL     1      12.622   6.908  21.541  0.00  0.00    -0.158 OA
ATOM      4  O   UNL     1      12.011   6.349  19.159  0.00  0.00    -0.158 OA
BRANCH   1  25
ATOM     25  C   UNL     1      12.450   8.843  19.787  0.00  0.00    +0.220 C 
BRANCH  25  26
ATOM     26  C   UNL     1      12.303   9.004  18.305  0.00  0.00    -0.025 A 
ATOM     27  C   UNL     1      11.070   8.768  17.697  0.00  0.00    +0.005 A 
ATOM     28  C   UNL     1      13.399   9.388  17.533  0.00  0.00    +0.005 A 
ATOM     29  C   UNL     1      10.932   8.918  16.317  0.00  0.00    +0.000 A 
ATOM     30  C   UNL     1      13.262   9.538  16.153  0.00  0.00    +0.000 A 
ATOM     31  C   UNL     1      12.029   9.302  15.545  0.00  0.00    +0.000 A 
ENDBRANCH  25  26
ENDBRANCH   1  25
ENDBRANCH   5   1
ENDBRANCH  14   5
ENDBRANCH   8  14
BRANCH  10  15
ATOM     15  C   UNL     1      19.784   6.716  22.794  0.00  0.00    +0.103 C 
BRANCH  15  20
ATOM      2  O   UNL     1      21.588   7.112  24.358  0.00  0.00    -0.276 OA
ATOM      6  N   UNL     1      22.074   6.344  22.219  0.00  0.00    -0.312 N 
ATOM     20  C   UNL     1      21.228   6.756  23.239  0.00  0.00    +0.214 C 
ATOM     33  H   UNL     1      21.666   6.022  21.345  0.00  0.00    +0.149 HD
BRANCH   6  18
ATOM     18  C   UNL     1      23.508   6.284  22.361  0.00  0.00    +0.073 C 
ATOM     21  C   UNL     1      24.211   6.402  21.014  0.00  0.00    +0.022 C 
ATOM     22  C   UNL     1      23.974   4.924  22.866  0.00  0.00    +0.022 C 
ATOM     23  C   UNL     1      24.157   4.995  20.428  0.00  0.00    +0.002 C 
ATOM     24  C   UNL     1      24.047   4.043  21.620  0.00  0.00    +0.002 C 
ENDBRANCH   6  18
ENDBRANCH  15  20
ENDBRANCH  10  15
TORSDOF 9
ENDMDL
MODEL 10
REMARK VINA RESULT:      -5.7     24.147     26.795
REMARK  Name = 38027263
REMARK  12 active torsions:
REMARK  status: ('A' for Active; 'I' for Inactive)
REMARK    1  A    between atoms: S_1  and  N_5
REMARK    2  A    between atoms: S_1  and  C_25
REMARK    3  A    between atoms: N_5  and  C_14
REMARK    4  A    between atoms: N_6  and  C_18
REMARK    5  A    between atoms: C_7  and  C_11
REMARK    6  A    between atoms: C_8  and  C_14
REMARK    7  A    between atoms: C_10  and  C_15
REMARK    8  A    between atoms: C_11  and  C_16
REMARK    9  A    between atoms: C_11  and  C_17
REMARK   10  A    between atoms: C_12  and  C_19
REMARK   11  A    between atoms: C_15  and  C_20
REMARK   12  A    between atoms: C_25  and  C_26
REMARK                            x       y       z     vdW  Elec       q    Type
REMARK                         _______ _______ _______ _____ _____    ______ ____
ROOT
ATOM      7  C   UNL     1     -12.588  10.489  19.223  0.00  0.00    +0.000 C 
ATOM      8  C   UNL     1     -13.039  10.178  20.671  0.00  0.00    +0.030 C 
ATOM      9  C   UNL     1     -12.829   9.276  18.313  0.00  0.00    +0.012 C 
ATOM     10  C   UNL     1     -12.074   8.024  18.800  0.00  0.00    +0.023 C 
ATOM     12  C   UNL     1     -12.256   7.801  20.287  0.00  0.00    -0.073 C 
ATOM     13  C   UNL     1     -12.700   8.771  21.105  0.00  0.00    -0.023 C 
ATOM     19  C   UNL     1     -11.956   6.422  20.807  0.00  0.00    +0.039 C 
ENDROOT
BRANCH   7  11
ATOM     11  C   UNL     1     -13.310  11.715  18.655  0.00  0.00    -0.013 C 
ATOM     16  C   UNL     1     -12.923  11.932  17.195  0.00  0.00    +0.007 C 
ATOM     17  C   UNL     1     -14.821  11.554  18.794  0.00  0.00    +0.007 C 
ENDBRANCH   7  11
BRANCH   8  14
ATOM     14  C   UNL     1     -12.438  11.178  21.665  0.00  0.00    +0.113 C 
BRANCH  14   5
ATOM      5  N   UNL     1     -13.528  11.857  22.383  0.00  0.00    -0.194 NA
ATOM     32  H   UNL     1     -13.664  12.836  22.101  0.00  0.00    +0.148 HD
BRANCH   5   1
ATOM      1  S   UNL     1     -13.767  11.530  24.043  0.00  0.00    +0.033 S 
ATOM      3  O   UNL     1     -13.751  10.097  24.267  0.00  0.00    -0.158 OA
ATOM      4  O   UNL     1     -14.870  12.343  24.520  0.00  0.00    -0.158 OA
BRANCH   1  25
ATOM     25  C   UNL     1     -12.273  12.208  24.726  0.00  0.00    +0.220 C 
BRANCH  25  26
ATOM     26  C   UNL     1     -11.965  11.459  25.986  0.00  0.00    -0.025 A 
ATOM     27  C   UNL     1     -10.898  10.562  26.021  0.00  0.00    +0.005 A 
ATOM     28  C   UNL     1     -12.748  11.658  27.124  0.00  0.00    +0.005 A 
ATOM     29  C   UNL     1     -10.612   9.864  27.195  0.00  0.00    +0.000 A 
ATOM     30  C   UNL     1     -12.462  10.960  28.297  0.00  0.00    +0.000 A 
ATOM     31  C   UNL     1     -11.394  10.063  28.332  0.00  0.00    +0.000 A 
ENDBRANCH  25  26
ENDBRANCH   1  25
ENDBRANCH   5   1
ENDBRANCH  14   5
ENDBRANCH   8  14
BRANCH  10  15
ATOM     15  C   UNL     1     -10.588   8.097  18.433  0.00  0.00    +0.103 C 
BRANCH  15  20
ATOM      2  O   UNL     1      -9.832   9.923  17.036  0.00  0.00    -0.276 OA
ATOM      6  N   UNL     1     -10.831   8.069  16.055  0.00  0.00    -0.312 N 
ATOM     20  C   UNL     1     -10.361   8.818  17.123  0.00  0.00    +0.214 C 
ATOM     33  H   UNL     1     -11.209   7.142  16.235  0.00  0.00    +0.149 HD
BRANCH   6  18
ATOM     18  C   UNL     1     -10.749   8.512  14.685  0.00  0.00    +0.073 C 
ATOM     21  C   UNL     1     -11.736   9.637  14.397  0.00  0.00    +0.022 C 
ATOM     22  C   UNL     1     -11.183   7.425  13.709  0.00  0.00    +0.022 C 
ATOM     23  C   UNL     1     -13.063   8.928  14.144  0.00  0.00    +0.002 C 
ATOM     24  C   UNL     1     -12.707   7.522  13.662  0.00  0.00    +0.002 C 
ENDBRANCH   6  18
ENDBRANCH  15  20
ENDBRANCH  10  15
TORSDOF 9
ENDMDL
