MODEL 1
REMARK VINA RESULT:      -7.3      0.000      0.000
REMARK  Name = 51137527
REMARK  7 active torsions:
REMARK  status: ('A' for Active; 'I' for Inactive)
REMARK    1  A    between atoms: N_4  and  C_12
REMARK    2  A    between atoms: N_7  and  C_24
REMARK    3  A    between atoms: N_7  and  C_27
REMARK    4  A    between atoms: N_7  and  C_28
REMARK    5  A    between atoms: C_8  and  C_13
REMARK    6  A    between atoms: C_12  and  C_14
REMARK    7  A    between atoms: C_15  and  C_18
REMARK                            x       y       z     vdW  Elec       q    Type
REMARK                         _______ _______ _______ _____ _____    ______ ____
ROOT
ATOM      4  N   UNL     1      12.206   9.589  20.629  0.00  0.00    -0.297 NA
ATOM      8  C   UNL     1      14.159   8.896  19.530  0.00  0.00    +0.092 C 
ATOM      9  C   UNL     1      12.955   8.742  18.584  0.00  0.00    +0.029 C 
ATOM     10  C   UNL     1      13.541   9.062  20.924  0.00  0.00    +0.097 C 
ATOM     11  C   UNL     1      11.733   8.799  19.491  0.00  0.00    +0.085 C 
ENDROOT
BRANCH   8  13
ATOM      3  O   UNL     1      16.311   7.929  20.184  0.00  0.00    -0.420 OA
ATOM      5  N   UNL     1      15.116   6.641  18.799  0.00  0.00    -0.112 NA
ATOM      6  N   UNL     1      16.296   5.980  19.084  0.00  0.00    -0.107 NA
ATOM     13  C   UNL     1      15.168   7.773  19.461  0.00  0.00    +0.222 A 
ATOM     15  C   UNL     1      16.962   6.769  19.896  0.00  0.00    +0.248 A 
BRANCH  15  18
ATOM     18  C   UNL     1      18.245   6.600  20.514  0.00  0.00    +0.039 A 
ATOM     22  C   UNL     1      19.103   5.591  20.074  0.00  0.00    +0.015 A 
ATOM     23  C   UNL     1      18.635   7.444  21.553  0.00  0.00    +0.015 A 
ATOM     24  C   UNL     1      20.741   6.271  21.715  0.00  0.00    +0.029 A 
ATOM     25  C   UNL     1      20.351   5.427  20.676  0.00  0.00    +0.024 A 
ATOM     26  C   UNL     1      19.883   7.279  22.154  0.00  0.00    +0.024 A 
BRANCH  24   7
ATOM      7  N   UNL     1      22.003   6.103  22.324  0.00  0.00    -0.336 N 
ATOM     27  C   UNL     1      22.100   5.771  23.732  0.00  0.00    +0.129 C 
ATOM     28  C   UNL     1      23.218   6.268  21.551  0.00  0.00    +0.129 C 
ENDBRANCH  24   7
ENDBRANCH  15  18
ENDBRANCH   8  13
BRANCH   4  12
ATOM     12  C   UNL     1      11.311   9.506  21.772  0.00  0.00    +0.119 C 
BRANCH  12  14
ATOM      1  F   UNL     1      10.516  12.165  25.787  0.00  0.00    -0.202 F 
ATOM      2  F   UNL     1      10.742  14.483  24.353  0.00  0.00    -0.202 F 
ATOM     14  C   UNL     1      11.159  10.837  22.462  0.00  0.00    -0.030 A 
ATOM     16  C   UNL     1      10.902  10.886  23.832  0.00  0.00    +0.046 A 
ATOM     17  C   UNL     1      11.275  12.019  21.731  0.00  0.00    +0.008 A 
ATOM     19  C   UNL     1      10.762  12.118  24.471  0.00  0.00    +0.159 A 
ATOM     20  C   UNL     1      11.134  13.250  22.370  0.00  0.00    +0.041 A 
ATOM     21  C   UNL     1      10.877  13.300  23.740  0.00  0.00    +0.158 A 
ENDBRANCH  12  14
ENDBRANCH   4  12
TORSDOF 5
ENDMDL
MODEL 2
REMARK VINA RESULT:      -7.3      5.506     11.335
REMARK  Name = 51137527
REMARK  7 active torsions:
REMARK  status: ('A' for Active; 'I' for Inactive)
REMARK    1  A    between atoms: N_4  and  C_12
REMARK    2  A    between atoms: N_7  and  C_24
REMARK    3  A    between atoms: N_7  and  C_27
REMARK    4  A    between atoms: N_7  and  C_28
REMARK    5  A    between atoms: C_8  and  C_13
REMARK    6  A    between atoms: C_12  and  C_14
REMARK    7  A    between atoms: C_15  and  C_18
REMARK                            x       y       z     vdW  Elec       q    Type
REMARK                         _______ _______ _______ _____ _____    ______ ____
ROOT
ATOM      4  N   UNL     1      21.512   5.078  21.524  0.00  0.00    -0.297 NA
ATOM      8  C   UNL     1      19.812   6.299  20.466  0.00  0.00    +0.092 C 
ATOM      9  C   UNL     1      20.002   6.819  21.902  0.00  0.00    +0.029 C 
ATOM     10  C   UNL     1      20.530   4.944  20.445  0.00  0.00    +0.097 C 
ATOM     11  C   UNL     1      20.785   5.726  22.616  0.00  0.00    +0.085 C 
ENDROOT
BRANCH   8  13
ATOM      3  O   UNL     1      17.448   6.864  20.760  0.00  0.00    -0.420 OA
ATOM      5  N   UNL     1      17.865   5.590  18.969  0.00  0.00    -0.112 NA
ATOM      6  N   UNL     1      16.504   5.832  19.014  0.00  0.00    -0.107 NA
ATOM     13  C   UNL     1      18.375   6.212  20.007  0.00  0.00    +0.222 A 
ATOM     15  C   UNL     1      16.307   6.579  20.076  0.00  0.00    +0.248 A 
BRANCH  15  18
ATOM     18  C   UNL     1      15.097   7.130  20.614  0.00  0.00    +0.039 A 
ATOM     22  C   UNL     1      15.159   8.084  21.631  0.00  0.00    +0.015 A 
ATOM     23  C   UNL     1      13.861   6.714  20.121  0.00  0.00    +0.015 A 
ATOM     24  C   UNL     1      12.745   8.205  21.661  0.00  0.00    +0.029 A 
ATOM     25  C   UNL     1      13.982   8.621  22.154  0.00  0.00    +0.024 A 
ATOM     26  C   UNL     1      12.685   7.251  20.644  0.00  0.00    +0.024 A 
BRANCH  24   7
ATOM      7  N   UNL     1      11.556   8.747  22.192  0.00  0.00    -0.336 N 
ATOM     27  C   UNL     1      10.388   7.910  22.379  0.00  0.00    +0.129 C 
ATOM     28  C   UNL     1      11.485  10.150  22.549  0.00  0.00    +0.129 C 
ENDBRANCH  24   7
ENDBRANCH  15  18
ENDBRANCH   8  13
BRANCH   4  12
ATOM     12  C   UNL     1      22.082   3.799  21.919  0.00  0.00    +0.119 C 
BRANCH  12  14
ATOM      1  F   UNL     1      25.789   5.275  19.107  0.00  0.00    -0.202 F 
ATOM      2  F   UNL     1      27.101   2.911  19.515  0.00  0.00    -0.202 F 
ATOM     14  C   UNL     1      23.423   3.561  21.276  0.00  0.00    -0.030 A 
ATOM     16  C   UNL     1      23.996   4.548  20.473  0.00  0.00    +0.046 A 
ATOM     17  C   UNL     1      24.093   2.356  21.485  0.00  0.00    +0.008 A 
ATOM     19  C   UNL     1      25.239   4.328  19.879  0.00  0.00    +0.159 A 
ATOM     20  C   UNL     1      25.334   2.136  20.889  0.00  0.00    +0.041 A 
ATOM     21  C   UNL     1      25.908   3.121  20.086  0.00  0.00    +0.158 A 
ENDBRANCH  12  14
ENDBRANCH   4  12
TORSDOF 5
ENDMDL
MODEL 3
REMARK VINA RESULT:      -7.2     27.220     31.164
REMARK  Name = 51137527
REMARK  7 active torsions:
REMARK  status: ('A' for Active; 'I' for Inactive)
REMARK    1  A    between atoms: N_4  and  C_12
REMARK    2  A    between atoms: N_7  and  C_24
REMARK    3  A    between atoms: N_7  and  C_27
REMARK    4  A    between atoms: N_7  and  C_28
REMARK    5  A    between atoms: C_8  and  C_13
REMARK    6  A    between atoms: C_12  and  C_14
REMARK    7  A    between atoms: C_15  and  C_18
REMARK                            x       y       z     vdW  Elec       q    Type
REMARK                         _______ _______ _______ _____ _____    ______ ____
ROOT
ATOM      4  N   UNL     1     -16.703   3.251  26.568  0.00  0.00    -0.297 NA
ATOM      8  C   UNL     1     -16.222   4.799  24.872  0.00  0.00    +0.092 C 
ATOM      9  C   UNL     1     -17.728   4.835  25.190  0.00  0.00    +0.029 C 
ATOM     10  C   UNL     1     -15.722   3.495  25.508  0.00  0.00    +0.097 C 
ATOM     11  C   UNL     1     -17.999   3.547  25.956  0.00  0.00    +0.085 C 
ENDROOT
BRANCH   8  13
ATOM      3  O   UNL     1     -14.901   5.790  23.066  0.00  0.00    -0.420 OA
ATOM      5  N   UNL     1     -16.391   4.271  22.377  0.00  0.00    -0.112 NA
ATOM      6  N   UNL     1     -15.720   4.746  21.265  0.00  0.00    -0.107 NA
ATOM     13  C   UNL     1     -15.880   4.908  23.404  0.00  0.00    +0.222 A 
ATOM     15  C   UNL     1     -14.861   5.631  21.715  0.00  0.00    +0.248 A 
BRANCH  15  18
ATOM     18  C   UNL     1     -13.903   6.438  21.015  0.00  0.00    +0.039 A 
ATOM     22  C   UNL     1     -14.336   7.387  20.089  0.00  0.00    +0.015 A 
ATOM     23  C   UNL     1     -12.541   6.275  21.263  0.00  0.00    +0.015 A 
ATOM     24  C   UNL     1     -12.042   8.009  19.657  0.00  0.00    +0.029 A 
ATOM     25  C   UNL     1     -13.404   8.172  19.409  0.00  0.00    +0.024 A 
ATOM     26  C   UNL     1     -11.610   7.060  20.583  0.00  0.00    +0.024 A 
BRANCH  24   7
ATOM      7  N   UNL     1     -11.100   8.803  18.967  0.00  0.00    -0.336 N 
ATOM     27  C   UNL     1     -10.616   8.398  17.662  0.00  0.00    +0.129 C 
ATOM     28  C   UNL     1     -10.600  10.028  19.559  0.00  0.00    +0.129 C 
ENDBRANCH  24   7
ENDBRANCH  15  18
ENDBRANCH   8  13
BRANCH   4  12
ATOM     12  C   UNL     1     -16.632   1.894  27.088  0.00  0.00    +0.119 C 
BRANCH  12  14
ATOM      1  F   UNL     1     -15.398  -0.522  31.145  0.00  0.00    -0.202 F 
ATOM      2  F   UNL     1     -14.255   1.729  32.195  0.00  0.00    -0.202 F 
ATOM     14  C   UNL     1     -15.997   1.851  28.453  0.00  0.00    -0.030 A 
ATOM     16  C   UNL     1     -15.992   0.661  29.182  0.00  0.00    +0.046 A 
ATOM     17  C   UNL     1     -15.413   2.999  28.988  0.00  0.00    +0.008 A 
ATOM     19  C   UNL     1     -15.402   0.620  30.445  0.00  0.00    +0.159 A 
ATOM     20  C   UNL     1     -14.825   2.957  30.252  0.00  0.00    +0.041 A 
ATOM     21  C   UNL     1     -14.820   1.769  30.981  0.00  0.00    +0.158 A 
ENDBRANCH  12  14
ENDBRANCH   4  12
TORSDOF 5
ENDMDL
MODEL 4
REMARK VINA RESULT:      -7.2     27.815     31.492
REMARK  Name = 51137527
REMARK  7 active torsions:
REMARK  status: ('A' for Active; 'I' for Inactive)
REMARK    1  A    between atoms: N_4  and  C_12
REMARK    2  A    between atoms: N_7  and  C_24
REMARK    3  A    between atoms: N_7  and  C_27
REMARK    4  A    between atoms: N_7  and  C_28
REMARK    5  A    between atoms: C_8  and  C_13
REMARK    6  A    between atoms: C_12  and  C_14
REMARK    7  A    between atoms: C_15  and  C_18
REMARK                            x       y       z     vdW  Elec       q    Type
REMARK                         _______ _______ _______ _____ _____    ______ ____
ROOT
ATOM      4  N   UNL     1     -16.409   1.996  28.507  0.00  0.00    -0.297 NA
ATOM      8  C   UNL     1     -16.967   3.033  26.478  0.00  0.00    +0.092 C 
ATOM      9  C   UNL     1     -17.897   1.829  26.713  0.00  0.00    +0.029 C 
ATOM     10  C   UNL     1     -15.807   2.827  27.461  0.00  0.00    +0.097 C 
ATOM     11  C   UNL     1     -17.203   1.000  27.786  0.00  0.00    +0.085 C 
ENDROOT
BRANCH   8  13
ATOM      3  O   UNL     1     -15.787   4.332  24.772  0.00  0.00    -0.420 OA
ATOM      5  N   UNL     1     -16.692   2.434  24.009  0.00  0.00    -0.112 NA
ATOM      6  N   UNL     1     -16.063   3.063  22.950  0.00  0.00    -0.107 NA
ATOM     13  C   UNL     1     -16.506   3.210  25.050  0.00  0.00    +0.222 A 
ATOM     15  C   UNL     1     -15.549   4.166  23.442  0.00  0.00    +0.248 A 
BRANCH  15  18
ATOM     18  C   UNL     1     -14.789   5.203  22.806  0.00  0.00    +0.039 A 
ATOM     22  C   UNL     1     -15.308   6.496  22.721  0.00  0.00    +0.015 A 
ATOM     23  C   UNL     1     -13.532   4.920  22.274  0.00  0.00    +0.015 A 
ATOM     24  C   UNL     1     -13.311   7.221  21.571  0.00  0.00    +0.029 A 
ATOM     25  C   UNL     1     -14.568   7.504  22.103  0.00  0.00    +0.024 A 
ATOM     26  C   UNL     1     -12.793   5.929  21.656  0.00  0.00    +0.024 A 
BRANCH  24   7
ATOM      7  N   UNL     1     -12.564   8.241  20.945  0.00  0.00    -0.336 N 
ATOM     27  C   UNL     1     -11.527   7.909  19.988  0.00  0.00    +0.129 C 
ATOM     28  C   UNL     1     -12.820   9.634  21.256  0.00  0.00    +0.129 C 
ENDBRANCH  24   7
ENDBRANCH  15  18
ENDBRANCH   8  13
BRANCH   4  12
ATOM     12  C   UNL     1     -15.413   1.388  29.376  0.00  0.00    +0.119 C 
BRANCH  12  14
ATOM      1  F   UNL     1     -11.858   3.762  31.730  0.00  0.00    -0.202 F 
ATOM      2  F   UNL     1     -13.682   4.945  33.389  0.00  0.00    -0.202 F 
ATOM     14  C   UNL     1     -14.951   2.339  30.448  0.00  0.00    -0.030 A 
ATOM     16  C   UNL     1     -13.591   2.615  30.595  0.00  0.00    +0.046 A 
ATOM     17  C   UNL     1     -15.881   2.942  31.294  0.00  0.00    +0.008 A 
ATOM     19  C   UNL     1     -13.163   3.496  31.589  0.00  0.00    +0.159 A 
ATOM     20  C   UNL     1     -15.452   3.822  32.287  0.00  0.00    +0.041 A 
ATOM     21  C   UNL     1     -14.094   4.099  32.435  0.00  0.00    +0.158 A 
ENDBRANCH  12  14
ENDBRANCH   4  12
TORSDOF 5
ENDMDL
MODEL 5
REMARK VINA RESULT:      -7.1     27.476     30.640
REMARK  Name = 51137527
REMARK  7 active torsions:
REMARK  status: ('A' for Active; 'I' for Inactive)
REMARK    1  A    between atoms: N_4  and  C_12
REMARK    2  A    between atoms: N_7  and  C_24
REMARK    3  A    between atoms: N_7  and  C_27
REMARK    4  A    between atoms: N_7  and  C_28
REMARK    5  A    between atoms: C_8  and  C_13
REMARK    6  A    between atoms: C_12  and  C_14
REMARK    7  A    between atoms: C_15  and  C_18
REMARK                            x       y       z     vdW  Elec       q    Type
REMARK                         _______ _______ _______ _____ _____    ______ ____
ROOT
ATOM      4  N   UNL     1      -2.305 -11.086  13.876  0.00  0.00    -0.297 NA
ATOM      8  C   UNL     1      -3.247 -10.367  15.900  0.00  0.00    +0.092 C 
ATOM      9  C   UNL     1      -1.777 -10.760  16.128  0.00  0.00    +0.029 C 
ATOM     10  C   UNL     1      -3.607 -10.977  14.540  0.00  0.00    +0.097 C 
ATOM     11  C   UNL     1      -1.398 -11.589  14.908  0.00  0.00    +0.085 C 
ENDROOT
BRANCH   8  13
ATOM      3  O   UNL     1      -5.476 -10.334  16.913  0.00  0.00    -0.420 OA
ATOM      5  N   UNL     1      -3.971 -11.527  18.060  0.00  0.00    -0.112 NA
ATOM      6  N   UNL     1      -5.174 -11.593  18.737  0.00  0.00    -0.107 NA
ATOM     13  C   UNL     1      -4.194 -10.783  17.002  0.00  0.00    +0.222 A 
ATOM     15  C   UNL     1      -6.023 -10.882  18.032  0.00  0.00    +0.248 A 
BRANCH  15  18
ATOM     18  C   UNL     1      -7.412 -10.601  18.254  0.00  0.00    +0.039 A 
ATOM     22  C   UNL     1      -8.076  -9.683  17.439  0.00  0.00    +0.015 A 
ATOM     23  C   UNL     1      -8.098 -11.245  19.283  0.00  0.00    +0.015 A 
ATOM     24  C   UNL     1     -10.113 -10.054  18.684  0.00  0.00    +0.029 A 
ATOM     25  C   UNL     1      -9.427  -9.410  17.655  0.00  0.00    +0.024 A 
ATOM     26  C   UNL     1      -9.449 -10.972  19.498  0.00  0.00    +0.024 A 
BRANCH  24   7
ATOM      7  N   UNL     1     -11.479  -9.776  18.903  0.00  0.00    -0.336 N 
ATOM     27  C   UNL     1     -12.069  -9.982  20.211  0.00  0.00    +0.129 C 
ATOM     28  C   UNL     1     -12.311  -9.288  17.821  0.00  0.00    +0.129 C 
ENDBRANCH  24   7
ENDBRANCH  15  18
ENDBRANCH   8  13
BRANCH   4  12
ATOM     12  C   UNL     1      -2.349 -11.950  12.706  0.00  0.00    +0.119 C 
BRANCH  12  14
ATOM      1  F   UNL     1      -5.137 -11.931   8.701  0.00  0.00    -0.202 F 
ATOM      2  F   UNL     1      -4.522  -9.308   8.228  0.00  0.00    -0.202 F 
ATOM     14  C   UNL     1      -2.929 -11.243  11.510  0.00  0.00    -0.030 A 
ATOM     16  C   UNL     1      -3.781 -11.928  10.642  0.00  0.00    +0.046 A 
ATOM     17  C   UNL     1      -2.616  -9.906  11.269  0.00  0.00    +0.008 A 
ATOM     19  C   UNL     1      -4.319 -11.273   9.534  0.00  0.00    +0.159 A 
ATOM     20  C   UNL     1      -3.153  -9.253  10.160  0.00  0.00    +0.041 A 
ATOM     21  C   UNL     1      -4.005  -9.936   9.292  0.00  0.00    +0.158 A 
ENDBRANCH  12  14
ENDBRANCH   4  12
TORSDOF 5
ENDMDL
MODEL 6
REMARK VINA RESULT:      -7.1     27.787     31.241
REMARK  Name = 51137527
REMARK  7 active torsions:
REMARK  status: ('A' for Active; 'I' for Inactive)
REMARK    1  A    between atoms: N_4  and  C_12
REMARK    2  A    between atoms: N_7  and  C_24
REMARK    3  A    between atoms: N_7  and  C_27
REMARK    4  A    between atoms: N_7  and  C_28
REMARK    5  A    between atoms: C_8  and  C_13
REMARK    6  A    between atoms: C_12  and  C_14
REMARK    7  A    between atoms: C_15  and  C_18
REMARK                            x       y       z     vdW  Elec       q    Type
REMARK                         _______ _______ _______ _____ _____    ______ ____
ROOT
ATOM      4  N   UNL     1      -4.505 -11.947  17.108  0.00  0.00    -0.297 NA
ATOM      8  C   UNL     1      -6.032 -10.734  18.411  0.00  0.00    +0.092 C 
ATOM      9  C   UNL     1      -5.366 -11.819  19.275  0.00  0.00    +0.029 C 
ATOM     10  C   UNL     1      -5.721 -11.143  16.965  0.00  0.00    +0.097 C 
ATOM     11  C   UNL     1      -4.746 -12.790  18.280  0.00  0.00    +0.085 C 
ENDROOT
BRANCH   8  13
ATOM      3  O   UNL     1      -8.175  -9.717  17.807  0.00  0.00    -0.420 OA
ATOM      5  N   UNL     1      -8.272 -11.048  19.602  0.00  0.00    -0.112 NA
ATOM      6  N   UNL     1      -9.540 -10.544  19.375  0.00  0.00    -0.107 NA
ATOM     13  C   UNL     1      -7.509 -10.538  18.663  0.00  0.00    +0.222 A 
ATOM     15  C   UNL     1      -9.436  -9.772  18.318  0.00  0.00    +0.248 A 
BRANCH  15  18
ATOM     18  C   UNL     1     -10.427  -8.995  17.632  0.00  0.00    +0.039 A 
ATOM     22  C   UNL     1     -11.726  -9.484  17.498  0.00  0.00    +0.015 A 
ATOM     23  C   UNL     1     -10.091  -7.750  17.101  0.00  0.00    +0.015 A 
ATOM     24  C   UNL     1     -12.354  -7.482  16.299  0.00  0.00    +0.029 A 
ATOM     25  C   UNL     1     -12.690  -8.727  16.831  0.00  0.00    +0.024 A 
ATOM     26  C   UNL     1     -11.054  -6.994  16.434  0.00  0.00    +0.024 A 
BRANCH  24   7
ATOM      7  N   UNL     1     -13.329  -6.718  15.623  0.00  0.00    -0.336 N 
ATOM     27  C   UNL     1     -14.739  -6.944  15.872  0.00  0.00    +0.129 C 
ATOM     28  C   UNL     1     -12.933  -5.704  14.666  0.00  0.00    +0.129 C 
ENDBRANCH  24   7
ENDBRANCH  15  18
ENDBRANCH   8  13
BRANCH   4  12
ATOM     12  C   UNL     1      -4.211 -12.726  15.915  0.00  0.00    +0.119 C 
BRANCH  12  14
ATOM      1  F   UNL     1      -0.868  -9.351  14.793  0.00  0.00    -0.202 F 
ATOM      2  F   UNL     1      -1.310  -9.734  12.122  0.00  0.00    -0.202 F 
ATOM     14  C   UNL     1      -3.436 -11.927  14.901  0.00  0.00    -0.030 A 
ATOM     16  C   UNL     1      -2.492 -10.990  15.325  0.00  0.00    +0.046 A 
ATOM     17  C   UNL     1      -3.660 -12.122  13.539  0.00  0.00    +0.008 A 
ATOM     19  C   UNL     1      -1.774 -10.250  14.386  0.00  0.00    +0.159 A 
ATOM     20  C   UNL     1      -2.943 -11.382  12.600  0.00  0.00    +0.041 A 
ATOM     21  C   UNL     1      -2.000 -10.445  13.023  0.00  0.00    +0.158 A 
ENDBRANCH  12  14
ENDBRANCH   4  12
TORSDOF 5
ENDMDL
MODEL 7
REMARK VINA RESULT:      -7.0     28.510     31.633
REMARK  Name = 51137527
REMARK  7 active torsions:
REMARK  status: ('A' for Active; 'I' for Inactive)
REMARK    1  A    between atoms: N_4  and  C_12
REMARK    2  A    between atoms: N_7  and  C_24
REMARK    3  A    between atoms: N_7  and  C_27
REMARK    4  A    between atoms: N_7  and  C_28
REMARK    5  A    between atoms: C_8  and  C_13
REMARK    6  A    between atoms: C_12  and  C_14
REMARK    7  A    between atoms: C_15  and  C_18
REMARK                            x       y       z     vdW  Elec       q    Type
REMARK                         _______ _______ _______ _____ _____    ______ ____
ROOT
ATOM      4  N   UNL     1     -15.960   5.344  22.832  0.00  0.00    -0.297 NA
ATOM      8  C   UNL     1     -16.309   3.166  23.628  0.00  0.00    +0.092 C 
ATOM      9  C   UNL     1     -17.614   3.704  23.016  0.00  0.00    +0.029 C 
ATOM     10  C   UNL     1     -15.430   4.407  23.826  0.00  0.00    +0.097 C 
ATOM     11  C   UNL     1     -17.414   5.212  22.928  0.00  0.00    +0.085 C 
ENDROOT
BRANCH   8  13
ATOM      3  O   UNL     1     -15.988   2.902  26.041  0.00  0.00    -0.420 OA
ATOM      5  N   UNL     1     -17.060   1.194  25.072  0.00  0.00    -0.112 NA
ATOM      6  N   UNL     1     -16.948   0.917  26.422  0.00  0.00    -0.107 NA
ATOM     13  C   UNL     1     -16.487   2.362  24.896  0.00  0.00    +0.222 A 
ATOM     15  C   UNL     1     -16.315   1.940  26.947  0.00  0.00    +0.248 A 
BRANCH  15  18
ATOM     18  C   UNL     1     -15.924   2.197  28.303  0.00  0.00    +0.039 A 
ATOM     22  C   UNL     1     -15.620   3.497  28.706  0.00  0.00    +0.015 A 
ATOM     23  C   UNL     1     -15.850   1.147  29.218  0.00  0.00    +0.015 A 
ATOM     24  C   UNL     1     -15.166   2.696  30.941  0.00  0.00    +0.029 A 
ATOM     25  C   UNL     1     -15.240   3.747  30.026  0.00  0.00    +0.024 A 
ATOM     26  C   UNL     1     -15.470   1.397  30.537  0.00  0.00    +0.024 A 
BRANCH  24   7
ATOM      7  N   UNL     1     -14.780   2.949  32.274  0.00  0.00    -0.336 N 
ATOM     27  C   UNL     1     -14.941   1.928  33.290  0.00  0.00    +0.129 C 
ATOM     28  C   UNL     1     -14.226   4.236  32.646  0.00  0.00    +0.129 C 
ENDBRANCH  24   7
ENDBRANCH  15  18
ENDBRANCH   8  13
BRANCH   4  12
ATOM     12  C   UNL     1     -15.511   6.709  23.060  0.00  0.00    +0.119 C 
BRANCH  12  14
ATOM      1  F   UNL     1     -12.442   9.915  21.029  0.00  0.00    -0.202 F 
ATOM      2  F   UNL     1     -10.827   7.888  20.157  0.00  0.00    -0.202 F 
ATOM     14  C   UNL     1     -14.259   7.023  22.284  0.00  0.00    -0.030 A 
ATOM     16  C   UNL     1     -13.924   8.350  22.010  0.00  0.00    +0.046 A 
ATOM     17  C   UNL     1     -13.435   5.990  21.839  0.00  0.00    +0.008 A 
ATOM     19  C   UNL     1     -12.764   8.641  21.292  0.00  0.00    +0.159 A 
ATOM     20  C   UNL     1     -12.277   6.282  21.121  0.00  0.00    +0.041 A 
ATOM     21  C   UNL     1     -11.941   7.607  20.846  0.00  0.00    +0.158 A 
ENDBRANCH  12  14
ENDBRANCH   4  12
TORSDOF 5
ENDMDL
MODEL 8
REMARK VINA RESULT:      -6.8     28.221     31.132
REMARK  Name = 51137527
REMARK  7 active torsions:
REMARK  status: ('A' for Active; 'I' for Inactive)
REMARK    1  A    between atoms: N_4  and  C_12
REMARK    2  A    between atoms: N_7  and  C_24
REMARK    3  A    between atoms: N_7  and  C_27
REMARK    4  A    between atoms: N_7  and  C_28
REMARK    5  A    between atoms: C_8  and  C_13
REMARK    6  A    between atoms: C_12  and  C_14
REMARK    7  A    between atoms: C_15  and  C_18
REMARK                            x       y       z     vdW  Elec       q    Type
REMARK                         _______ _______ _______ _____ _____    ______ ____
ROOT
ATOM      4  N   UNL     1      -4.024 -10.983  14.601  0.00  0.00    -0.297 NA
ATOM      8  C   UNL     1      -4.671 -10.198  16.714  0.00  0.00    +0.092 C 
ATOM      9  C   UNL     1      -3.362 -10.997  16.841  0.00  0.00    +0.029 C 
ATOM     10  C   UNL     1      -5.225 -10.575  15.334  0.00  0.00    +0.097 C 
ATOM     11  C   UNL     1      -3.262 -11.797  15.549  0.00  0.00    +0.085 C 
ENDROOT
BRANCH   8  13
ATOM      3  O   UNL     1      -6.970 -10.154  17.555  0.00  0.00    -0.420 OA
ATOM      5  N   UNL     1      -5.464 -10.854  19.054  0.00  0.00    -0.112 NA
ATOM      6  N   UNL     1      -6.709 -10.878  19.656  0.00  0.00    -0.107 NA
ATOM     13  C   UNL     1      -5.665 -10.425  17.830  0.00  0.00    +0.222 A 
ATOM     15  C   UNL     1      -7.557 -10.461  18.745  0.00  0.00    +0.248 A 
BRANCH  15  18
ATOM     18  C   UNL     1      -8.979 -10.284  18.807  0.00  0.00    +0.039 A 
ATOM     22  C   UNL     1      -9.627  -9.508  17.846  0.00  0.00    +0.015 A 
ATOM     23  C   UNL     1      -9.712 -10.890  19.827  0.00  0.00    +0.015 A 
ATOM     24  C   UNL     1     -11.744  -9.942  18.927  0.00  0.00    +0.029 A 
ATOM     25  C   UNL     1     -11.011  -9.337  17.907  0.00  0.00    +0.024 A 
ATOM     26  C   UNL     1     -11.095 -10.718  19.887  0.00  0.00    +0.024 A 
BRANCH  24   7
ATOM      7  N   UNL     1     -13.143  -9.767  18.989  0.00  0.00    -0.336 N 
ATOM     27  C   UNL     1     -13.902  -9.499  17.783  0.00  0.00    +0.129 C 
ATOM     28  C   UNL     1     -13.837  -9.844  20.259  0.00  0.00    +0.129 C 
ENDBRANCH  24   7
ENDBRANCH  15  18
ENDBRANCH   8  13
BRANCH   4  12
ATOM     12  C   UNL     1      -4.338 -11.705  13.378  0.00  0.00    +0.119 C 
BRANCH  12  14
ATOM      1  F   UNL     1      -1.558  -9.010  10.406  0.00  0.00    -0.202 F 
ATOM      2  F   UNL     1      -3.711  -8.463   8.812  0.00  0.00    -0.202 F 
ATOM     14  C   UNL     1      -4.171 -10.838  12.157  0.00  0.00    -0.030 A 
ATOM     16  C   UNL     1      -2.917 -10.315  11.841  0.00  0.00    +0.046 A 
ATOM     17  C   UNL     1      -5.269 -10.559  11.344  0.00  0.00    +0.008 A 
ATOM     19  C   UNL     1      -2.762  -9.513  10.710  0.00  0.00    +0.159 A 
ATOM     20  C   UNL     1      -5.114  -9.757  10.215  0.00  0.00    +0.041 A 
ATOM     21  C   UNL     1      -3.861  -9.233   9.897  0.00  0.00    +0.158 A 
ENDBRANCH  12  14
ENDBRANCH   4  12
TORSDOF 5
ENDMDL
MODEL 9
REMARK VINA RESULT:      -6.8     28.369     30.912
REMARK  Name = 51137527
REMARK  7 active torsions:
REMARK  status: ('A' for Active; 'I' for Inactive)
REMARK    1  A    between atoms: N_4  and  C_12
REMARK    2  A    between atoms: N_7  and  C_24
REMARK    3  A    between atoms: N_7  and  C_27
REMARK    4  A    between atoms: N_7  and  C_28
REMARK    5  A    between atoms: C_8  and  C_13
REMARK    6  A    between atoms: C_12  and  C_14
REMARK    7  A    between atoms: C_15  and  C_18
REMARK                            x       y       z     vdW  Elec       q    Type
REMARK                         _______ _______ _______ _____ _____    ______ ____
ROOT
ATOM      4  N   UNL     1      -3.749 -11.560  14.363  0.00  0.00    -0.297 NA
ATOM      8  C   UNL     1      -4.716 -10.372  16.139  0.00  0.00    +0.092 C 
ATOM      9  C   UNL     1      -3.982 -11.608  16.687  0.00  0.00    +0.029 C 
ATOM     10  C   UNL     1      -4.852 -10.635  14.634  0.00  0.00    +0.097 C 
ATOM     11  C   UNL     1      -3.771 -12.509  15.476  0.00  0.00    +0.085 C 
ENDROOT
BRANCH   8  13
ATOM      3  O   UNL     1      -6.959  -9.394  16.068  0.00  0.00    -0.420 OA
ATOM      5  N   UNL     1      -6.449 -10.364  18.018  0.00  0.00    -0.112 NA
ATOM      6  N   UNL     1      -7.732  -9.858  18.115  0.00  0.00    -0.107 NA
ATOM     13  C   UNL     1      -6.037 -10.070  16.807  0.00  0.00    +0.222 A 
ATOM     15  C   UNL     1      -7.987  -9.300  16.955  0.00  0.00    +0.248 A 
BRANCH  15  18
ATOM     18  C   UNL     1      -9.161  -8.622  16.486  0.00  0.00    +0.039 A 
ATOM     22  C   UNL     1      -9.860  -7.768  17.339  0.00  0.00    +0.015 A 
ATOM     23  C   UNL     1      -9.601  -8.815  15.177  0.00  0.00    +0.015 A 
ATOM     24  C   UNL     1     -11.442  -7.301  15.573  0.00  0.00    +0.029 A 
ATOM     25  C   UNL     1     -11.002  -7.108  16.882  0.00  0.00    +0.024 A 
ATOM     26  C   UNL     1     -10.742  -8.155  14.720  0.00  0.00    +0.024 A 
BRANCH  24   7
ATOM      7  N   UNL     1     -12.597  -6.634  15.113  0.00  0.00    -0.336 N 
ATOM     27  C   UNL     1     -13.909  -7.029  15.586  0.00  0.00    +0.129 C 
ATOM     28  C   UNL     1     -12.487  -5.552  14.155  0.00  0.00    +0.129 C 
ENDBRANCH  24   7
ENDBRANCH  15  18
ENDBRANCH   8  13
BRANCH   4  12
ATOM     12  C   UNL     1      -3.879 -12.217  13.071  0.00  0.00    +0.119 C 
BRANCH  12  14
ATOM      1  F   UNL     1      -1.516  -8.802  10.506  0.00  0.00    -0.202 F 
ATOM      2  F   UNL     1      -3.647  -8.534   8.813  0.00  0.00    -0.202 F 
ATOM     14  C   UNL     1      -3.817 -11.232  11.933  0.00  0.00    -0.030 A 
ATOM     16  C   UNL     1      -2.672 -10.458  11.743  0.00  0.00    +0.046 A 
ATOM     17  C   UNL     1      -4.904 -11.095  11.070  0.00  0.00    +0.008 A 
ATOM     19  C   UNL     1      -2.615  -9.546  10.689  0.00  0.00    +0.159 A 
ATOM     20  C   UNL     1      -4.846 -10.184  10.017  0.00  0.00    +0.041 A 
ATOM     21  C   UNL     1      -3.703  -9.408   9.826  0.00  0.00    +0.158 A 
ENDBRANCH  12  14
ENDBRANCH   4  12
TORSDOF 5
ENDMDL
MODEL 10
REMARK VINA RESULT:      -6.8     27.960     31.399
REMARK  Name = 51137527
REMARK  7 active torsions:
REMARK  status: ('A' for Active; 'I' for Inactive)
REMARK    1  A    between atoms: N_4  and  C_12
REMARK    2  A    between atoms: N_7  and  C_24
REMARK    3  A    between atoms: N_7  and  C_27
REMARK    4  A    between atoms: N_7  and  C_28
REMARK    5  A    between atoms: C_8  and  C_13
REMARK    6  A    between atoms: C_12  and  C_14
REMARK    7  A    between atoms: C_15  and  C_18
REMARK                            x       y       z     vdW  Elec       q    Type
REMARK                         _______ _______ _______ _____ _____    ______ ____
ROOT
ATOM      4  N   UNL     1     -15.056   6.159  22.413  0.00  0.00    -0.297 NA
ATOM      8  C   UNL     1     -15.632   4.004  23.136  0.00  0.00    +0.092 C 
ATOM      9  C   UNL     1     -16.807   4.615  22.353  0.00  0.00    +0.029 C 
ATOM     10  C   UNL     1     -14.722   5.194  23.463  0.00  0.00    +0.097 C 
ATOM     11  C   UNL     1     -16.514   6.109  22.305  0.00  0.00    +0.085 C 
ENDROOT
BRANCH   8  13
ATOM      3  O   UNL     1     -15.780   3.783  25.569  0.00  0.00    -0.420 OA
ATOM      5  N   UNL     1     -16.589   2.027  24.444  0.00  0.00    -0.112 NA
ATOM      6  N   UNL     1     -16.733   1.771  25.795  0.00  0.00    -0.107 NA
ATOM     13  C   UNL     1     -16.028   3.211  24.360  0.00  0.00    +0.222 A 
ATOM     15  C   UNL     1     -16.248   2.823  26.414  0.00  0.00    +0.248 A 
BRANCH  15  18
ATOM     18  C   UNL     1     -16.137   3.110  27.814  0.00  0.00    +0.039 A 
ATOM     22  C   UNL     1     -16.457   4.382  28.292  0.00  0.00    +0.015 A 
ATOM     23  C   UNL     1     -15.712   2.119  28.698  0.00  0.00    +0.015 A 
ATOM     24  C   UNL     1     -15.925   3.670  30.539  0.00  0.00    +0.029 A 
ATOM     25  C   UNL     1     -16.350   4.661  29.655  0.00  0.00    +0.024 A 
ATOM     26  C   UNL     1     -15.605   2.399  30.060  0.00  0.00    +0.024 A 
BRANCH  24   7
ATOM      7  N   UNL     1     -15.815   3.954  31.916  0.00  0.00    -0.336 N 
ATOM     27  C   UNL     1     -15.324   2.947  32.836  0.00  0.00    +0.129 C 
ATOM     28  C   UNL     1     -16.200   5.253  32.431  0.00  0.00    +0.129 C 
ENDBRANCH  24   7
ENDBRANCH  15  18
ENDBRANCH   8  13
BRANCH   4  12
ATOM     12  C   UNL     1     -14.567   7.497  22.712  0.00  0.00    +0.119 C 
BRANCH  12  14
ATOM      1  F   UNL     1     -11.212   6.439  19.329  0.00  0.00    -0.202 F 
ATOM      2  F   UNL     1     -10.465   9.065  19.182  0.00  0.00    -0.202 F 
ATOM     14  C   UNL     1     -13.471   7.916  21.769  0.00  0.00    -0.030 A 
ATOM     16  C   UNL     1     -12.837   6.964  20.970  0.00  0.00    +0.046 A 
ATOM     17  C   UNL     1     -13.090   9.256  21.693  0.00  0.00    +0.008 A 
ATOM     19  C   UNL     1     -11.821   7.353  20.096  0.00  0.00    +0.159 A 
ATOM     20  C   UNL     1     -12.074   9.644  20.820  0.00  0.00    +0.041 A 
ATOM     21  C   UNL     1     -11.439   8.693  20.022  0.00  0.00    +0.158 A 
ENDBRANCH  12  14
ENDBRANCH   4  12
TORSDOF 5
ENDMDL
