MODEL 1
REMARK VINA RESULT:      -8.4      0.000      0.000
REMARK  Name = 45783527
REMARK  6 active torsions:
REMARK  status: ('A' for Active; 'I' for Inactive)
REMARK    1  A    between atoms: S_1  and  C_23
REMARK    2  A    between atoms: S_1  and  C_33
REMARK    3  A    between atoms: N_6  and  C_15
REMARK    4  A    between atoms: C_11  and  C_16
REMARK    5  A    between atoms: C_15  and  C_17
REMARK    6  A    between atoms: C_20  and  C_24
REMARK                            x       y       z     vdW  Elec       q    Type
REMARK                         _______ _______ _______ _____ _____    ______ ____
ROOT
ATOM      2  O   UNL     1      15.014   8.735  19.872  0.00  0.00    -0.336 OA
ATOM      7  N   UNL     1      15.913   6.854  19.051  0.00  0.00    -0.190 NA
ATOM      8  N   UNL     1      16.219   8.546  20.559  0.00  0.00    -0.056 NA
ATOM     16  C   UNL     1      14.909   7.694  19.004  0.00  0.00    +0.245 A 
ATOM     20  C   UNL     1      16.690   7.418  20.019  0.00  0.00    +0.204 A 
ENDROOT
BRANCH  20  24
ATOM      3  O   UNL     1      24.040   4.322  22.538  0.00  0.00    -0.377 OA
ATOM      9  N   UNL     1      21.517   5.197  21.664  0.00  0.00    -0.311 N 
ATOM     10  N   UNL     1      19.839   6.849  21.913  0.00  0.00    -0.240 NA
ATOM     24  C   UNL     1      17.933   6.829  20.426  0.00  0.00    +0.041 A 
ATOM     25  C   UNL     1      21.894   5.313  23.079  0.00  0.00    +0.134 C 
ATOM     26  C   UNL     1      22.638   5.116  20.723  0.00  0.00    +0.134 C 
ATOM     27  C   UNL     1      20.304   5.762  21.256  0.00  0.00    +0.121 A 
ATOM     28  C   UNL     1      22.925   4.246  23.426  0.00  0.00    +0.178 C 
ATOM     29  C   UNL     1      23.632   4.059  21.195  0.00  0.00    +0.178 C 
ATOM     30  C   UNL     1      18.443   5.711  19.776  0.00  0.00    +0.016 A 
ATOM     31  C   UNL     1      19.651   5.161  20.192  0.00  0.00    +0.044 A 
ATOM     32  C   UNL     1      18.663   7.355  21.480  0.00  0.00    +0.124 A 
ENDBRANCH  20  24
BRANCH  16  11
ATOM      6  N   UNL     1      12.638   8.617  18.580  0.00  0.00    -0.287 NA
ATOM     11  C   UNL     1      13.674   7.666  18.129  0.00  0.00    +0.146 C 
ATOM     12  C   UNL     1      13.967   8.068  16.672  0.00  0.00    +0.030 C 
ATOM     13  C   UNL     1      13.008   9.212  16.374  0.00  0.00    +0.017 C 
ATOM     14  C   UNL     1      11.895   9.016  17.384  0.00  0.00    +0.085 C 
BRANCH   6  15
ATOM     15  C   UNL     1      11.765   8.071  19.610  0.00  0.00    +0.120 C 
BRANCH  15  17
ATOM     17  C   UNL     1      11.601   9.021  20.766  0.00  0.00    -0.033 A 
ATOM     18  C   UNL     1      12.205  10.278  20.728  0.00  0.00    +0.007 A 
ATOM     19  C   UNL     1      10.846   8.644  21.877  0.00  0.00    +0.007 A 
ATOM     21  C   UNL     1      12.053  11.158  21.799  0.00  0.00    +0.027 A 
ATOM     22  C   UNL     1      10.694   9.524  22.948  0.00  0.00    +0.027 A 
ATOM     23  C   UNL     1      11.298  10.781  22.910  0.00  0.00    +0.088 A 
BRANCH  23   1
ATOM      1  S   UNL     1      11.105  11.884  24.249  0.00  0.00    -0.006 S 
ATOM      4  O   UNL     1       9.866  12.630  24.071  0.00  0.00    -0.170 OA
ATOM      5  O   UNL     1      11.330  11.139  25.479  0.00  0.00    -0.170 OA
ATOM     33  C   UNL     1      12.439  13.046  24.062  0.00  0.00    +0.200 C 
ENDBRANCH  23   1
ENDBRANCH  15  17
ENDBRANCH   6  15
ENDBRANCH  16  11
TORSDOF 5
ENDMDL
MODEL 2
REMARK VINA RESULT:      -7.6      3.134      5.054
REMARK  Name = 45783527
REMARK  6 active torsions:
REMARK  status: ('A' for Active; 'I' for Inactive)
REMARK    1  A    between atoms: S_1  and  C_23
REMARK    2  A    between atoms: S_1  and  C_33
REMARK    3  A    between atoms: N_6  and  C_15
REMARK    4  A    between atoms: C_11  and  C_16
REMARK    5  A    between atoms: C_15  and  C_17
REMARK    6  A    between atoms: C_20  and  C_24
REMARK                            x       y       z     vdW  Elec       q    Type
REMARK                         _______ _______ _______ _____ _____    ______ ____
ROOT
ATOM      2  O   UNL     1      14.469   7.325  19.558  0.00  0.00    -0.336 OA
ATOM      7  N   UNL     1      15.556   7.569  21.501  0.00  0.00    -0.190 NA
ATOM      8  N   UNL     1      15.769   6.855  19.339  0.00  0.00    -0.056 NA
ATOM     16  C   UNL     1      14.427   7.727  20.856  0.00  0.00    +0.245 A 
ATOM     20  C   UNL     1      16.349   7.032  20.530  0.00  0.00    +0.204 A 
ENDROOT
BRANCH  20  24
ATOM      3  O   UNL     1      24.262   4.660  21.834  0.00  0.00    -0.377 OA
ATOM      9  N   UNL     1      21.652   5.621  21.434  0.00  0.00    -0.311 N 
ATOM     10  N   UNL     1      19.652   5.357  20.197  0.00  0.00    -0.240 NA
ATOM     24  C   UNL     1      17.717   6.684  20.782  0.00  0.00    +0.041 A 
ATOM     25  C   UNL     1      22.463   5.177  20.293  0.00  0.00    +0.134 C 
ATOM     26  C   UNL     1      22.046   5.067  22.734  0.00  0.00    +0.134 C 
ATOM     27  C   UNL     1      20.318   5.970  21.201  0.00  0.00    +0.121 A 
ATOM     28  C   UNL     1      23.942   5.337  20.619  0.00  0.00    +0.178 C 
ATOM     29  C   UNL     1      23.549   5.231  22.930  0.00  0.00    +0.178 C 
ATOM     30  C   UNL     1      18.435   7.292  21.805  0.00  0.00    +0.016 A 
ATOM     31  C   UNL     1      19.761   6.934  22.026  0.00  0.00    +0.044 A 
ATOM     32  C   UNL     1      18.366   5.731  20.012  0.00  0.00    +0.124 A 
ENDBRANCH  20  24
BRANCH  16  11
ATOM      6  N   UNL     1      12.323   8.918  20.272  0.00  0.00    -0.287 NA
ATOM     11  C   UNL     1      13.108   8.283  21.349  0.00  0.00    +0.146 C 
ATOM     12  C   UNL     1      12.181   7.195  21.921  0.00  0.00    +0.030 C 
ATOM     13  C   UNL     1      10.879   7.335  21.145  0.00  0.00    +0.017 C 
ATOM     14  C   UNL     1      10.915   8.763  20.641  0.00  0.00    +0.085 C 
BRANCH   6  15
ATOM     15  C   UNL     1      12.679  10.312  20.045  0.00  0.00    +0.120 C 
BRANCH  15  17
ATOM     17  C   UNL     1      13.353  10.508  18.713  0.00  0.00    -0.033 A 
ATOM     18  C   UNL     1      14.439  11.377  18.601  0.00  0.00    +0.007 A 
ATOM     19  C   UNL     1      12.890   9.823  17.590  0.00  0.00    +0.007 A 
ATOM     21  C   UNL     1      15.062  11.558  17.367  0.00  0.00    +0.027 A 
ATOM     22  C   UNL     1      13.514  10.004  16.356  0.00  0.00    +0.027 A 
ATOM     23  C   UNL     1      14.600  10.873  16.244  0.00  0.00    +0.088 A 
BRANCH  23   1
ATOM      1  S   UNL     1      15.383  11.098  14.700  0.00  0.00    -0.006 S 
ATOM      4  O   UNL     1      16.665  11.758  14.914  0.00  0.00    -0.170 OA
ATOM      5  O   UNL     1      15.332   9.832  13.983  0.00  0.00    -0.170 OA
ATOM     33  C   UNL     1      14.342  12.256  13.839  0.00  0.00    +0.200 C 
ENDBRANCH  23   1
ENDBRANCH  15  17
ENDBRANCH   6  15
ENDBRANCH  16  11
TORSDOF 5
ENDMDL
MODEL 3
REMARK VINA RESULT:      -7.4      1.479      2.133
REMARK  Name = 45783527
REMARK  6 active torsions:
REMARK  status: ('A' for Active; 'I' for Inactive)
REMARK    1  A    between atoms: S_1  and  C_23
REMARK    2  A    between atoms: S_1  and  C_33
REMARK    3  A    between atoms: N_6  and  C_15
REMARK    4  A    between atoms: C_11  and  C_16
REMARK    5  A    between atoms: C_15  and  C_17
REMARK    6  A    between atoms: C_20  and  C_24
REMARK                            x       y       z     vdW  Elec       q    Type
REMARK                         _______ _______ _______ _____ _____    ______ ____
ROOT
ATOM      2  O   UNL     1      15.402   6.397  18.701  0.00  0.00    -0.336 OA
ATOM      7  N   UNL     1      16.306   7.305  20.538  0.00  0.00    -0.190 NA
ATOM      8  N   UNL     1      16.680   5.839  18.823  0.00  0.00    -0.056 NA
ATOM     16  C   UNL     1      15.262   7.250  19.750  0.00  0.00    +0.245 A 
ATOM     20  C   UNL     1      17.150   6.423  19.929  0.00  0.00    +0.204 A 
ENDROOT
BRANCH  20  24
ATOM      3  O   UNL     1      24.740   4.460  22.843  0.00  0.00    -0.377 OA
ATOM      9  N   UNL     1      22.229   5.289  21.891  0.00  0.00    -0.311 N 
ATOM     10  N   UNL     1      20.478   4.823  20.368  0.00  0.00    -0.240 NA
ATOM     24  C   UNL     1      18.457   6.148  20.452  0.00  0.00    +0.041 A 
ATOM     25  C   UNL     1      23.231   4.742  20.966  0.00  0.00    +0.134 C 
ATOM     26  C   UNL     1      22.397   4.900  23.295  0.00  0.00    +0.134 C 
ATOM     27  C   UNL     1      20.953   5.568  21.392  0.00  0.00    +0.121 A 
ATOM     28  C   UNL     1      24.630   4.983  21.519  0.00  0.00    +0.178 C 
ATOM     29  C   UNL     1      23.842   5.132  23.725  0.00  0.00    +0.178 C 
ATOM     30  C   UNL     1      18.980   6.892  21.504  0.00  0.00    +0.016 A 
ATOM     31  C   UNL     1      20.251   6.603  21.990  0.00  0.00    +0.044 A 
ATOM     32  C   UNL     1      19.240   5.134  19.923  0.00  0.00    +0.124 A 
ENDBRANCH  20  24
BRANCH  16  11
ATOM      6  N   UNL     1      13.916   9.207  19.010  0.00  0.00    -0.287 NA
ATOM     11  C   UNL     1      13.945   7.990  19.847  0.00  0.00    +0.146 C 
ATOM     12  C   UNL     1      12.753   7.149  19.357  0.00  0.00    +0.030 C 
ATOM     13  C   UNL     1      12.079   8.000  18.289  0.00  0.00    +0.017 C 
ATOM     14  C   UNL     1      12.519   9.410  18.626  0.00  0.00    +0.085 C 
BRANCH   6  15
ATOM     15  C   UNL     1      14.476  10.376  19.676  0.00  0.00    +0.120 C 
BRANCH  15  17
ATOM     17  C   UNL     1      13.683  10.758  20.898  0.00  0.00    -0.033 A 
ATOM     18  C   UNL     1      12.426  11.347  20.759  0.00  0.00    +0.007 A 
ATOM     19  C   UNL     1      14.206  10.524  22.170  0.00  0.00    +0.007 A 
ATOM     21  C   UNL     1      11.692  11.700  21.890  0.00  0.00    +0.027 A 
ATOM     22  C   UNL     1      13.471  10.877  23.301  0.00  0.00    +0.027 A 
ATOM     23  C   UNL     1      12.215  11.466  23.162  0.00  0.00    +0.088 A 
BRANCH  23   1
ATOM      1  S   UNL     1      11.293  11.905  24.578  0.00  0.00    -0.006 S 
ATOM      4  O   UNL     1      10.069  12.573  24.156  0.00  0.00    -0.170 OA
ATOM      5  O   UNL     1      11.219  10.737  25.444  0.00  0.00    -0.170 OA
ATOM     33  C   UNL     1      12.293  13.128  25.396  0.00  0.00    +0.200 C 
ENDBRANCH  23   1
ENDBRANCH  15  17
ENDBRANCH   6  15
ENDBRANCH  16  11
TORSDOF 5
ENDMDL
MODEL 4
REMARK VINA RESULT:      -7.4     28.032     32.008
REMARK  Name = 45783527
REMARK  6 active torsions:
REMARK  status: ('A' for Active; 'I' for Inactive)
REMARK    1  A    between atoms: S_1  and  C_23
REMARK    2  A    between atoms: S_1  and  C_33
REMARK    3  A    between atoms: N_6  and  C_15
REMARK    4  A    between atoms: C_11  and  C_16
REMARK    5  A    between atoms: C_15  and  C_17
REMARK    6  A    between atoms: C_20  and  C_24
REMARK                            x       y       z     vdW  Elec       q    Type
REMARK                         _______ _______ _______ _____ _____    ______ ____
ROOT
ATOM      2  O   UNL     1     -10.507 -10.173  18.811  0.00  0.00    -0.336 OA
ATOM      7  N   UNL     1      -9.674  -9.597  16.813  0.00  0.00    -0.190 NA
ATOM      8  N   UNL     1     -11.355  -9.180  18.307  0.00  0.00    -0.056 NA
ATOM     16  C   UNL     1      -9.543 -10.359  17.871  0.00  0.00    +0.245 A 
ATOM     20  C   UNL     1     -10.798  -8.892  17.126  0.00  0.00    +0.204 A 
ENDROOT
BRANCH  20  24
ATOM      3  O   UNL     1     -14.152  -3.415  11.769  0.00  0.00    -0.377 OA
ATOM      9  N   UNL     1     -12.973  -5.119  13.667  0.00  0.00    -0.311 N 
ATOM     10  N   UNL     1     -13.111  -7.225  14.740  0.00  0.00    -0.240 NA
ATOM     24  C   UNL     1     -11.340  -7.905  16.238  0.00  0.00    +0.041 A 
ATOM     25  C   UNL     1     -14.435  -5.043  13.544  0.00  0.00    +0.134 C 
ATOM     26  C   UNL     1     -12.223  -4.706  12.476  0.00  0.00    +0.134 C 
ATOM     27  C   UNL     1     -12.433  -6.073  14.536  0.00  0.00    +0.121 A 
ATOM     28  C   UNL     1     -14.835  -3.679  12.995  0.00  0.00    +0.178 C 
ATOM     29  C   UNL     1     -12.742  -3.360  11.982  0.00  0.00    +0.178 C 
ATOM     30  C   UNL     1     -10.672  -6.709  16.003  0.00  0.00    +0.016 A 
ATOM     31  C   UNL     1     -11.221  -5.769  15.136  0.00  0.00    +0.044 A 
ATOM     32  C   UNL     1     -12.547  -8.112  15.588  0.00  0.00    +0.124 A 
ENDBRANCH  20  24
BRANCH  16  11
ATOM      6  N   UNL     1      -7.890 -11.217  19.520  0.00  0.00    -0.287 NA
ATOM     11  C   UNL     1      -8.487 -11.398  18.181  0.00  0.00    +0.146 C 
ATOM     12  C   UNL     1      -9.049 -12.831  18.193  0.00  0.00    +0.030 C 
ATOM     13  C   UNL     1      -8.668 -13.397  19.554  0.00  0.00    +0.017 C 
ATOM     14  C   UNL     1      -7.484 -12.548  19.974  0.00  0.00    +0.085 C 
BRANCH   6  15
ATOM     15  C   UNL     1      -6.781 -10.273  19.532  0.00  0.00    +0.120 C 
BRANCH  15  17
ATOM     17  C   UNL     1      -5.814 -10.531  18.408  0.00  0.00    -0.033 A 
ATOM     18  C   UNL     1      -4.722 -11.376  18.607  0.00  0.00    +0.007 A 
ATOM     19  C   UNL     1      -6.008  -9.924  17.167  0.00  0.00    +0.007 A 
ATOM     21  C   UNL     1      -3.826 -11.615  17.565  0.00  0.00    +0.027 A 
ATOM     22  C   UNL     1      -5.112 -10.163  16.126  0.00  0.00    +0.027 A 
ATOM     23  C   UNL     1      -4.020 -11.008  16.324  0.00  0.00    +0.088 A 
BRANCH  23   1
ATOM      1  S   UNL     1      -2.900 -11.311  15.020  0.00  0.00    -0.006 S 
ATOM      4  O   UNL     1      -2.827 -12.747  14.785  0.00  0.00    -0.170 OA
ATOM      5  O   UNL     1      -3.237 -10.415  13.923  0.00  0.00    -0.170 OA
ATOM     33  C   UNL     1      -1.320 -10.812  15.668  0.00  0.00    +0.200 C 
ENDBRANCH  23   1
ENDBRANCH  15  17
ENDBRANCH   6  15
ENDBRANCH  16  11
TORSDOF 5
ENDMDL
MODEL 5
REMARK VINA RESULT:      -7.3     29.786     32.168
REMARK  Name = 45783527
REMARK  6 active torsions:
REMARK  status: ('A' for Active; 'I' for Inactive)
REMARK    1  A    between atoms: S_1  and  C_23
REMARK    2  A    between atoms: S_1  and  C_33
REMARK    3  A    between atoms: N_6  and  C_15
REMARK    4  A    between atoms: C_11  and  C_16
REMARK    5  A    between atoms: C_15  and  C_17
REMARK    6  A    between atoms: C_20  and  C_24
REMARK                            x       y       z     vdW  Elec       q    Type
REMARK                         _______ _______ _______ _____ _____    ______ ____
ROOT
ATOM      2  O   UNL     1     -14.189  -5.402  13.960  0.00  0.00    -0.336 OA
ATOM      7  N   UNL     1     -11.969  -5.174  13.764  0.00  0.00    -0.190 NA
ATOM      8  N   UNL     1     -13.622  -6.408  14.752  0.00  0.00    -0.056 NA
ATOM     16  C   UNL     1     -13.148  -4.721  13.414  0.00  0.00    +0.245 A 
ATOM     20  C   UNL     1     -12.311  -6.208  14.585  0.00  0.00    +0.204 A 
ENDROOT
BRANCH  20  24
ATOM      3  O   UNL     1      -6.586 -11.237  18.031  0.00  0.00    -0.377 OA
ATOM      9  N   UNL     1      -8.447  -9.417  16.973  0.00  0.00    -0.311 N 
ATOM     10  N   UNL     1      -9.689  -8.802  15.054  0.00  0.00    -0.240 NA
ATOM     24  C   UNL     1     -11.319  -7.024  15.222  0.00  0.00    +0.041 A 
ATOM     25  C   UNL     1      -7.340  -9.913  16.145  0.00  0.00    +0.134 C 
ATOM     26  C   UNL     1      -8.812 -10.273  18.107  0.00  0.00    +0.134 C 
ATOM     27  C   UNL     1      -9.418  -8.614  16.365  0.00  0.00    +0.121 A 
ATOM     28  C   UNL     1      -6.167 -10.305  17.035  0.00  0.00    +0.178 C 
ATOM     29  C   UNL     1      -7.560 -10.648  18.893  0.00  0.00    +0.178 C 
ATOM     30  C   UNL     1     -11.013  -6.862  16.568  0.00  0.00    +0.016 A 
ATOM     31  C   UNL     1     -10.046  -7.668  17.159  0.00  0.00    +0.044 A 
ATOM     32  C   UNL     1     -10.633  -8.000  14.515  0.00  0.00    +0.124 A 
ENDBRANCH  20  24
BRANCH  16  11
ATOM      6  N   UNL     1     -13.229  -3.860  11.082  0.00  0.00    -0.287 NA
ATOM     11  C   UNL     1     -13.500  -3.565  12.503  0.00  0.00    +0.146 C 
ATOM     12  C   UNL     1     -14.996  -3.205  12.550  0.00  0.00    +0.030 C 
ATOM     13  C   UNL     1     -15.466  -3.266  11.103  0.00  0.00    +0.017 C 
ATOM     14  C   UNL     1     -14.191  -3.075  10.307  0.00  0.00    +0.085 C 
BRANCH   6  15
ATOM     15  C   UNL     1     -11.854  -3.582  10.689  0.00  0.00    +0.120 C 
BRANCH  15  17
ATOM     17  C   UNL     1     -11.256  -4.719   9.903  0.00  0.00    -0.033 A 
ATOM     18  C   UNL     1     -10.247  -4.470   8.972  0.00  0.00    +0.007 A 
ATOM     19  C   UNL     1     -11.713  -6.022  10.103  0.00  0.00    +0.007 A 
ATOM     21  C   UNL     1      -9.694  -5.523   8.244  0.00  0.00    +0.027 A 
ATOM     22  C   UNL     1     -11.161  -7.074   9.375  0.00  0.00    +0.027 A 
ATOM     23  C   UNL     1     -10.151  -6.825   8.445  0.00  0.00    +0.088 A 
BRANCH  23   1
ATOM      1  S   UNL     1      -9.456  -8.143   7.535  0.00  0.00    -0.006 S 
ATOM      4  O   UNL     1      -8.516  -8.860   8.388  0.00  0.00    -0.170 OA
ATOM      5  O   UNL     1     -10.543  -8.866   6.892  0.00  0.00    -0.170 OA
ATOM     33  C   UNL     1      -8.500  -7.349   6.263  0.00  0.00    +0.200 C 
ENDBRANCH  23   1
ENDBRANCH  15  17
ENDBRANCH   6  15
ENDBRANCH  16  11
TORSDOF 5
ENDMDL
MODEL 6
REMARK VINA RESULT:      -7.1     28.030     31.855
REMARK  Name = 45783527
REMARK  6 active torsions:
REMARK  status: ('A' for Active; 'I' for Inactive)
REMARK    1  A    between atoms: S_1  and  C_23
REMARK    2  A    between atoms: S_1  and  C_33
REMARK    3  A    between atoms: N_6  and  C_15
REMARK    4  A    between atoms: C_11  and  C_16
REMARK    5  A    between atoms: C_15  and  C_17
REMARK    6  A    between atoms: C_20  and  C_24
REMARK                            x       y       z     vdW  Elec       q    Type
REMARK                         _______ _______ _______ _____ _____    ______ ____
ROOT
ATOM      2  O   UNL     1      -7.937  -7.726   6.186  0.00  0.00    -0.336 OA
ATOM      7  N   UNL     1      -8.102  -8.002   8.403  0.00  0.00    -0.190 NA
ATOM      8  N   UNL     1      -9.009  -6.926   6.599  0.00  0.00    -0.056 NA
ATOM     16  C   UNL     1      -7.459  -8.325   7.308  0.00  0.00    +0.245 A 
ATOM     20  C   UNL     1      -9.043  -7.142   7.918  0.00  0.00    +0.204 A 
ENDROOT
BRANCH  20  24
ATOM      3  O   UNL     1     -14.436  -3.172  12.929  0.00  0.00    -0.377 OA
ATOM      9  N   UNL     1     -12.746  -4.629  11.220  0.00  0.00    -0.311 N 
ATOM     10  N   UNL     1     -11.021  -4.484   9.607  0.00  0.00    -0.240 NA
ATOM     24  C   UNL     1     -10.006  -6.516   8.777  0.00  0.00    +0.041 A 
ATOM     25  C   UNL     1     -13.312  -3.344  10.787  0.00  0.00    +0.134 C 
ATOM     26  C   UNL     1     -12.677  -4.824  12.672  0.00  0.00    +0.134 C 
ATOM     27  C   UNL     1     -11.813  -5.254  10.387  0.00  0.00    +0.121 A 
ATOM     28  C   UNL     1     -14.625  -3.087  11.517  0.00  0.00    +0.178 C 
ATOM     29  C   UNL     1     -14.024  -4.487  13.302  0.00  0.00    +0.178 C 
ATOM     30  C   UNL     1     -10.837  -7.273   9.594  0.00  0.00    +0.016 A 
ATOM     31  C   UNL     1     -11.761  -6.638  10.418  0.00  0.00    +0.044 A 
ATOM     32  C   UNL     1     -10.136  -5.136   8.820  0.00  0.00    +0.124 A 
ENDBRANCH  20  24
BRANCH  16  11
ATOM      6  N   UNL     1      -5.719  -9.718   8.413  0.00  0.00    -0.287 NA
ATOM     11  C   UNL     1      -6.279  -9.256   7.127  0.00  0.00    +0.146 C 
ATOM     12  C   UNL     1      -6.649 -10.546   6.374  0.00  0.00    +0.030 C 
ATOM     13  C   UNL     1      -6.206 -11.681   7.287  0.00  0.00    +0.017 C 
ATOM     14  C   UNL     1      -5.146 -11.041   8.162  0.00  0.00    +0.085 C 
BRANCH   6  15
ATOM     15  C   UNL     1      -4.743  -8.798   8.980  0.00  0.00    +0.120 C 
BRANCH  15  17
ATOM     17  C   UNL     1      -4.133  -9.338  10.246  0.00  0.00    -0.033 A 
ATOM     18  C   UNL     1      -2.752  -9.512  10.338  0.00  0.00    +0.007 A 
ATOM     19  C   UNL     1      -4.950  -9.666  11.328  0.00  0.00    +0.007 A 
ATOM     21  C   UNL     1      -2.188 -10.013  11.510  0.00  0.00    +0.027 A 
ATOM     22  C   UNL     1      -4.386 -10.167  12.501  0.00  0.00    +0.027 A 
ATOM     23  C   UNL     1      -3.005 -10.341  12.592  0.00  0.00    +0.088 A 
BRANCH  23   1
ATOM      1  S   UNL     1      -2.298 -10.965  14.062  0.00  0.00    -0.006 S 
ATOM      4  O   UNL     1      -1.733 -12.281  13.792  0.00  0.00    -0.170 OA
ATOM      5  O   UNL     1      -1.459  -9.921  14.633  0.00  0.00    -0.170 OA
ATOM     33  C   UNL     1      -3.683 -11.210  15.151  0.00  0.00    +0.200 C 
ENDBRANCH  23   1
ENDBRANCH  15  17
ENDBRANCH   6  15
ENDBRANCH  16  11
TORSDOF 5
ENDMDL
MODEL 7
REMARK VINA RESULT:      -7.0     16.479     20.498
REMARK  Name = 45783527
REMARK  6 active torsions:
REMARK  status: ('A' for Active; 'I' for Inactive)
REMARK    1  A    between atoms: S_1  and  C_23
REMARK    2  A    between atoms: S_1  and  C_33
REMARK    3  A    between atoms: N_6  and  C_15
REMARK    4  A    between atoms: C_11  and  C_16
REMARK    5  A    between atoms: C_15  and  C_17
REMARK    6  A    between atoms: C_20  and  C_24
REMARK                            x       y       z     vdW  Elec       q    Type
REMARK                         _______ _______ _______ _____ _____    ______ ____
ROOT
ATOM      2  O   UNL     1      10.164   4.449   5.619  0.00  0.00    -0.336 OA
ATOM      7  N   UNL     1      10.884   5.956   4.126  0.00  0.00    -0.190 NA
ATOM      8  N   UNL     1      10.272   3.769   4.400  0.00  0.00    -0.056 NA
ATOM     16  C   UNL     1      10.542   5.730   5.370  0.00  0.00    +0.245 A 
ATOM     20  C   UNL     1      10.702   4.723   3.569  0.00  0.00    +0.204 A 
ENDROOT
BRANCH  20  24
ATOM      3  O   UNL     1      11.810   3.265  -4.591  0.00  0.00    -0.377 OA
ATOM      9  N   UNL     1      11.605   3.808  -1.841  0.00  0.00    -0.311 N 
ATOM     10  N   UNL     1      10.168   4.532  -0.105  0.00  0.00    -0.240 NA
ATOM     24  C   UNL     1      10.957   4.479   2.179  0.00  0.00    +0.041 A 
ATOM     25  C   UNL     1      10.914   4.659  -2.820  0.00  0.00    +0.134 C 
ATOM     26  C   UNL     1      11.927   2.455  -2.307  0.00  0.00    +0.134 C 
ATOM     27  C   UNL     1      11.370   4.041  -0.483  0.00  0.00    +0.121 A 
ATOM     28  C   UNL     1      11.652   4.614  -4.153  0.00  0.00    +0.178 C 
ATOM     29  C   UNL     1      12.611   2.527  -3.668  0.00  0.00    +0.178 C 
ATOM     30  C   UNL     1      12.180   3.974   1.753  0.00  0.00    +0.016 A 
ATOM     31  C   UNL     1      12.399   3.748   0.398  0.00  0.00    +0.044 A 
ATOM     32  C   UNL     1       9.993   4.740   1.218  0.00  0.00    +0.124 A 
ENDBRANCH  20  24
BRANCH  16  11
ATOM      6  N   UNL     1       9.411   7.661   6.456  0.00  0.00    -0.287 NA
ATOM     11  C   UNL     1      10.514   6.683   6.545  0.00  0.00    +0.146 C 
ATOM     12  C   UNL     1      10.293   5.965   7.889  0.00  0.00    +0.030 C 
ATOM     13  C   UNL     1       9.081   6.646   8.509  0.00  0.00    +0.017 C 
ATOM     14  C   UNL     1       9.048   8.001   7.832  0.00  0.00    +0.085 C 
BRANCH   6  15
ATOM     15  C   UNL     1       9.750   8.841   5.672  0.00  0.00    +0.120 C 
BRANCH  15  17
ATOM     17  C   UNL     1       8.629   9.241   4.749  0.00  0.00    -0.033 A 
ATOM     18  C   UNL     1       7.840  10.352   5.050  0.00  0.00    +0.007 A 
ATOM     19  C   UNL     1       8.378   8.500   3.595  0.00  0.00    +0.007 A 
ATOM     21  C   UNL     1       6.802  10.722   4.195  0.00  0.00    +0.027 A 
ATOM     22  C   UNL     1       7.340   8.870   2.740  0.00  0.00    +0.027 A 
ATOM     23  C   UNL     1       6.551   9.981   3.041  0.00  0.00    +0.088 A 
BRANCH  23   1
ATOM      1  S   UNL     1       5.254  10.447   1.970  0.00  0.00    -0.006 S 
ATOM      4  O   UNL     1       4.040   9.743   2.365  0.00  0.00    -0.170 OA
ATOM      5  O   UNL     1       5.249  11.899   1.877  0.00  0.00    -0.170 OA
ATOM     33  C   UNL     1       5.733   9.799   0.384  0.00  0.00    +0.200 C 
ENDBRANCH  23   1
ENDBRANCH  15  17
ENDBRANCH   6  15
ENDBRANCH  16  11
TORSDOF 5
ENDMDL
MODEL 8
REMARK VINA RESULT:      -7.0     15.007     17.466
REMARK  Name = 45783527
REMARK  6 active torsions:
REMARK  status: ('A' for Active; 'I' for Inactive)
REMARK    1  A    between atoms: S_1  and  C_23
REMARK    2  A    between atoms: S_1  and  C_33
REMARK    3  A    between atoms: N_6  and  C_15
REMARK    4  A    between atoms: C_11  and  C_16
REMARK    5  A    between atoms: C_15  and  C_17
REMARK    6  A    between atoms: C_20  and  C_24
REMARK                            x       y       z     vdW  Elec       q    Type
REMARK                         _______ _______ _______ _____ _____    ______ ____
ROOT
ATOM      2  O   UNL     1      10.978   9.203   7.161  0.00  0.00    -0.336 OA
ATOM      7  N   UNL     1      12.544   7.717   6.562  0.00  0.00    -0.190 NA
ATOM      8  N   UNL     1      12.178   9.919   7.063  0.00  0.00    -0.056 NA
ATOM     16  C   UNL     1      11.282   7.915   6.850  0.00  0.00    +0.245 A 
ATOM     20  C   UNL     1      13.054   8.974   6.706  0.00  0.00    +0.204 A 
ENDROOT
BRANCH  20  24
ATOM      3  O   UNL     1      21.064  10.972   5.366  0.00  0.00    -0.377 OA
ATOM      9  N   UNL     1      18.427  10.147   5.882  0.00  0.00    -0.311 N 
ATOM     10  N   UNL     1      16.252  10.857   6.488  0.00  0.00    -0.240 NA
ATOM     24  C   UNL     1      14.444   9.254   6.487  0.00  0.00    +0.041 A 
ATOM     25  C   UNL     1      19.041  11.216   6.681  0.00  0.00    +0.134 C 
ATOM     26  C   UNL     1      19.024   9.934   4.559  0.00  0.00    +0.134 C 
ATOM     27  C   UNL     1      17.075   9.860   6.091  0.00  0.00    +0.121 A 
ATOM     28  C   UNL     1      20.555  11.042   6.698  0.00  0.00    +0.178 C 
ATOM     29  C   UNL     1      20.540   9.830   4.688  0.00  0.00    +0.178 C 
ATOM     30  C   UNL     1      15.320   8.255   6.079  0.00  0.00    +0.016 A 
ATOM     31  C   UNL     1      16.662   8.555   5.874  0.00  0.00    +0.044 A 
ATOM     32  C   UNL     1      14.956  10.528   6.677  0.00  0.00    +0.124 A 
ENDBRANCH  20  24
BRANCH  16  11
ATOM      6  N   UNL     1      10.373   5.758   6.008  0.00  0.00    -0.287 NA
ATOM     11  C   UNL     1      10.138   6.925   6.882  0.00  0.00    +0.146 C 
ATOM     12  C   UNL     1       9.908   6.326   8.281  0.00  0.00    +0.030 C 
ATOM     13  C   UNL     1       9.973   4.818   8.084  0.00  0.00    +0.017 C 
ATOM     14  C   UNL     1       9.654   4.637   6.614  0.00  0.00    +0.085 C 
BRANCH   6  15
ATOM     15  C   UNL     1       9.971   5.984   4.626  0.00  0.00    +0.120 C 
BRANCH  15  17
ATOM     17  C   UNL     1      11.000   5.474   3.653  0.00  0.00    -0.033 A 
ATOM     18  C   UNL     1      10.904   4.177   3.150  0.00  0.00    +0.007 A 
ATOM     19  C   UNL     1      12.053   6.299   3.255  0.00  0.00    +0.007 A 
ATOM     21  C   UNL     1      11.858   3.705   2.249  0.00  0.00    +0.027 A 
ATOM     22  C   UNL     1      13.006   5.827   2.354  0.00  0.00    +0.027 A 
ATOM     23  C   UNL     1      12.910   4.530   1.851  0.00  0.00    +0.088 A 
BRANCH  23   1
ATOM      1  S   UNL     1      14.102   3.940   0.720  0.00  0.00    -0.006 S 
ATOM      4  O   UNL     1      15.116   3.192   1.452  0.00  0.00    -0.170 OA
ATOM      5  O   UNL     1      13.396   3.309  -0.386  0.00  0.00    -0.170 OA
ATOM     33  C   UNL     1      14.889   5.409   0.099  0.00  0.00    +0.200 C 
ENDBRANCH  23   1
ENDBRANCH  15  17
ENDBRANCH   6  15
ENDBRANCH  16  11
TORSDOF 5
ENDMDL
MODEL 9
REMARK VINA RESULT:      -6.9     15.860     19.940
REMARK  Name = 45783527
REMARK  6 active torsions:
REMARK  status: ('A' for Active; 'I' for Inactive)
REMARK    1  A    between atoms: S_1  and  C_23
REMARK    2  A    between atoms: S_1  and  C_33
REMARK    3  A    between atoms: N_6  and  C_15
REMARK    4  A    between atoms: C_11  and  C_16
REMARK    5  A    between atoms: C_15  and  C_17
REMARK    6  A    between atoms: C_20  and  C_24
REMARK                            x       y       z     vdW  Elec       q    Type
REMARK                         _______ _______ _______ _____ _____    ______ ____
ROOT
ATOM      2  O   UNL     1      12.667   7.338   5.461  0.00  0.00    -0.336 OA
ATOM      7  N   UNL     1      10.915   6.111   4.794  0.00  0.00    -0.190 NA
ATOM      8  N   UNL     1      12.940   6.953   4.143  0.00  0.00    -0.056 NA
ATOM     16  C   UNL     1      11.457   6.801   5.767  0.00  0.00    +0.245 A 
ATOM     20  C   UNL     1      11.861   6.233   3.819  0.00  0.00    +0.204 A 
ENDROOT
BRANCH  20  24
ATOM      3  O   UNL     1      11.254   2.826  -3.795  0.00  0.00    -0.377 OA
ATOM      9  N   UNL     1      11.327   3.866  -1.185  0.00  0.00    -0.311 N 
ATOM     10  N   UNL     1      12.712   4.766   0.510  0.00  0.00    -0.240 NA
ATOM     24  C   UNL     1      11.699   5.622   2.532  0.00  0.00    +0.041 A 
ATOM     25  C   UNL     1      12.417   3.011  -1.675  0.00  0.00    +0.134 C 
ATOM     26  C   UNL     1      10.542   4.536  -2.227  0.00  0.00    +0.134 C 
ATOM     27  C   UNL     1      11.469   4.462   0.072  0.00  0.00    +0.121 A 
ATOM     28  C   UNL     1      11.892   2.078  -2.760  0.00  0.00    +0.178 C 
ATOM     29  C   UNL     1      10.117   3.522  -3.284  0.00  0.00    +0.178 C 
ATOM     30  C   UNL     1      10.438   5.295   2.047  0.00  0.00    +0.016 A 
ATOM     31  C   UNL     1      10.312   4.703   0.795  0.00  0.00    +0.044 A 
ATOM     32  C   UNL     1      12.795   5.339   1.731  0.00  0.00    +0.124 A 
ENDBRANCH  20  24
BRANCH  16  11
ATOM      6  N   UNL     1       9.542   7.586   7.147  0.00  0.00    -0.287 NA
ATOM     11  C   UNL     1      10.928   7.076   7.158  0.00  0.00    +0.146 C 
ATOM     12  C   UNL     1      10.874   5.812   8.035  0.00  0.00    +0.030 C 
ATOM     13  C   UNL     1       9.433   5.727   8.521  0.00  0.00    +0.017 C 
ATOM     14  C   UNL     1       8.932   7.152   8.405  0.00  0.00    +0.085 C 
BRANCH   6  15
ATOM     15  C   UNL     1       9.461   9.030   6.969  0.00  0.00    +0.120 C 
BRANCH  15  17
ATOM     17  C   UNL     1       8.680   9.399   5.736  0.00  0.00    -0.033 A 
ATOM     18  C   UNL     1       8.265   8.405   4.849  0.00  0.00    +0.007 A 
ATOM     19  C   UNL     1       8.373  10.735   5.479  0.00  0.00    +0.007 A 
ATOM     21  C   UNL     1       7.543   8.747   3.707  0.00  0.00    +0.027 A 
ATOM     22  C   UNL     1       7.651  11.077   4.336  0.00  0.00    +0.027 A 
ATOM     23  C   UNL     1       7.235  10.083   3.450  0.00  0.00    +0.088 A 
BRANCH  23   1
ATOM      1  S   UNL     1       6.327  10.510   2.021  0.00  0.00    -0.006 S 
ATOM      4  O   UNL     1       6.537  11.924   1.734  0.00  0.00    -0.170 OA
ATOM      5  O   UNL     1       6.610   9.515   0.997  0.00  0.00    -0.170 OA
ATOM     33  C   UNL     1       4.626  10.328   2.506  0.00  0.00    +0.200 C 
ENDBRANCH  23   1
ENDBRANCH  15  17
ENDBRANCH   6  15
ENDBRANCH  16  11
TORSDOF 5
ENDMDL
MODEL 10
REMARK VINA RESULT:      -6.9     27.078     30.279
REMARK  Name = 45783527
REMARK  6 active torsions:
REMARK  status: ('A' for Active; 'I' for Inactive)
REMARK    1  A    between atoms: S_1  and  C_23
REMARK    2  A    between atoms: S_1  and  C_33
REMARK    3  A    between atoms: N_6  and  C_15
REMARK    4  A    between atoms: C_11  and  C_16
REMARK    5  A    between atoms: C_15  and  C_17
REMARK    6  A    between atoms: C_20  and  C_24
REMARK                            x       y       z     vdW  Elec       q    Type
REMARK                         _______ _______ _______ _____ _____    ______ ____
ROOT
ATOM      2  O   UNL     1      -9.725   9.767  18.826  0.00  0.00    -0.336 OA
ATOM      7  N   UNL     1     -11.660   8.911  18.088  0.00  0.00    -0.190 NA
ATOM      8  N   UNL     1     -10.263   9.040  19.895  0.00  0.00    -0.056 NA
ATOM     16  C   UNL     1     -10.610   9.640  17.802  0.00  0.00    +0.245 A 
ATOM     20  C   UNL     1     -11.402   8.565  19.382  0.00  0.00    +0.204 A 
ENDROOT
BRANCH  20  24
ATOM      3  O   UNL     1     -16.901   4.085  23.814  0.00  0.00    -0.377 OA
ATOM      9  N   UNL     1     -14.974   5.440  22.281  0.00  0.00    -0.311 N 
ATOM     10  N   UNL     1     -14.559   7.314  20.896  0.00  0.00    -0.240 NA
ATOM     24  C   UNL     1     -12.305   7.745  20.136  0.00  0.00    +0.041 A 
ATOM     25  C   UNL     1     -16.367   5.360  21.821  0.00  0.00    +0.134 C 
ATOM     26  C   UNL     1     -14.781   5.263  23.724  0.00  0.00    +0.134 C 
ATOM     27  C   UNL     1     -14.082   6.231  21.550  0.00  0.00    +0.121 A 
ATOM     28  C   UNL     1     -17.027   4.111  22.392  0.00  0.00    +0.178 C 
ATOM     29  C   UNL     1     -15.527   4.018  24.195  0.00  0.00    +0.178 C 
ATOM     30  C   UNL     1     -11.852   6.624  20.822  0.00  0.00    +0.016 A 
ATOM     31  C   UNL     1     -12.751   5.846  21.545  0.00  0.00    +0.044 A 
ATOM     32  C   UNL     1     -13.657   8.044  20.204  0.00  0.00    +0.124 A 
ENDBRANCH  20  24
BRANCH  16  11
ATOM      6  N   UNL     1     -11.297  10.197  15.477  0.00  0.00    -0.287 NA
ATOM     11  C   UNL     1     -10.254  10.346  16.511  0.00  0.00    +0.146 C 
ATOM     12  C   UNL     1     -10.092  11.866  16.688  0.00  0.00    +0.030 C 
ATOM     13  C   UNL     1     -11.040  12.488  15.672  0.00  0.00    +0.017 C 
ATOM     14  C   UNL     1     -11.223  11.394  14.639  0.00  0.00    +0.085 C 
BRANCH   6  15
ATOM     15  C   UNL     1     -11.163   8.974  14.696  0.00  0.00    +0.120 C 
BRANCH  15  17
ATOM     17  C   UNL     1     -12.492   8.298  14.482  0.00  0.00    -0.033 A 
ATOM     18  C   UNL     1     -13.516   8.461  15.414  0.00  0.00    +0.007 A 
ATOM     19  C   UNL     1     -12.698   7.507  13.352  0.00  0.00    +0.007 A 
ATOM     21  C   UNL     1     -14.746   7.835  15.216  0.00  0.00    +0.027 A 
ATOM     22  C   UNL     1     -13.928   6.881  13.153  0.00  0.00    +0.027 A 
ATOM     23  C   UNL     1     -14.952   7.044  14.086  0.00  0.00    +0.088 A 
BRANCH  23   1
ATOM      1  S   UNL     1     -16.494   6.264  13.836  0.00  0.00    -0.006 S 
ATOM      4  O   UNL     1     -16.829   6.324  12.419  0.00  0.00    -0.170 OA
ATOM      5  O   UNL     1     -16.460   4.977  14.517  0.00  0.00    -0.170 OA
ATOM     33  C   UNL     1     -17.660   7.302  14.689  0.00  0.00    +0.200 C 
ENDBRANCH  23   1
ENDBRANCH  15  17
ENDBRANCH   6  15
ENDBRANCH  16  11
TORSDOF 5
ENDMDL
