MODEL 1
REMARK VINA RESULT:      -7.5      0.000      0.000
REMARK  Name = 38027552
REMARK  12 active torsions:
REMARK  status: ('A' for Active; 'I' for Inactive)
REMARK    1  A    between atoms: N_4  and  C_14
REMARK    2  A    between atoms: N_5  and  C_21
REMARK    3  A    between atoms: C_7  and  C_11
REMARK    4  A    between atoms: C_8  and  C_14
REMARK    5  A    between atoms: C_10  and  C_15
REMARK    6  A    between atoms: C_11  and  C_16
REMARK    7  A    between atoms: C_11  and  C_17
REMARK    8  A    between atoms: C_12  and  C_18
REMARK    9  A    between atoms: C_15  and  C_19
REMARK   10  A    between atoms: C_20  and  C_22
REMARK   11  A    between atoms: C_21  and  C_23
REMARK   12  A    between atoms: C_30  and  C_34
REMARK                            x       y       z     vdW  Elec       q    Type
REMARK                         _______ _______ _______ _____ _____    ______ ____
ROOT
ATOM      7  C   UNL     1      -5.618  -9.901   7.522  0.00  0.00    +0.000 C 
ATOM      8  C   UNL     1      -7.003  -9.485   8.077  0.00  0.00    +0.032 C 
ATOM      9  C   UNL     1      -4.872 -10.775   8.540  0.00  0.00    +0.012 C 
ATOM     10  C   UNL     1      -4.662 -10.054   9.885  0.00  0.00    +0.023 C 
ATOM     12  C   UNL     1      -5.932  -9.385  10.369  0.00  0.00    -0.073 C 
ATOM     13  C   UNL     1      -6.973  -9.151   9.550  0.00  0.00    -0.022 C 
ATOM     18  C   UNL     1      -5.997  -9.031  11.830  0.00  0.00    +0.039 C 
ENDROOT
BRANCH   7  11
ATOM     11  C   UNL     1      -5.740 -10.645   6.189  0.00  0.00    -0.013 C 
ATOM     16  C   UNL     1      -4.529 -11.547   5.971  0.00  0.00    +0.007 C 
ATOM     17  C   UNL     1      -7.031 -11.456   6.149  0.00  0.00    +0.007 C 
ENDBRANCH   7  11
BRANCH   8  14
ATOM     14  C   UNL     1      -7.578  -8.298   7.297  0.00  0.00    +0.112 C 
BRANCH  14   4
ATOM      3  O   UNL     1      -9.816  -6.724   6.427  0.00  0.00    -0.270 OA
ATOM      4  N   UNL     1      -8.446  -7.519   8.123  0.00  0.00    -0.311 N 
ATOM     20  C   UNL     1      -9.515  -6.781   7.617  0.00  0.00    +0.244 C 
ATOM     35  H   UNL     1      -8.251  -7.512   9.118  0.00  0.00    +0.149 HD
BRANCH  20  22
ATOM     22  C   UNL     1     -10.306  -6.003   8.604  0.00  0.00    +0.037 A 
ATOM     24  C   UNL     1     -10.185  -4.614   8.657  0.00  0.00    +0.014 A 
ATOM     25  C   UNL     1     -11.172  -6.660   9.477  0.00  0.00    +0.014 A 
ATOM     28  C   UNL     1     -10.929  -3.883   9.582  0.00  0.00    +0.019 A 
ATOM     29  C   UNL     1     -11.917  -5.929  10.403  0.00  0.00    +0.019 A 
ATOM     30  C   UNL     1     -11.795  -4.540  10.456  0.00  0.00    +0.052 A 
BRANCH  30  34
ATOM      6  N   UNL     1     -13.177  -3.184  12.175  0.00  0.00    -0.191 NA
ATOM     34  C   UNL     1     -12.557  -3.792  11.404  0.00  0.00    +0.099 C 
ENDBRANCH  30  34
ENDBRANCH  20  22
ENDBRANCH  14   4
ENDBRANCH   8  14
BRANCH  10  15
ATOM     15  C   UNL     1      -3.510  -9.046   9.797  0.00  0.00    +0.103 C 
BRANCH  15  19
ATOM      2  O   UNL     1      -1.246  -8.912  10.641  0.00  0.00    -0.276 OA
ATOM      5  N   UNL     1      -2.752 -10.378  11.633  0.00  0.00    -0.311 N 
ATOM     19  C   UNL     1      -2.365  -9.412  10.714  0.00  0.00    +0.214 C 
ATOM     36  H   UNL     1      -3.706 -10.728  11.621  0.00  0.00    +0.149 HD
BRANCH   5  21
ATOM     21  C   UNL     1      -1.860 -10.919  12.632  0.00  0.00    +0.139 C 
BRANCH  21  23
ATOM      1  F   UNL     1      -4.077 -10.653  17.801  0.00  0.00    -0.205 F 
ATOM     23  C   UNL     1      -2.452 -10.848  14.010  0.00  0.00    -0.030 A 
ATOM     26  C   UNL     1      -1.619 -10.887  15.129  0.00  0.00    +0.008 A 
ATOM     27  C   UNL     1      -3.832 -10.743  14.172  0.00  0.00    +0.008 A 
ATOM     31  C   UNL     1      -2.167 -10.822  16.410  0.00  0.00    +0.038 A 
ATOM     32  C   UNL     1      -4.382 -10.677  15.454  0.00  0.00    +0.038 A 
ATOM     33  C   UNL     1      -3.549 -10.717  16.572  0.00  0.00    +0.123 A 
ENDBRANCH  21  23
ENDBRANCH   5  21
ENDBRANCH  15  19
ENDBRANCH  10  15
TORSDOF 9
ENDMDL
MODEL 2
REMARK VINA RESULT:      -7.4      5.227      9.340
REMARK  Name = 38027552
REMARK  12 active torsions:
REMARK  status: ('A' for Active; 'I' for Inactive)
REMARK    1  A    between atoms: N_4  and  C_14
REMARK    2  A    between atoms: N_5  and  C_21
REMARK    3  A    between atoms: C_7  and  C_11
REMARK    4  A    between atoms: C_8  and  C_14
REMARK    5  A    between atoms: C_10  and  C_15
REMARK    6  A    between atoms: C_11  and  C_16
REMARK    7  A    between atoms: C_11  and  C_17
REMARK    8  A    between atoms: C_12  and  C_18
REMARK    9  A    between atoms: C_15  and  C_19
REMARK   10  A    between atoms: C_20  and  C_22
REMARK   11  A    between atoms: C_21  and  C_23
REMARK   12  A    between atoms: C_30  and  C_34
REMARK                            x       y       z     vdW  Elec       q    Type
REMARK                         _______ _______ _______ _____ _____    ______ ____
ROOT
ATOM      7  C   UNL     1      -3.159 -12.104  12.742  0.00  0.00    +0.000 C 
ATOM      8  C   UNL     1      -2.053 -11.039  12.534  0.00  0.00    +0.032 C 
ATOM      9  C   UNL     1      -3.737 -12.547  11.390  0.00  0.00    +0.012 C 
ATOM     10  C   UNL     1      -4.336 -11.370  10.597  0.00  0.00    +0.023 C 
ATOM     12  C   UNL     1      -3.404 -10.175  10.575  0.00  0.00    -0.073 C 
ATOM     13  C   UNL     1      -2.382 -10.051  11.439  0.00  0.00    -0.022 C 
ATOM     18  C   UNL     1      -3.649  -9.146   9.506  0.00  0.00    +0.039 C 
ENDROOT
BRANCH   7  11
ATOM     11  C   UNL     1      -2.638 -13.323  13.509  0.00  0.00    -0.013 C 
ATOM     16  C   UNL     1      -3.691 -13.821  14.494  0.00  0.00    +0.007 C 
ATOM     17  C   UNL     1      -2.238 -14.430  12.539  0.00  0.00    +0.007 C 
ENDBRANCH   7  11
BRANCH   8  14
ATOM     14  C   UNL     1      -1.762 -10.282  13.834  0.00  0.00    +0.112 C 
BRANCH  14   4
ATOM      3  O   UNL     1      -1.647 -10.825  16.651  0.00  0.00    -0.270 OA
ATOM      4  N   UNL     1      -2.870 -10.370  14.732  0.00  0.00    -0.311 N 
ATOM     20  C   UNL     1      -2.725 -10.639  16.093  0.00  0.00    +0.244 C 
ATOM     35  H   UNL     1      -3.794 -10.236  14.337  0.00  0.00    +0.149 HD
BRANCH  20  22
ATOM     22  C   UNL     1      -3.978 -10.725  16.886  0.00  0.00    +0.037 A 
ATOM     24  C   UNL     1      -4.014 -11.486  18.054  0.00  0.00    +0.014 A 
ATOM     25  C   UNL     1      -5.118 -10.042  16.463  0.00  0.00    +0.014 A 
ATOM     28  C   UNL     1      -5.190 -11.564  18.800  0.00  0.00    +0.019 A 
ATOM     29  C   UNL     1      -6.295 -10.121  17.209  0.00  0.00    +0.019 A 
ATOM     30  C   UNL     1      -6.331 -10.882  18.378  0.00  0.00    +0.052 A 
BRANCH  30  34
ATOM      6  N   UNL     1      -8.515 -11.028  19.761  0.00  0.00    -0.191 NA
ATOM     34  C   UNL     1      -7.536 -10.962  19.141  0.00  0.00    +0.099 C 
ENDBRANCH  30  34
ENDBRANCH  20  22
ENDBRANCH  14   4
ENDBRANCH   8  14
BRANCH  10  15
ATOM     15  C   UNL     1      -5.714 -10.981  11.142  0.00  0.00    +0.103 C 
BRANCH  15  19
ATOM      2  O   UNL     1      -7.847 -10.355  10.185  0.00  0.00    -0.276 OA
ATOM      5  N   UNL     1      -6.304 -11.510   8.886  0.00  0.00    -0.311 N 
ATOM     19  C   UNL     1      -6.754 -10.897  10.047  0.00  0.00    +0.214 C 
ATOM     36  H   UNL     1      -5.378 -11.927   8.865  0.00  0.00    +0.149 HD
BRANCH   5  21
ATOM     21  C   UNL     1      -7.091 -11.583   7.677  0.00  0.00    +0.139 C 
BRANCH  21  23
ATOM      1  F   UNL     1      -3.869 -12.205   3.101  0.00  0.00    -0.205 F 
ATOM     23  C   UNL     1      -6.232 -11.748   6.456  0.00  0.00    -0.030 A 
ATOM     26  C   UNL     1      -4.859 -11.955   6.593  0.00  0.00    +0.008 A 
ATOM     27  C   UNL     1      -6.806 -11.696   5.187  0.00  0.00    +0.008 A 
ATOM     31  C   UNL     1      -4.061 -12.109   5.460  0.00  0.00    +0.038 A 
ATOM     32  C   UNL     1      -6.007 -11.850   4.053  0.00  0.00    +0.038 A 
ATOM     33  C   UNL     1      -4.635 -12.056   4.189  0.00  0.00    +0.123 A 
ENDBRANCH  21  23
ENDBRANCH   5  21
ENDBRANCH  15  19
ENDBRANCH  10  15
TORSDOF 9
ENDMDL
MODEL 3
REMARK VINA RESULT:      -7.4      3.702      9.110
REMARK  Name = 38027552
REMARK  12 active torsions:
REMARK  status: ('A' for Active; 'I' for Inactive)
REMARK    1  A    between atoms: N_4  and  C_14
REMARK    2  A    between atoms: N_5  and  C_21
REMARK    3  A    between atoms: C_7  and  C_11
REMARK    4  A    between atoms: C_8  and  C_14
REMARK    5  A    between atoms: C_10  and  C_15
REMARK    6  A    between atoms: C_11  and  C_16
REMARK    7  A    between atoms: C_11  and  C_17
REMARK    8  A    between atoms: C_12  and  C_18
REMARK    9  A    between atoms: C_15  and  C_19
REMARK   10  A    between atoms: C_20  and  C_22
REMARK   11  A    between atoms: C_21  and  C_23
REMARK   12  A    between atoms: C_30  and  C_34
REMARK                            x       y       z     vdW  Elec       q    Type
REMARK                         _______ _______ _______ _____ _____    ______ ____
ROOT
ATOM      7  C   UNL     1      -3.308 -12.085  12.439  0.00  0.00    +0.000 C 
ATOM      8  C   UNL     1      -2.185 -11.044  12.205  0.00  0.00    +0.032 C 
ATOM      9  C   UNL     1      -3.991 -12.445  11.111  0.00  0.00    +0.012 C 
ATOM     10  C   UNL     1      -4.604 -11.214  10.418  0.00  0.00    +0.023 C 
ATOM     12  C   UNL     1      -3.638 -10.046  10.387  0.00  0.00    -0.073 C 
ATOM     13  C   UNL     1      -2.555  -9.995  11.184  0.00  0.00    -0.022 C 
ATOM     18  C   UNL     1      -3.921  -8.959   9.387  0.00  0.00    +0.039 C 
ENDROOT
BRANCH   7  11
ATOM     11  C   UNL     1      -2.776 -13.354  13.110  0.00  0.00    -0.013 C 
ATOM     16  C   UNL     1      -3.733 -13.819  14.204  0.00  0.00    +0.007 C 
ATOM     17  C   UNL     1      -2.564 -14.454  12.075  0.00  0.00    +0.007 C 
ENDBRANCH   7  11
BRANCH   8  14
ATOM     14  C   UNL     1      -1.782 -10.360  13.516  0.00  0.00    +0.112 C 
BRANCH  14   4
ATOM      3  O   UNL     1      -1.532 -10.845  16.335  0.00  0.00    -0.270 OA
ATOM      4  N   UNL     1      -2.845 -10.423  14.469  0.00  0.00    -0.311 N 
ATOM     20  C   UNL     1      -2.635 -10.664  15.826  0.00  0.00    +0.244 C 
ATOM     35  H   UNL     1      -3.787 -10.290  14.117  0.00  0.00    +0.149 HD
BRANCH  20  22
ATOM     22  C   UNL     1      -3.848 -10.724  16.681  0.00  0.00    +0.037 A 
ATOM     24  C   UNL     1      -5.034 -10.127  16.254  0.00  0.00    +0.014 A 
ATOM     25  C   UNL     1      -3.801 -11.382  17.910  0.00  0.00    +0.014 A 
ATOM     28  C   UNL     1      -6.173 -10.186  17.056  0.00  0.00    +0.019 A 
ATOM     29  C   UNL     1      -4.941 -11.441  18.713  0.00  0.00    +0.019 A 
ATOM     30  C   UNL     1      -6.127 -10.843  18.286  0.00  0.00    +0.052 A 
BRANCH  30  34
ATOM      6  N   UNL     1      -8.242 -10.952  19.777  0.00  0.00    -0.191 NA
ATOM     34  C   UNL     1      -7.294 -10.904  19.109  0.00  0.00    +0.099 C 
ENDBRANCH  30  34
ENDBRANCH  20  22
ENDBRANCH  14   4
ENDBRANCH   8  14
BRANCH  10  15
ATOM     15  C   UNL     1      -5.929 -10.812  11.075  0.00  0.00    +0.103 C 
BRANCH  15  19
ATOM      2  O   UNL     1      -7.803 -11.818   9.921  0.00  0.00    -0.276 OA
ATOM      5  N   UNL     1      -7.198  -9.628   9.430  0.00  0.00    -0.311 N 
ATOM     19  C   UNL     1      -7.080 -10.841  10.094  0.00  0.00    +0.214 C 
ATOM     36  H   UNL     1      -6.555  -8.873   9.647  0.00  0.00    +0.149 HD
BRANCH   5  21
ATOM     21  C   UNL     1      -8.211  -9.371   8.433  0.00  0.00    +0.139 C 
BRANCH  21  23
ATOM      1  F   UNL     1     -10.222  -4.123   8.780  0.00  0.00    -0.205 F 
ATOM     23  C   UNL     1      -8.748  -7.971   8.526  0.00  0.00    -0.030 A 
ATOM     26  C   UNL     1      -7.960  -6.894   8.118  0.00  0.00    +0.008 A 
ATOM     27  C   UNL     1     -10.032  -7.748   9.019  0.00  0.00    +0.008 A 
ATOM     31  C   UNL     1      -8.458  -5.594   8.204  0.00  0.00    +0.038 A 
ATOM     32  C   UNL     1     -10.531  -6.448   9.105  0.00  0.00    +0.038 A 
ATOM     33  C   UNL     1      -9.744  -5.371   8.698  0.00  0.00    +0.123 A 
ENDBRANCH  21  23
ENDBRANCH   5  21
ENDBRANCH  15  19
ENDBRANCH  10  15
TORSDOF 9
ENDMDL
MODEL 4
REMARK VINA RESULT:      -7.4      5.304      8.096
REMARK  Name = 38027552
REMARK  12 active torsions:
REMARK  status: ('A' for Active; 'I' for Inactive)
REMARK    1  A    between atoms: N_4  and  C_14
REMARK    2  A    between atoms: N_5  and  C_21
REMARK    3  A    between atoms: C_7  and  C_11
REMARK    4  A    between atoms: C_8  and  C_14
REMARK    5  A    between atoms: C_10  and  C_15
REMARK    6  A    between atoms: C_11  and  C_16
REMARK    7  A    between atoms: C_11  and  C_17
REMARK    8  A    between atoms: C_12  and  C_18
REMARK    9  A    between atoms: C_15  and  C_19
REMARK   10  A    between atoms: C_20  and  C_22
REMARK   11  A    between atoms: C_21  and  C_23
REMARK   12  A    between atoms: C_30  and  C_34
REMARK                            x       y       z     vdW  Elec       q    Type
REMARK                         _______ _______ _______ _____ _____    ______ ____
ROOT
ATOM      7  C   UNL     1      -3.025 -12.140  12.362  0.00  0.00    +0.000 C 
ATOM      8  C   UNL     1      -2.029 -10.972  12.149  0.00  0.00    +0.032 C 
ATOM      9  C   UNL     1      -3.725 -12.495  11.042  0.00  0.00    +0.012 C 
ATOM     10  C   UNL     1      -4.494 -11.300  10.449  0.00  0.00    +0.023 C 
ATOM     12  C   UNL     1      -3.659 -10.035  10.453  0.00  0.00    -0.073 C 
ATOM     13  C   UNL     1      -2.554  -9.912  11.209  0.00  0.00    -0.022 C 
ATOM     18  C   UNL     1      -4.100  -8.930   9.533  0.00  0.00    +0.039 C 
ENDROOT
BRANCH   7  11
ATOM     11  C   UNL     1      -2.332 -13.381  12.933  0.00  0.00    -0.013 C 
ATOM     16  C   UNL     1      -2.888 -13.712  14.314  0.00  0.00    +0.007 C 
ATOM     17  C   UNL     1      -2.497 -14.565  11.985  0.00  0.00    +0.007 C 
ENDBRANCH   7  11
BRANCH   8  14
ATOM     14  C   UNL     1      -1.642 -10.325  13.483  0.00  0.00    +0.112 C 
BRANCH  14   4
ATOM      3  O   UNL     1      -1.435 -10.742  16.316  0.00  0.00    -0.270 OA
ATOM      4  N   UNL     1      -2.722 -10.398  14.415  0.00  0.00    -0.311 N 
ATOM     20  C   UNL     1      -2.532 -10.604  15.782  0.00  0.00    +0.244 C 
ATOM     35  H   UNL     1      -3.660 -10.302  14.043  0.00  0.00    +0.149 HD
BRANCH  20  22
ATOM     22  C   UNL     1      -3.760 -10.683  16.614  0.00  0.00    +0.037 A 
ATOM     24  C   UNL     1      -4.951 -10.119  16.156  0.00  0.00    +0.014 A 
ATOM     25  C   UNL     1      -3.723 -11.323  17.852  0.00  0.00    +0.014 A 
ATOM     28  C   UNL     1      -6.105 -10.196  16.936  0.00  0.00    +0.019 A 
ATOM     29  C   UNL     1      -4.876 -11.399  18.633  0.00  0.00    +0.019 A 
ATOM     30  C   UNL     1      -6.068 -10.835  18.176  0.00  0.00    +0.052 A 
BRANCH  30  34
ATOM      6  N   UNL     1      -8.208 -10.976  19.626  0.00  0.00    -0.191 NA
ATOM     34  C   UNL     1      -7.248 -10.913  18.976  0.00  0.00    +0.099 C 
ENDBRANCH  30  34
ENDBRANCH  20  22
ENDBRANCH  14   4
ENDBRANCH   8  14
BRANCH  10  15
ATOM     15  C   UNL     1      -5.824 -11.081  11.180  0.00  0.00    +0.103 C 
BRANCH  15  19
ATOM      2  O   UNL     1      -6.916 -13.143  10.542  0.00  0.00    -0.276 OA
ATOM      5  N   UNL     1      -6.750 -12.585  12.792  0.00  0.00    -0.311 N 
ATOM     19  C   UNL     1      -6.553 -12.382  11.433  0.00  0.00    +0.214 C 
ATOM     36  H   UNL     1      -6.406 -11.899  13.457  0.00  0.00    +0.149 HD
BRANCH   5  21
ATOM     21  C   UNL     1      -7.423 -13.746  13.326  0.00  0.00    +0.139 C 
BRANCH  21  23
ATOM      1  F   UNL     1      -4.442 -16.214  17.415  0.00  0.00    -0.205 F 
ATOM     23  C   UNL     1      -6.628 -14.404  14.417  0.00  0.00    -0.030 A 
ATOM     26  C   UNL     1      -6.082 -15.672  14.213  0.00  0.00    +0.008 A 
ATOM     27  C   UNL     1      -6.436 -13.749  15.632  0.00  0.00    +0.008 A 
ATOM     31  C   UNL     1      -5.343 -16.284  15.226  0.00  0.00    +0.038 A 
ATOM     32  C   UNL     1      -5.697 -14.361  16.646  0.00  0.00    +0.038 A 
ATOM     33  C   UNL     1      -5.151 -15.628  16.443  0.00  0.00    +0.123 A 
ENDBRANCH  21  23
ENDBRANCH   5  21
ENDBRANCH  15  19
ENDBRANCH  10  15
TORSDOF 9
ENDMDL
MODEL 5
REMARK VINA RESULT:      -7.3      5.940      8.549
REMARK  Name = 38027552
REMARK  12 active torsions:
REMARK  status: ('A' for Active; 'I' for Inactive)
REMARK    1  A    between atoms: N_4  and  C_14
REMARK    2  A    between atoms: N_5  and  C_21
REMARK    3  A    between atoms: C_7  and  C_11
REMARK    4  A    between atoms: C_8  and  C_14
REMARK    5  A    between atoms: C_10  and  C_15
REMARK    6  A    between atoms: C_11  and  C_16
REMARK    7  A    between atoms: C_11  and  C_17
REMARK    8  A    between atoms: C_12  and  C_18
REMARK    9  A    between atoms: C_15  and  C_19
REMARK   10  A    between atoms: C_20  and  C_22
REMARK   11  A    between atoms: C_21  and  C_23
REMARK   12  A    between atoms: C_30  and  C_34
REMARK                            x       y       z     vdW  Elec       q    Type
REMARK                         _______ _______ _______ _____ _____    ______ ____
ROOT
ATOM      7  C   UNL     1      -6.435 -10.868  15.871  0.00  0.00    +0.000 C 
ATOM      8  C   UNL     1      -7.014 -10.807  17.306  0.00  0.00    +0.032 C 
ATOM      9  C   UNL     1      -5.464 -12.051  15.734  0.00  0.00    +0.012 C 
ATOM     10  C   UNL     1      -4.293 -11.962  16.730  0.00  0.00    +0.023 C 
ATOM     12  C   UNL     1      -4.769 -11.636  18.131  0.00  0.00    -0.073 C 
ATOM     13  C   UNL     1      -5.993 -11.133  18.370  0.00  0.00    -0.022 C 
ATOM     18  C   UNL     1      -3.821 -11.943  19.257  0.00  0.00    +0.039 C 
ENDROOT
BRANCH   7  11
ATOM     11  C   UNL     1      -7.539 -10.978  14.815  0.00  0.00    -0.013 C 
ATOM     16  C   UNL     1      -7.662  -9.672  14.036  0.00  0.00    +0.007 C 
ATOM     17  C   UNL     1      -7.260 -12.145  13.873  0.00  0.00    +0.007 C 
ENDBRANCH   7  11
BRANCH   8  14
ATOM     14  C   UNL     1      -7.632  -9.435  17.595  0.00  0.00    +0.112 C 
BRANCH  14   4
ATOM      3  O   UNL     1     -10.236  -9.361  16.388  0.00  0.00    -0.270 OA
ATOM      4  N   UNL     1      -8.887  -9.573  18.264  0.00  0.00    -0.311 N 
ATOM     20  C   UNL     1     -10.112  -9.525  17.599  0.00  0.00    +0.244 C 
ATOM     35  H   UNL     1      -8.861  -9.703  19.269  0.00  0.00    +0.149 HD
BRANCH  20  22
ATOM     22  C   UNL     1     -11.327  -9.659  18.442  0.00  0.00    +0.037 A 
ATOM     24  C   UNL     1     -11.207  -9.992  19.792  0.00  0.00    +0.014 A 
ATOM     25  C   UNL     1     -12.588  -9.449  17.886  0.00  0.00    +0.014 A 
ATOM     28  C   UNL     1     -12.348 -10.114  20.585  0.00  0.00    +0.019 A 
ATOM     29  C   UNL     1     -13.730  -9.573  18.678  0.00  0.00    +0.019 A 
ATOM     30  C   UNL     1     -13.610  -9.905  20.028  0.00  0.00    +0.052 A 
BRANCH  30  34
ATOM      6  N   UNL     1     -15.729 -10.134  21.498  0.00  0.00    -0.191 NA
ATOM     34  C   UNL     1     -14.779 -10.032  20.839  0.00  0.00    +0.099 C 
ENDBRANCH  30  34
ENDBRANCH  20  22
ENDBRANCH  14   4
ENDBRANCH   8  14
BRANCH  10  15
ATOM     15  C   UNL     1      -3.242 -10.951  16.259  0.00  0.00    +0.103 C 
BRANCH  15  19
ATOM      2  O   UNL     1      -2.038 -12.412  14.753  0.00  0.00    -0.276 OA
ATOM      5  N   UNL     1      -2.805 -10.358  13.984  0.00  0.00    -0.311 N 
ATOM     19  C   UNL     1      -2.623 -11.349  14.938  0.00  0.00    +0.214 C 
ATOM     36  H   UNL     1      -3.311  -9.512  14.230  0.00  0.00    +0.149 HD
BRANCH   5  21
ATOM     21  C   UNL     1      -2.315 -10.467  12.629  0.00  0.00    +0.139 C 
BRANCH  21  23
ATOM      1  F   UNL     1      -6.058  -8.567   8.877  0.00  0.00    -0.205 F 
ATOM     23  C   UNL     1      -3.313  -9.960  11.628  0.00  0.00    -0.030 A 
ATOM     26  C   UNL     1      -4.677 -10.002  11.921  0.00  0.00    +0.008 A 
ATOM     27  C   UNL     1      -2.878  -9.448  10.407  0.00  0.00    +0.008 A 
ATOM     31  C   UNL     1      -5.604  -9.532  10.992  0.00  0.00    +0.038 A 
ATOM     32  C   UNL     1      -3.806  -8.978   9.477  0.00  0.00    +0.038 A 
ATOM     33  C   UNL     1      -5.169  -9.020   9.769  0.00  0.00    +0.123 A 
ENDBRANCH  21  23
ENDBRANCH   5  21
ENDBRANCH  15  19
ENDBRANCH  10  15
TORSDOF 9
ENDMDL
MODEL 6
REMARK VINA RESULT:      -7.3      5.045      8.067
REMARK  Name = 38027552
REMARK  12 active torsions:
REMARK  status: ('A' for Active; 'I' for Inactive)
REMARK    1  A    between atoms: N_4  and  C_14
REMARK    2  A    between atoms: N_5  and  C_21
REMARK    3  A    between atoms: C_7  and  C_11
REMARK    4  A    between atoms: C_8  and  C_14
REMARK    5  A    between atoms: C_10  and  C_15
REMARK    6  A    between atoms: C_11  and  C_16
REMARK    7  A    between atoms: C_11  and  C_17
REMARK    8  A    between atoms: C_12  and  C_18
REMARK    9  A    between atoms: C_15  and  C_19
REMARK   10  A    between atoms: C_20  and  C_22
REMARK   11  A    between atoms: C_21  and  C_23
REMARK   12  A    between atoms: C_30  and  C_34
REMARK                            x       y       z     vdW  Elec       q    Type
REMARK                         _______ _______ _______ _____ _____    ______ ____
ROOT
ATOM      7  C   UNL     1      -7.260 -11.496  17.097  0.00  0.00    +0.000 C 
ATOM      8  C   UNL     1      -7.413 -11.917  18.580  0.00  0.00    +0.032 C 
ATOM      9  C   UNL     1      -6.052 -12.202  16.461  0.00  0.00    +0.012 C 
ATOM     10  C   UNL     1      -4.737 -11.884  17.197  0.00  0.00    +0.023 C 
ATOM     12  C   UNL     1      -4.886 -12.019  18.699  0.00  0.00    -0.073 C 
ATOM     13  C   UNL     1      -6.089 -12.046  19.298  0.00  0.00    -0.022 C 
ATOM     18  C   UNL     1      -3.618 -12.169  19.494  0.00  0.00    +0.039 C 
ENDROOT
BRANCH   7  11
ATOM     11  C   UNL     1      -8.523 -11.798  16.287  0.00  0.00    -0.013 C 
ATOM     16  C   UNL     1      -8.470 -11.092  14.936  0.00  0.00    +0.007 C 
ATOM     17  C   UNL     1      -8.691 -13.303  16.104  0.00  0.00    +0.007 C 
ENDBRANCH   7  11
BRANCH   8  14
ATOM     14  C   UNL     1      -8.314 -10.940  19.342  0.00  0.00    +0.112 C 
BRANCH  14   4
ATOM      3  O   UNL     1     -11.079 -10.182  19.187  0.00  0.00    -0.270 OA
ATOM      4  N   UNL     1      -8.886  -9.979  18.454  0.00  0.00    -0.311 N 
ATOM     20  C   UNL     1     -10.246  -9.668  18.445  0.00  0.00    +0.244 C 
ATOM     35  H   UNL     1      -8.257  -9.520  17.804  0.00  0.00    +0.149 HD
BRANCH  20  22
ATOM     22  C   UNL     1     -10.688  -8.666  17.442  0.00  0.00    +0.037 A 
ATOM     24  C   UNL     1     -12.045  -8.511  17.161  0.00  0.00    +0.014 A 
ATOM     25  C   UNL     1      -9.745  -7.878  16.782  0.00  0.00    +0.014 A 
ATOM     28  C   UNL     1     -12.460  -7.568  16.220  0.00  0.00    +0.019 A 
ATOM     29  C   UNL     1     -10.160  -6.935  15.841  0.00  0.00    +0.019 A 
ATOM     30  C   UNL     1     -11.518  -6.780  15.560  0.00  0.00    +0.052 A 
BRANCH  30  34
ATOM      6  N   UNL     1     -12.286  -5.031  13.813  0.00  0.00    -0.191 NA
ATOM     34  C   UNL     1     -11.942  -5.815  14.596  0.00  0.00    +0.099 C 
ENDBRANCH  30  34
ENDBRANCH  20  22
ENDBRANCH  14   4
ENDBRANCH   8  14
BRANCH  10  15
ATOM     15  C   UNL     1      -4.215 -10.493  16.820  0.00  0.00    +0.103 C 
BRANCH  15  19
ATOM      2  O   UNL     1      -1.904 -10.629  16.117  0.00  0.00    -0.276 OA
ATOM      5  N   UNL     1      -3.584 -10.540  14.514  0.00  0.00    -0.311 N 
ATOM     19  C   UNL     1      -3.091 -10.563  15.811  0.00  0.00    +0.214 C 
ATOM     36  H   UNL     1      -4.587 -10.491  14.360  0.00  0.00    +0.149 HD
BRANCH   5  21
ATOM     21  C   UNL     1      -2.735 -10.592  13.347  0.00  0.00    +0.139 C 
BRANCH  21  23
ATOM      1  F   UNL     1      -5.380  -8.739   8.734  0.00  0.00    -0.205 F 
ATOM     23  C   UNL     1      -3.441 -10.098  12.117  0.00  0.00    -0.030 A 
ATOM     26  C   UNL     1      -2.706  -9.754  10.982  0.00  0.00    +0.008 A 
ATOM     27  C   UNL     1      -4.830  -9.982  12.108  0.00  0.00    +0.008 A 
ATOM     31  C   UNL     1      -3.360  -9.294   9.839  0.00  0.00    +0.038 A 
ATOM     32  C   UNL     1      -5.486  -9.523  10.965  0.00  0.00    +0.038 A 
ATOM     33  C   UNL     1      -4.751  -9.179   9.831  0.00  0.00    +0.123 A 
ENDBRANCH  21  23
ENDBRANCH   5  21
ENDBRANCH  15  19
ENDBRANCH  10  15
TORSDOF 9
ENDMDL
MODEL 7
REMARK VINA RESULT:      -7.2     24.044     26.723
REMARK  Name = 38027552
REMARK  12 active torsions:
REMARK  status: ('A' for Active; 'I' for Inactive)
REMARK    1  A    between atoms: N_4  and  C_14
REMARK    2  A    between atoms: N_5  and  C_21
REMARK    3  A    between atoms: C_7  and  C_11
REMARK    4  A    between atoms: C_8  and  C_14
REMARK    5  A    between atoms: C_10  and  C_15
REMARK    6  A    between atoms: C_11  and  C_16
REMARK    7  A    between atoms: C_11  and  C_17
REMARK    8  A    between atoms: C_12  and  C_18
REMARK    9  A    between atoms: C_15  and  C_19
REMARK   10  A    between atoms: C_20  and  C_22
REMARK   11  A    between atoms: C_21  and  C_23
REMARK   12  A    between atoms: C_30  and  C_34
REMARK                            x       y       z     vdW  Elec       q    Type
REMARK                         _______ _______ _______ _____ _____    ______ ____
ROOT
ATOM      7  C   UNL     1       9.140   8.115   5.113  0.00  0.00    +0.000 C 
ATOM      8  C   UNL     1       8.766   8.842   6.429  0.00  0.00    +0.032 C 
ATOM      9  C   UNL     1       8.567   6.690   5.105  0.00  0.00    +0.012 C 
ATOM     10  C   UNL     1       9.079   5.849   6.290  0.00  0.00    +0.023 C 
ATOM     12  C   UNL     1       8.990   6.608   7.599  0.00  0.00    -0.073 C 
ATOM     13  C   UNL     1       8.836   7.943   7.641  0.00  0.00    -0.022 C 
ATOM     18  C   UNL     1       9.036   5.789   8.860  0.00  0.00    +0.039 C 
ENDROOT
BRANCH   7  11
ATOM     11  C   UNL     1       8.647   8.879   3.881  0.00  0.00    -0.013 C 
ATOM     16  C   UNL     1       8.885   8.061   2.616  0.00  0.00    +0.007 C 
ATOM     17  C   UNL     1       7.169   9.229   4.028  0.00  0.00    +0.007 C 
ENDBRANCH   7  11
BRANCH   8  14
ATOM     14  C   UNL     1       9.653  10.071   6.653  0.00  0.00    +0.112 C 
BRANCH  14   4
ATOM      3  O   UNL     1      11.891  10.477   8.404  0.00  0.00    -0.270 OA
ATOM      4  N   UNL     1      11.020   9.769   6.373  0.00  0.00    -0.311 N 
ATOM     20  C   UNL     1      12.051   9.998   7.284  0.00  0.00    +0.244 C 
ATOM     35  H   UNL     1      11.228   9.379   5.461  0.00  0.00    +0.149 HD
BRANCH  20  22
ATOM     22  C   UNL     1      13.422   9.655   6.830  0.00  0.00    +0.037 A 
ATOM     24  C   UNL     1      14.358  10.666   6.609  0.00  0.00    +0.014 A 
ATOM     25  C   UNL     1      13.776   8.321   6.627  0.00  0.00    +0.014 A 
ATOM     28  C   UNL     1      15.647  10.343   6.185  0.00  0.00    +0.019 A 
ATOM     29  C   UNL     1      15.065   7.998   6.202  0.00  0.00    +0.019 A 
ATOM     30  C   UNL     1      16.001   9.009   5.981  0.00  0.00    +0.052 A 
BRANCH  30  34
ATOM      6  N   UNL     1      18.393   8.409   5.192  0.00  0.00    -0.191 NA
ATOM     34  C   UNL     1      17.321   8.678   5.546  0.00  0.00    +0.099 C 
ENDBRANCH  30  34
ENDBRANCH  20  22
ENDBRANCH  14   4
ENDBRANCH   8  14
BRANCH  10  15
ATOM     15  C   UNL     1      10.508   5.354   6.039  0.00  0.00    +0.103 C 
BRANCH  15  19
ATOM      2  O   UNL     1      10.286   4.713   3.717  0.00  0.00    -0.276 OA
ATOM      5  N   UNL     1      11.929   6.238   4.331  0.00  0.00    -0.311 N 
ATOM     19  C   UNL     1      10.867   5.377   4.570  0.00  0.00    +0.214 C 
ATOM     36  H   UNL     1      12.341   6.752   5.104  0.00  0.00    +0.149 HD
BRANCH   5  21
ATOM     21  C   UNL     1      12.486   6.457   3.017  0.00  0.00    +0.139 C 
BRANCH  21  23
ATOM      1  F   UNL     1      15.097  11.431   2.638  0.00  0.00    -0.205 F 
ATOM     23  C   UNL     1      13.182   7.783   2.915  0.00  0.00    -0.030 A 
ATOM     26  C   UNL     1      12.492   8.958   3.218  0.00  0.00    +0.008 A 
ATOM     27  C   UNL     1      14.518   7.841   2.520  0.00  0.00    +0.008 A 
ATOM     31  C   UNL     1      13.139  10.190   3.124  0.00  0.00    +0.038 A 
ATOM     32  C   UNL     1      15.165   9.074   2.427  0.00  0.00    +0.038 A 
ATOM     33  C   UNL     1      14.476  10.248   2.728  0.00  0.00    +0.123 A 
ENDBRANCH  21  23
ENDBRANCH   5  21
ENDBRANCH  15  19
ENDBRANCH  10  15
TORSDOF 9
ENDMDL
MODEL 8
REMARK VINA RESULT:      -7.2     23.506     26.303
REMARK  Name = 38027552
REMARK  12 active torsions:
REMARK  status: ('A' for Active; 'I' for Inactive)
REMARK    1  A    between atoms: N_4  and  C_14
REMARK    2  A    between atoms: N_5  and  C_21
REMARK    3  A    between atoms: C_7  and  C_11
REMARK    4  A    between atoms: C_8  and  C_14
REMARK    5  A    between atoms: C_10  and  C_15
REMARK    6  A    between atoms: C_11  and  C_16
REMARK    7  A    between atoms: C_11  and  C_17
REMARK    8  A    between atoms: C_12  and  C_18
REMARK    9  A    between atoms: C_15  and  C_19
REMARK   10  A    between atoms: C_20  and  C_22
REMARK   11  A    between atoms: C_21  and  C_23
REMARK   12  A    between atoms: C_30  and  C_34
REMARK                            x       y       z     vdW  Elec       q    Type
REMARK                         _______ _______ _______ _____ _____    ______ ____
ROOT
ATOM      7  C   UNL     1       8.851   8.471   5.315  0.00  0.00    +0.000 C 
ATOM      8  C   UNL     1       8.762   7.938   6.767  0.00  0.00    +0.032 C 
ATOM      9  C   UNL     1       8.354   7.410   4.322  0.00  0.00    +0.012 C 
ATOM     10  C   UNL     1       9.163   6.103   4.413  0.00  0.00    +0.023 C 
ATOM     12  C   UNL     1       9.349   5.653   5.848  0.00  0.00    -0.073 C 
ATOM     13  C   UNL     1       9.152   6.483   6.887  0.00  0.00    -0.022 C 
ATOM     18  C   UNL     1       9.722   4.212   6.063  0.00  0.00    +0.039 C 
ENDROOT
BRANCH   7  11
ATOM     11  C   UNL     1       8.052   9.765   5.135  0.00  0.00    -0.013 C 
ATOM     16  C   UNL     1       8.988  10.930   4.828  0.00  0.00    +0.007 C 
ATOM     17  C   UNL     1       7.015   9.600   4.029  0.00  0.00    +0.007 C 
ENDBRANCH   7  11
BRANCH   8  14
ATOM     14  C   UNL     1       9.623   8.777   7.718  0.00  0.00    +0.112 C 
BRANCH  14   4
ATOM      3  O   UNL     1      11.474  10.950   7.416  0.00  0.00    -0.270 OA
ATOM      4  N   UNL     1      11.005   8.678   7.373  0.00  0.00    -0.311 N 
ATOM     20  C   UNL     1      11.838   9.790   7.247  0.00  0.00    +0.244 C 
ATOM     35  H   UNL     1      11.374   7.748   7.209  0.00  0.00    +0.149 HD
BRANCH  20  22
ATOM     22  C   UNL     1      13.245   9.520   6.856  0.00  0.00    +0.037 A 
ATOM     24  C   UNL     1      13.673   8.208   6.648  0.00  0.00    +0.014 A 
ATOM     25  C   UNL     1      14.139  10.578   6.693  0.00  0.00    +0.014 A 
ATOM     28  C   UNL     1      14.993   7.955   6.277  0.00  0.00    +0.019 A 
ATOM     29  C   UNL     1      15.460  10.325   6.324  0.00  0.00    +0.019 A 
ATOM     30  C   UNL     1      15.888   9.013   6.116  0.00  0.00    +0.052 A 
BRANCH  30  34
ATOM      6  N   UNL     1      18.340   8.544   5.430  0.00  0.00    -0.191 NA
ATOM     34  C   UNL     1      17.241   8.754   5.738  0.00  0.00    +0.099 C 
ENDBRANCH  30  34
ENDBRANCH  20  22
ENDBRANCH  14   4
ENDBRANCH   8  14
BRANCH  10  15
ATOM     15  C   UNL     1      10.515   6.240   3.702  0.00  0.00    +0.103 C 
BRANCH  15  19
ATOM      2  O   UNL     1      10.093   5.287   1.518  0.00  0.00    -0.276 OA
ATOM      5  N   UNL     1      11.570   4.225   2.965  0.00  0.00    -0.311 N 
ATOM     19  C   UNL     1      10.679   5.223   2.595  0.00  0.00    +0.214 C 
ATOM     36  H   UNL     1      12.013   4.261   3.878  0.00  0.00    +0.149 HD
BRANCH   5  21
ATOM     21  C   UNL     1      11.918   3.119   2.103  0.00  0.00    +0.139 C 
BRANCH  21  23
ATOM      1  F   UNL     1      16.244   4.365  -1.280  0.00  0.00    -0.205 F 
ATOM     23  C   UNL     1      13.072   3.451   1.201  0.00  0.00    -0.030 A 
ATOM     26  C   UNL     1      12.852   3.671  -0.159  0.00  0.00    +0.008 A 
ATOM     27  C   UNL     1      14.361   3.540   1.723  0.00  0.00    +0.008 A 
ATOM     31  C   UNL     1      13.924   3.979  -0.998  0.00  0.00    +0.038 A 
ATOM     32  C   UNL     1      15.433   3.849   0.884  0.00  0.00    +0.038 A 
ATOM     33  C   UNL     1      15.215   4.068  -0.476  0.00  0.00    +0.123 A 
ENDBRANCH  21  23
ENDBRANCH   5  21
ENDBRANCH  15  19
ENDBRANCH  10  15
TORSDOF 9
ENDMDL
MODEL 9
REMARK VINA RESULT:      -7.1      4.873      8.252
REMARK  Name = 38027552
REMARK  12 active torsions:
REMARK  status: ('A' for Active; 'I' for Inactive)
REMARK    1  A    between atoms: N_4  and  C_14
REMARK    2  A    between atoms: N_5  and  C_21
REMARK    3  A    between atoms: C_7  and  C_11
REMARK    4  A    between atoms: C_8  and  C_14
REMARK    5  A    between atoms: C_10  and  C_15
REMARK    6  A    between atoms: C_11  and  C_16
REMARK    7  A    between atoms: C_11  and  C_17
REMARK    8  A    between atoms: C_12  and  C_18
REMARK    9  A    between atoms: C_15  and  C_19
REMARK   10  A    between atoms: C_20  and  C_22
REMARK   11  A    between atoms: C_21  and  C_23
REMARK   12  A    between atoms: C_30  and  C_34
REMARK                            x       y       z     vdW  Elec       q    Type
REMARK                         _______ _______ _______ _____ _____    ______ ____
ROOT
ATOM      7  C   UNL     1      -3.584 -11.838  12.463  0.00  0.00    +0.000 C 
ATOM      8  C   UNL     1      -2.343 -10.939  12.230  0.00  0.00    +0.032 C 
ATOM      9  C   UNL     1      -4.251 -12.188  11.125  0.00  0.00    +0.012 C 
ATOM     10  C   UNL     1      -4.695 -10.933  10.349  0.00  0.00    +0.023 C 
ATOM     12  C   UNL     1      -3.605  -9.882  10.307  0.00  0.00    -0.073 C 
ATOM     13  C   UNL     1      -2.555  -9.909  11.147  0.00  0.00    -0.022 C 
ATOM     18  C   UNL     1      -3.726  -8.823   9.246  0.00  0.00    +0.039 C 
ENDROOT
BRANCH   7  11
ATOM     11  C   UNL     1      -3.223 -13.123  13.214  0.00  0.00    -0.013 C 
ATOM     16  C   UNL     1      -4.414 -13.614  14.031  0.00  0.00    +0.007 C 
ATOM     17  C   UNL     1      -2.757 -14.197  12.238  0.00  0.00    +0.007 C 
ENDBRANCH   7  11
BRANCH   8  14
ATOM     14  C   UNL     1      -1.917 -10.239  13.525  0.00  0.00    +0.112 C 
BRANCH  14   4
ATOM      3  O   UNL     1      -1.588 -10.898  16.300  0.00  0.00    -0.270 OA
ATOM      4  N   UNL     1      -2.948 -10.321  14.510  0.00  0.00    -0.311 N 
ATOM     20  C   UNL     1      -2.701 -10.649  15.843  0.00  0.00    +0.244 C 
ATOM     35  H   UNL     1      -3.896 -10.136  14.201  0.00  0.00    +0.149 HD
BRANCH  20  22
ATOM     22  C   UNL     1      -3.885 -10.719  16.736  0.00  0.00    +0.037 A 
ATOM     24  C   UNL     1      -5.087 -10.125  16.350  0.00  0.00    +0.014 A 
ATOM     25  C   UNL     1      -3.797 -11.381  17.960  0.00  0.00    +0.014 A 
ATOM     28  C   UNL     1      -6.200 -10.193  17.188  0.00  0.00    +0.019 A 
ATOM     29  C   UNL     1      -4.910 -11.448  18.799  0.00  0.00    +0.019 A 
ATOM     30  C   UNL     1      -6.111 -10.854  18.413  0.00  0.00    +0.052 A 
BRANCH  30  34
ATOM      6  N   UNL     1      -8.176 -10.980  19.971  0.00  0.00    -0.191 NA
ATOM     34  C   UNL     1      -7.251 -10.923  19.272  0.00  0.00    +0.099 C 
ENDBRANCH  30  34
ENDBRANCH  20  22
ENDBRANCH  14   4
ENDBRANCH   8  14
BRANCH  10  15
ATOM     15  C   UNL     1      -5.992 -10.356  10.928  0.00  0.00    +0.103 C 
BRANCH  15  19
ATOM      2  O   UNL     1      -7.355 -12.347  10.757  0.00  0.00    -0.276 OA
ATOM      5  N   UNL     1      -7.179 -11.254  12.799  0.00  0.00    -0.311 N 
ATOM     19  C   UNL     1      -6.911 -11.437  11.450  0.00  0.00    +0.214 C 
ATOM     36  H   UNL     1      -6.758 -10.472  13.292  0.00  0.00    +0.149 HD
BRANCH   5  21
ATOM     21  C   UNL     1      -8.031 -12.137  13.561  0.00  0.00    +0.139 C 
BRANCH  21  23
ATOM      1  F   UNL     1     -10.615  -9.448  17.780  0.00  0.00    -0.205 F 
ATOM     23  C   UNL     1      -8.721 -11.419  14.686  0.00  0.00    -0.030 A 
ATOM     26  C   UNL     1      -9.247 -12.144  15.756  0.00  0.00    +0.008 A 
ATOM     27  C   UNL     1      -8.834 -10.030  14.662  0.00  0.00    +0.008 A 
ATOM     31  C   UNL     1      -9.887 -11.478  16.801  0.00  0.00    +0.038 A 
ATOM     32  C   UNL     1      -9.475  -9.364  15.707  0.00  0.00    +0.038 A 
ATOM     33  C   UNL     1     -10.001 -10.087  16.777  0.00  0.00    +0.123 A 
ENDBRANCH  21  23
ENDBRANCH   5  21
ENDBRANCH  15  19
ENDBRANCH  10  15
TORSDOF 9
ENDMDL
MODEL 10
REMARK VINA RESULT:      -7.1      3.700      5.107
REMARK  Name = 38027552
REMARK  12 active torsions:
REMARK  status: ('A' for Active; 'I' for Inactive)
REMARK    1  A    between atoms: N_4  and  C_14
REMARK    2  A    between atoms: N_5  and  C_21
REMARK    3  A    between atoms: C_7  and  C_11
REMARK    4  A    between atoms: C_8  and  C_14
REMARK    5  A    between atoms: C_10  and  C_15
REMARK    6  A    between atoms: C_11  and  C_16
REMARK    7  A    between atoms: C_11  and  C_17
REMARK    8  A    between atoms: C_12  and  C_18
REMARK    9  A    between atoms: C_15  and  C_19
REMARK   10  A    between atoms: C_20  and  C_22
REMARK   11  A    between atoms: C_21  and  C_23
REMARK   12  A    between atoms: C_30  and  C_34
REMARK                            x       y       z     vdW  Elec       q    Type
REMARK                         _______ _______ _______ _____ _____    ______ ____
ROOT
ATOM      7  C   UNL     1      -5.234 -10.602  10.663  0.00  0.00    +0.000 C 
ATOM      8  C   UNL     1      -4.588  -9.727   9.559  0.00  0.00    +0.032 C 
ATOM      9  C   UNL     1      -4.785 -10.129  12.054  0.00  0.00    +0.012 C 
ATOM     10  C   UNL     1      -3.255 -10.183  12.222  0.00  0.00    +0.023 C 
ATOM     12  C   UNL     1      -2.537  -9.573  11.035  0.00  0.00    -0.073 C 
ATOM     13  C   UNL     1      -3.152  -9.365   9.858  0.00  0.00    -0.022 C 
ATOM     18  C   UNL     1      -1.104  -9.166  11.247  0.00  0.00    +0.039 C 
ENDROOT
BRANCH   7  11
ATOM     11  C   UNL     1      -6.763 -10.586  10.578  0.00  0.00    -0.013 C 
ATOM     16  C   UNL     1      -7.370 -11.323  11.768  0.00  0.00    +0.007 C 
ATOM     17  C   UNL     1      -7.278  -9.152  10.512  0.00  0.00    +0.007 C 
ENDBRANCH   7  11
BRANCH   8  14
ATOM     14  C   UNL     1      -4.667 -10.415   8.192  0.00  0.00    +0.112 C 
BRANCH  14   4
ATOM      3  O   UNL     1      -7.212 -11.225   7.139  0.00  0.00    -0.270 OA
ATOM      4  N   UNL     1      -5.496  -9.672   7.297  0.00  0.00    -0.311 N 
ATOM     20  C   UNL     1      -6.724 -10.141   6.832  0.00  0.00    +0.244 C 
ATOM     35  H   UNL     1      -5.151  -8.768   6.993  0.00  0.00    +0.149 HD
BRANCH  20  22
ATOM     22  C   UNL     1      -7.452  -9.259   5.884  0.00  0.00    +0.037 A 
ATOM     24  C   UNL     1      -8.221  -8.199   6.367  0.00  0.00    +0.014 A 
ATOM     25  C   UNL     1      -7.365  -9.488   4.512  0.00  0.00    +0.014 A 
ATOM     28  C   UNL     1      -8.902  -7.369   5.477  0.00  0.00    +0.019 A 
ATOM     29  C   UNL     1      -8.047  -8.658   3.621  0.00  0.00    +0.019 A 
ATOM     30  C   UNL     1      -8.816  -7.599   4.104  0.00  0.00    +0.052 A 
BRANCH  30  34
ATOM      6  N   UNL     1     -10.082  -6.060   2.451  0.00  0.00    -0.191 NA
ATOM     34  C   UNL     1      -9.515  -6.750   3.192  0.00  0.00    +0.099 C 
ENDBRANCH  30  34
ENDBRANCH  20  22
ENDBRANCH  14   4
ENDBRANCH   8  14
BRANCH  10  15
ATOM     15  C   UNL     1      -2.777 -11.617  12.475  0.00  0.00    +0.103 C 
BRANCH  15  19
ATOM      2  O   UNL     1      -2.582 -13.072  14.398  0.00  0.00    -0.276 OA
ATOM      5  N   UNL     1      -2.760 -10.777  14.713  0.00  0.00    -0.311 N 
ATOM     19  C   UNL     1      -2.693 -11.935  13.951  0.00  0.00    +0.214 C 
ATOM     36  H   UNL     1      -2.845  -9.876  14.251  0.00  0.00    +0.149 HD
BRANCH   5  21
ATOM     21  C   UNL     1      -2.706 -10.779  16.157  0.00  0.00    +0.139 C 
BRANCH  21  23
ATOM      1  F   UNL     1      -7.811 -10.182  18.457  0.00  0.00    -0.205 F 
ATOM     23  C   UNL     1      -4.067 -10.620  16.771  0.00  0.00    -0.030 A 
ATOM     26  C   UNL     1      -5.063  -9.923  16.086  0.00  0.00    +0.008 A 
ATOM     27  C   UNL     1      -4.336 -11.168  18.024  0.00  0.00    +0.008 A 
ATOM     31  C   UNL     1      -6.327  -9.774  16.655  0.00  0.00    +0.038 A 
ATOM     32  C   UNL     1      -5.601 -11.020  18.594  0.00  0.00    +0.038 A 
ATOM     33  C   UNL     1      -6.597 -10.323  17.910  0.00  0.00    +0.123 A 
ENDBRANCH  21  23
ENDBRANCH   5  21
ENDBRANCH  15  19
ENDBRANCH  10  15
TORSDOF 9
ENDMDL
