MODEL 1
REMARK VINA RESULT:      -7.4      0.000      0.000
REMARK  Name = 26743984
REMARK  4 active torsions:
REMARK  status: ('A' for Active; 'I' for Inactive)
REMARK    1  A    between atoms: O_2  and  C_12
REMARK    2  A    between atoms: N_4  and  C_8
REMARK    3  A    between atoms: C_9  and  C_15
REMARK    4  A    between atoms: C_18  and  C_19
REMARK                            x       y       z     vdW  Elec       q    Type
REMARK                         _______ _______ _______ _____ _____    ______ ____
ROOT
ATOM      4  N   UNL     1      13.444   8.556  19.499  0.00  0.00    -0.286 NA
ATOM      9  C   UNL     1      13.940   7.505  18.587  0.00  0.00    +0.149 C 
ATOM     10  C   UNL     1      12.565   9.411  18.706  0.00  0.00    +0.116 C 
ATOM     11  C   UNL     1      13.911   8.152  17.190  0.00  0.00    +0.061 C 
ATOM     12  C   UNL     1      13.344   9.548  17.412  0.00  0.00    +0.130 C 
ENDROOT
BRANCH   4   8
ATOM      1  O   UNL     1      10.338   7.191  21.972  0.00  0.00    -0.380 OA
ATOM      8  C   UNL     1      12.774   8.023  20.683  0.00  0.00    +0.062 C 
ATOM     13  C   UNL     1      11.738   9.024  21.204  0.00  0.00    +0.047 C 
ATOM     14  C   UNL     1      12.101   6.682  20.378  0.00  0.00    +0.047 C 
ATOM     16  C   UNL     1      10.953   8.418  22.363  0.00  0.00    +0.161 C 
ATOM     17  C   UNL     1      11.296   6.206  21.583  0.00  0.00    +0.161 C 
ENDBRANCH   4   8
BRANCH   9  15
ATOM      3  O   UNL     1      15.806   5.967  18.239  0.00  0.00    -0.336 OA
ATOM      5  N   UNL     1      16.116   7.414  19.919  0.00  0.00    -0.190 NA
ATOM      6  N   UNL     1      17.069   5.679  18.772  0.00  0.00    -0.056 NA
ATOM     15  C   UNL     1      15.315   7.000  18.971  0.00  0.00    +0.245 A 
ATOM     18  C   UNL     1      17.179   6.574  19.758  0.00  0.00    +0.204 A 
BRANCH  18  19
ATOM      7  N   UNL     1      19.525   7.791  22.375  0.00  0.00    -0.263 NA
ATOM     19  C   UNL     1      18.339   6.656  20.600  0.00  0.00    +0.041 A 
ATOM     20  C   UNL     1      19.374   5.736  20.486  0.00  0.00    +0.014 A 
ATOM     21  C   UNL     1      18.461   7.657  21.551  0.00  0.00    +0.122 A 
ATOM     22  C   UNL     1      20.485   5.841  21.315  0.00  0.00    +0.020 A 
ATOM     23  C   UNL     1      20.512   6.878  22.235  0.00  0.00    +0.111 A 
ENDBRANCH  18  19
ENDBRANCH   9  15
BRANCH  12   2
ATOM      2  O   UNL     1      12.510   9.929  16.335  0.00  0.00    -0.390 OA
ATOM     24  H   UNL     1      12.626  10.886  16.202  0.00  0.00    +0.210 HD
ENDBRANCH  12   2
TORSDOF 4
ENDMDL
MODEL 2
REMARK VINA RESULT:      -6.1     32.189     33.147
REMARK  Name = 26743984
REMARK  4 active torsions:
REMARK  status: ('A' for Active; 'I' for Inactive)
REMARK    1  A    between atoms: O_2  and  C_12
REMARK    2  A    between atoms: N_4  and  C_8
REMARK    3  A    between atoms: C_9  and  C_15
REMARK    4  A    between atoms: C_18  and  C_19
REMARK                            x       y       z     vdW  Elec       q    Type
REMARK                         _______ _______ _______ _____ _____    ______ ____
ROOT
ATOM      4  N   UNL     1     -15.431   3.536  31.904  0.00  0.00    -0.286 NA
ATOM      9  C   UNL     1     -14.651   2.536  31.146  0.00  0.00    +0.149 C 
ATOM     10  C   UNL     1     -15.113   3.327  33.314  0.00  0.00    +0.116 C 
ATOM     11  C   UNL     1     -14.461   1.362  32.125  0.00  0.00    +0.061 C 
ATOM     12  C   UNL     1     -15.128   1.813  33.417  0.00  0.00    +0.130 C 
ENDROOT
BRANCH   4   8
ATOM      1  O   UNL     1     -15.572   7.732  31.884  0.00  0.00    -0.380 OA
ATOM      8  C   UNL     1     -15.173   4.910  31.480  0.00  0.00    +0.062 C 
ATOM     13  C   UNL     1     -16.486   5.613  31.123  0.00  0.00    +0.047 C 
ATOM     14  C   UNL     1     -14.437   5.695  32.569  0.00  0.00    +0.047 C 
ATOM     16  C   UNL     1     -16.231   7.081  30.798  0.00  0.00    +0.161 C 
ATOM     17  C   UNL     1     -14.295   7.159  32.164  0.00  0.00    +0.161 C 
ENDBRANCH   4   8
BRANCH   9  15
ATOM      3  O   UNL     1     -16.010   0.946  29.884  0.00  0.00    -0.336 OA
ATOM      5  N   UNL     1     -15.361   2.732  28.701  0.00  0.00    -0.190 NA
ATOM      6  N   UNL     1     -16.543   0.776  28.599  0.00  0.00    -0.056 NA
ATOM     15  C   UNL     1     -15.330   2.121  29.858  0.00  0.00    +0.245 A 
ATOM     18  C   UNL     1     -16.116   1.870  27.962  0.00  0.00    +0.204 A 
BRANCH  18  19
ATOM      7  N   UNL     1     -17.237   1.313  24.460  0.00  0.00    -0.263 NA
ATOM     19  C   UNL     1     -16.428   2.132  26.586  0.00  0.00    +0.041 A 
ATOM     20  C   UNL     1     -16.242   3.395  26.036  0.00  0.00    +0.014 A 
ATOM     21  C   UNL     1     -16.924   1.133  25.763  0.00  0.00    +0.122 A 
ATOM     22  C   UNL     1     -16.553   3.619  24.699  0.00  0.00    +0.020 A 
ATOM     23  C   UNL     1     -17.043   2.554  23.961  0.00  0.00    +0.111 A 
ENDBRANCH  18  19
ENDBRANCH   9  15
BRANCH  12   2
ATOM      2  O   UNL     1     -14.404   1.357  34.543  0.00  0.00    -0.390 OA
ATOM     24  H   UNL     1     -15.042   0.950  35.155  0.00  0.00    +0.210 HD
ENDBRANCH  12   2
TORSDOF 4
ENDMDL
MODEL 3
REMARK VINA RESULT:      -6.0     14.779     17.875
REMARK  Name = 26743984
REMARK  4 active torsions:
REMARK  status: ('A' for Active; 'I' for Inactive)
REMARK    1  A    between atoms: O_2  and  C_12
REMARK    2  A    between atoms: N_4  and  C_8
REMARK    3  A    between atoms: C_9  and  C_15
REMARK    4  A    between atoms: C_18  and  C_19
REMARK                            x       y       z     vdW  Elec       q    Type
REMARK                         _______ _______ _______ _____ _____    ______ ____
ROOT
ATOM      4  N   UNL     1      12.085   4.708   1.765  0.00  0.00    -0.286 NA
ATOM      9  C   UNL     1      11.435   5.964   2.190  0.00  0.00    +0.149 C 
ATOM     10  C   UNL     1      11.509   4.362   0.468  0.00  0.00    +0.116 C 
ATOM     11  C   UNL     1      10.053   5.941   1.509  0.00  0.00    +0.061 C 
ATOM     12  C   UNL     1      10.038   4.658   0.689  0.00  0.00    +0.130 C 
ENDROOT
BRANCH   4   8
ATOM      1  O   UNL     1      15.945   5.023   0.142  0.00  0.00    -0.380 OA
ATOM      8  C   UNL     1      13.542   4.802   1.712  0.00  0.00    +0.062 C 
ATOM     13  C   UNL     1      14.125   3.619   0.933  0.00  0.00    +0.047 C 
ATOM     14  C   UNL     1      13.987   6.121   1.075  0.00  0.00    +0.047 C 
ATOM     16  C   UNL     1      15.633   3.782   0.773  0.00  0.00    +0.161 C 
ATOM     17  C   UNL     1      15.503   6.145   0.907  0.00  0.00    +0.161 C 
ENDBRANCH   4   8
BRANCH   9  15
ATOM      3  O   UNL     1      12.269   6.890   4.291  0.00  0.00    -0.336 OA
ATOM      5  N   UNL     1      10.495   5.545   4.526  0.00  0.00    -0.190 NA
ATOM      6  N   UNL     1      11.988   6.853   5.663  0.00  0.00    -0.056 NA
ATOM     15  C   UNL     1      11.344   6.094   3.695  0.00  0.00    +0.245 A 
ATOM     18  C   UNL     1      10.929   6.040   5.721  0.00  0.00    +0.204 A 
BRANCH  18  19
ATOM      7  N   UNL     1       9.096   6.434   8.932  0.00  0.00    -0.263 NA
ATOM     19  C   UNL     1      10.281   5.703   6.956  0.00  0.00    +0.041 A 
ATOM     20  C   UNL     1      10.199   4.384   7.386  0.00  0.00    +0.014 A 
ATOM     21  C   UNL     1       9.719   6.684   7.758  0.00  0.00    +0.122 A 
ATOM     22  C   UNL     1       9.565   4.088   8.588  0.00  0.00    +0.020 A 
ATOM     23  C   UNL     1       9.035   5.140   9.317  0.00  0.00    +0.111 A 
ENDBRANCH  18  19
ENDBRANCH   9  15
BRANCH  12   2
ATOM      2  O   UNL     1       9.351   4.849  -0.532  0.00  0.00    -0.390 OA
ATOM     24  H   UNL     1       8.434   5.090  -0.316  0.00  0.00    +0.210 HD
ENDBRANCH  12   2
TORSDOF 4
ENDMDL
MODEL 4
REMARK VINA RESULT:      -6.0     25.165     28.385
REMARK  Name = 26743984
REMARK  4 active torsions:
REMARK  status: ('A' for Active; 'I' for Inactive)
REMARK    1  A    between atoms: O_2  and  C_12
REMARK    2  A    between atoms: N_4  and  C_8
REMARK    3  A    between atoms: C_9  and  C_15
REMARK    4  A    between atoms: C_18  and  C_19
REMARK                            x       y       z     vdW  Elec       q    Type
REMARK                         _______ _______ _______ _____ _____    ______ ____
ROOT
ATOM      4  N   UNL     1      -3.282 -10.471  14.145  0.00  0.00    -0.286 NA
ATOM      9  C   UNL     1      -3.628 -11.119  15.427  0.00  0.00    +0.149 C 
ATOM     10  C   UNL     1      -1.823 -10.435  14.079  0.00  0.00    +0.116 C 
ATOM     11  C   UNL     1      -2.437 -10.813  16.355  0.00  0.00    +0.061 C 
ATOM     12  C   UNL     1      -1.456 -10.029  15.493  0.00  0.00    +0.130 C 
ENDROOT
BRANCH   4   8
ATOM      1  O   UNL     1      -3.955 -11.503  10.131  0.00  0.00    -0.380 OA
ATOM      8  C   UNL     1      -3.870 -11.138  12.985  0.00  0.00    +0.062 C 
ATOM     13  C   UNL     1      -4.506 -10.109  12.045  0.00  0.00    +0.047 C 
ATOM     14  C   UNL     1      -2.821 -11.960  12.231  0.00  0.00    +0.047 C 
ATOM     16  C   UNL     1      -5.010 -10.791  10.777  0.00  0.00    +0.161 C 
ATOM     17  C   UNL     1      -3.418 -12.539  10.953  0.00  0.00    +0.161 C 
ENDBRANCH   4   8
BRANCH   9  15
ATOM      3  O   UNL     1      -5.111 -10.749  17.332  0.00  0.00    -0.336 OA
ATOM      5  N   UNL     1      -5.974 -10.115  15.365  0.00  0.00    -0.190 NA
ATOM      6  N   UNL     1      -6.389 -10.246  17.611  0.00  0.00    -0.056 NA
ATOM     15  C   UNL     1      -4.947 -10.635  15.988  0.00  0.00    +0.245 A 
ATOM     18  C   UNL     1      -6.833  -9.892  16.402  0.00  0.00    +0.204 A 
BRANCH  18  19
ATOM      7  N   UNL     1     -10.014  -8.941  14.726  0.00  0.00    -0.263 NA
ATOM     19  C   UNL     1      -8.129  -9.313  16.194  0.00  0.00    +0.041 A 
ATOM     20  C   UNL     1      -8.759  -8.586  17.198  0.00  0.00    +0.014 A 
ATOM     21  C   UNL     1      -8.793  -9.461  14.987  0.00  0.00    +0.122 A 
ATOM     22  C   UNL     1     -10.015  -8.036  16.968  0.00  0.00    +0.020 A 
ATOM     23  C   UNL     1     -10.595  -8.241  15.726  0.00  0.00    +0.111 A 
ENDBRANCH  18  19
ENDBRANCH   9  15
BRANCH  12   2
ATOM      2  O   UNL     1      -0.121 -10.376  15.809  0.00  0.00    -0.390 OA
ATOM     24  H   UNL     1       0.453  -9.953  15.147  0.00  0.00    +0.210 HD
ENDBRANCH  12   2
TORSDOF 4
ENDMDL
MODEL 5
REMARK VINA RESULT:      -6.0     25.406     28.579
REMARK  Name = 26743984
REMARK  4 active torsions:
REMARK  status: ('A' for Active; 'I' for Inactive)
REMARK    1  A    between atoms: O_2  and  C_12
REMARK    2  A    between atoms: N_4  and  C_8
REMARK    3  A    between atoms: C_9  and  C_15
REMARK    4  A    between atoms: C_18  and  C_19
REMARK                            x       y       z     vdW  Elec       q    Type
REMARK                         _______ _______ _______ _____ _____    ______ ____
ROOT
ATOM      4  N   UNL     1      -3.480 -10.572  14.349  0.00  0.00    -0.286 NA
ATOM      9  C   UNL     1      -3.825 -11.220  15.631  0.00  0.00    +0.149 C 
ATOM     10  C   UNL     1      -2.021 -10.559  14.271  0.00  0.00    +0.116 C 
ATOM     11  C   UNL     1      -2.621 -10.936  16.550  0.00  0.00    +0.061 C 
ATOM     12  C   UNL     1      -1.636 -10.164  15.683  0.00  0.00    +0.130 C 
ENDROOT
BRANCH   4   8
ATOM      1  O   UNL     1      -4.312 -11.468  10.332  0.00  0.00    -0.380 OA
ATOM      8  C   UNL     1      -4.087 -11.226  13.192  0.00  0.00    +0.062 C 
ATOM     13  C   UNL     1      -4.844 -10.203  12.338  0.00  0.00    +0.047 C 
ATOM     14  C   UNL     1      -3.031 -11.939  12.343  0.00  0.00    +0.047 C 
ATOM     16  C   UNL     1      -5.373 -10.861  11.068  0.00  0.00    +0.161 C 
ATOM     17  C   UNL     1      -3.661 -12.500  11.073  0.00  0.00    +0.161 C 
ENDBRANCH   4   8
BRANCH   9  15
ATOM      3  O   UNL     1      -5.583  -9.527  15.733  0.00  0.00    -0.336 OA
ATOM      5  N   UNL     1      -5.907 -11.265  17.107  0.00  0.00    -0.190 NA
ATOM      6  N   UNL     1      -6.788  -9.275  16.403  0.00  0.00    -0.056 NA
ATOM     15  C   UNL     1      -5.132 -10.718  16.206  0.00  0.00    +0.245 A 
ATOM     18  C   UNL     1      -6.910 -10.344  17.194  0.00  0.00    +0.204 A 
BRANCH  18  19
ATOM      7  N   UNL     1      -8.929 -11.552  20.074  0.00  0.00    -0.263 NA
ATOM     19  C   UNL     1      -8.022 -10.524  18.083  0.00  0.00    +0.041 A 
ATOM     20  C   UNL     1      -9.235  -9.884  17.852  0.00  0.00    +0.014 A 
ATOM     21  C   UNL     1      -7.920 -11.340  19.198  0.00  0.00    +0.122 A 
ATOM     22  C   UNL     1     -10.295 -10.078  18.731  0.00  0.00    +0.020 A 
ATOM     23  C   UNL     1     -10.092 -10.914  19.818  0.00  0.00    +0.111 A 
ENDBRANCH  18  19
ENDBRANCH   9  15
BRANCH  12   2
ATOM      2  O   UNL     1      -0.304 -10.531  15.986  0.00  0.00    -0.390 OA
ATOM     24  H   UNL     1      -0.205 -10.497  16.953  0.00  0.00    +0.210 HD
ENDBRANCH  12   2
TORSDOF 4
ENDMDL
MODEL 6
REMARK VINA RESULT:      -6.0      1.607      2.044
REMARK  Name = 26743984
REMARK  4 active torsions:
REMARK  status: ('A' for Active; 'I' for Inactive)
REMARK    1  A    between atoms: O_2  and  C_12
REMARK    2  A    between atoms: N_4  and  C_8
REMARK    3  A    between atoms: C_9  and  C_15
REMARK    4  A    between atoms: C_18  and  C_19
REMARK                            x       y       z     vdW  Elec       q    Type
REMARK                         _______ _______ _______ _____ _____    ______ ____
ROOT
ATOM      4  N   UNL     1      13.359   8.928  19.629  0.00  0.00    -0.286 NA
ATOM      9  C   UNL     1      14.411   7.912  19.423  0.00  0.00    +0.149 C 
ATOM     10  C   UNL     1      12.499   8.879  18.449  0.00  0.00    +0.116 C 
ATOM     11  C   UNL     1      14.554   7.799  17.893  0.00  0.00    +0.061 C 
ATOM     12  C   UNL     1      13.513   8.755  17.328  0.00  0.00    +0.130 C 
ENDROOT
BRANCH   4   8
ATOM      1  O   UNL     1      10.091   8.826  22.263  0.00  0.00    -0.380 OA
ATOM      8  C   UNL     1      12.607   8.737  20.867  0.00  0.00    +0.062 C 
ATOM     13  C   UNL     1      11.957  10.053  21.305  0.00  0.00    +0.047 C 
ATOM     14  C   UNL     1      11.538   7.654  20.701  0.00  0.00    +0.047 C 
ATOM     16  C   UNL     1      11.073   9.827  22.526  0.00  0.00    +0.161 C 
ATOM     17  C   UNL     1      10.677   7.561  21.957  0.00  0.00    +0.161 C 
ENDBRANCH   4   8
BRANCH   9  15
ATOM      3  O   UNL     1      16.055   9.585  20.105  0.00  0.00    -0.336 OA
ATOM      5  N   UNL     1      16.574   7.493  20.713  0.00  0.00    -0.190 NA
ATOM      6  N   UNL     1      17.277   9.669  20.785  0.00  0.00    -0.056 NA
ATOM     15  C   UNL     1      15.712   8.271  20.108  0.00  0.00    +0.245 A 
ATOM     18  C   UNL     1      17.516   8.396  21.112  0.00  0.00    +0.204 A 
BRANCH  18  19
ATOM      7  N   UNL     1      20.125   6.208  22.608  0.00  0.00    -0.263 NA
ATOM     19  C   UNL     1      18.686   7.992  21.838  0.00  0.00    +0.041 A 
ATOM     20  C   UNL     1      19.502   8.929  22.462  0.00  0.00    +0.014 A 
ATOM     21  C   UNL     1      19.037   6.655  21.940  0.00  0.00    +0.122 A 
ATOM     22  C   UNL     1      20.629   8.507  23.159  0.00  0.00    +0.020 A 
ATOM     23  C   UNL     1      20.894   7.148  23.202  0.00  0.00    +0.111 A 
ENDBRANCH  18  19
ENDBRANCH   9  15
BRANCH  12   2
ATOM      2  O   UNL     1      12.932   8.228  16.151  0.00  0.00    -0.390 OA
ATOM     24  H   UNL     1      12.488   8.961  15.692  0.00  0.00    +0.210 HD
ENDBRANCH  12   2
TORSDOF 4
ENDMDL
MODEL 7
REMARK VINA RESULT:      -5.9     27.028     28.496
REMARK  Name = 26743984
REMARK  4 active torsions:
REMARK  status: ('A' for Active; 'I' for Inactive)
REMARK    1  A    between atoms: O_2  and  C_12
REMARK    2  A    between atoms: N_4  and  C_8
REMARK    3  A    between atoms: C_9  and  C_15
REMARK    4  A    between atoms: C_18  and  C_19
REMARK                            x       y       z     vdW  Elec       q    Type
REMARK                         _______ _______ _______ _____ _____    ______ ____
ROOT
ATOM      4  N   UNL     1      -7.242 -11.031  17.518  0.00  0.00    -0.286 NA
ATOM      9  C   UNL     1      -5.975 -10.278  17.420  0.00  0.00    +0.149 C 
ATOM     10  C   UNL     1      -7.486 -11.248  18.941  0.00  0.00    +0.116 C 
ATOM     11  C   UNL     1      -5.183 -10.677  18.680  0.00  0.00    +0.061 C 
ATOM     12  C   UNL     1      -6.104 -11.619  19.443  0.00  0.00    +0.130 C 
ENDROOT
BRANCH   4   8
ATOM      1  O   UNL     1     -10.802  -8.848  17.082  0.00  0.00    -0.380 OA
ATOM      8  C   UNL     1      -8.362 -10.361  16.862  0.00  0.00    +0.062 C 
ATOM     13  C   UNL     1      -9.688 -10.999  17.288  0.00  0.00    +0.047 C 
ATOM     14  C   UNL     1      -8.374  -8.864  17.182  0.00  0.00    +0.047 C 
ATOM     16  C   UNL     1     -10.863 -10.222  16.702  0.00  0.00    +0.161 C 
ATOM     17  C   UNL     1      -9.621  -8.206  16.602  0.00  0.00    +0.161 C 
ENDBRANCH   4   8
BRANCH   9  15
ATOM      3  O   UNL     1      -4.349 -11.608  16.172  0.00  0.00    -0.336 OA
ATOM      5  N   UNL     1      -5.281  -9.955  14.984  0.00  0.00    -0.190 NA
ATOM      6  N   UNL     1      -3.780 -11.679  14.893  0.00  0.00    -0.056 NA
ATOM     15  C   UNL     1      -5.221 -10.567  16.139  0.00  0.00    +0.245 A 
ATOM     18  C   UNL     1      -4.381 -10.672  14.252  0.00  0.00    +0.204 A 
BRANCH  18  19
ATOM      7  N   UNL     1      -4.917  -9.610  10.729  0.00  0.00    -0.263 NA
ATOM     19  C   UNL     1      -4.104 -10.357  12.880  0.00  0.00    +0.041 A 
ATOM     20  C   UNL     1      -2.821 -10.480  12.361  0.00  0.00    +0.014 A 
ATOM     21  C   UNL     1      -5.109  -9.922  12.031  0.00  0.00    +0.122 A 
ATOM     22  C   UNL     1      -2.583 -10.168  11.026  0.00  0.00    +0.020 A 
ATOM     23  C   UNL     1      -3.656  -9.741  10.260  0.00  0.00    +0.111 A 
ENDBRANCH  18  19
ENDBRANCH   9  15
BRANCH  12   2
ATOM      2  O   UNL     1      -5.982 -11.421  20.838  0.00  0.00    -0.390 OA
ATOM     24  H   UNL     1      -6.147 -12.278  21.269  0.00  0.00    +0.210 HD
ENDBRANCH  12   2
TORSDOF 4
ENDMDL
MODEL 8
REMARK VINA RESULT:      -5.8     25.866     28.735
REMARK  Name = 26743984
REMARK  4 active torsions:
REMARK  status: ('A' for Active; 'I' for Inactive)
REMARK    1  A    between atoms: O_2  and  C_12
REMARK    2  A    between atoms: N_4  and  C_8
REMARK    3  A    between atoms: C_9  and  C_15
REMARK    4  A    between atoms: C_18  and  C_19
REMARK                            x       y       z     vdW  Elec       q    Type
REMARK                         _______ _______ _______ _____ _____    ______ ____
ROOT
ATOM      4  N   UNL     1      -8.953 -10.526  17.434  0.00  0.00    -0.286 NA
ATOM      9  C   UNL     1      -7.889 -10.181  18.398  0.00  0.00    +0.149 C 
ATOM     10  C   UNL     1     -10.142 -10.838  18.222  0.00  0.00    +0.116 C 
ATOM     11  C   UNL     1      -8.255 -10.954  19.680  0.00  0.00    +0.061 C 
ATOM     12  C   UNL     1      -9.560 -11.666  19.352  0.00  0.00    +0.130 C 
ENDROOT
BRANCH   4   8
ATOM      1  O   UNL     1     -11.069  -7.709  15.149  0.00  0.00    -0.380 OA
ATOM      8  C   UNL     1      -9.204  -9.474  16.451  0.00  0.00    +0.062 C 
ATOM     13  C   UNL     1     -10.190  -9.963  15.386  0.00  0.00    +0.047 C 
ATOM     14  C   UNL     1      -9.743  -8.209  17.124  0.00  0.00    +0.047 C 
ATOM     16  C   UNL     1     -10.547  -8.828  14.433  0.00  0.00    +0.161 C 
ATOM     17  C   UNL     1     -10.124  -7.170  16.074  0.00  0.00    +0.161 C 
ENDBRANCH   4   8
BRANCH   9  15
ATOM      3  O   UNL     1      -5.729 -11.283  18.697  0.00  0.00    -0.336 OA
ATOM      5  N   UNL     1      -5.930 -10.176  16.762  0.00  0.00    -0.190 NA
ATOM      6  N   UNL     1      -4.515 -11.458  18.021  0.00  0.00    -0.056 NA
ATOM     15  C   UNL     1      -6.505 -10.518  17.887  0.00  0.00    +0.245 A 
ATOM     18  C   UNL     1      -4.711 -10.776  16.889  0.00  0.00    +0.204 A 
BRANCH  18  19
ATOM      7  N   UNL     1      -3.170 -10.556  13.512  0.00  0.00    -0.263 NA
ATOM     19  C   UNL     1      -3.711 -10.675  15.865  0.00  0.00    +0.041 A 
ATOM     20  C   UNL     1      -2.361 -10.602  16.187  0.00  0.00    +0.014 A 
ATOM     21  C   UNL     1      -4.062 -10.649  14.525  0.00  0.00    +0.122 A 
ATOM     22  C   UNL     1      -1.414 -10.505  15.173  0.00  0.00    +0.020 A 
ATOM     23  C   UNL     1      -1.867 -10.486  13.863  0.00  0.00    +0.111 A 
ENDBRANCH  18  19
ENDBRANCH   9  15
BRANCH  12   2
ATOM      2  O   UNL     1     -10.416 -11.693  20.478  0.00  0.00    -0.390 OA
ATOM     24  H   UNL     1     -10.967 -10.891  20.443  0.00  0.00    +0.210 HD
ENDBRANCH  12   2
TORSDOF 4
ENDMDL
MODEL 9
REMARK VINA RESULT:      -5.8     17.082     20.116
REMARK  Name = 26743984
REMARK  4 active torsions:
REMARK  status: ('A' for Active; 'I' for Inactive)
REMARK    1  A    between atoms: O_2  and  C_12
REMARK    2  A    between atoms: N_4  and  C_8
REMARK    3  A    between atoms: C_9  and  C_15
REMARK    4  A    between atoms: C_18  and  C_19
REMARK                            x       y       z     vdW  Elec       q    Type
REMARK                         _______ _______ _______ _____ _____    ______ ____
ROOT
ATOM      4  N   UNL     1      13.347   4.403  -0.398  0.00  0.00    -0.286 NA
ATOM      9  C   UNL     1      13.518   3.952   0.998  0.00  0.00    +0.149 C 
ATOM     10  C   UNL     1      14.557   4.007  -1.113  0.00  0.00    +0.116 C 
ATOM     11  C   UNL     1      15.042   3.943   1.223  0.00  0.00    +0.061 C 
ATOM     12  C   UNL     1      15.641   4.360  -0.113  0.00  0.00    +0.130 C 
ENDROOT
BRANCH   4   8
ATOM      1  O   UNL     1      10.665   3.292  -3.432  0.00  0.00    -0.380 OA
ATOM      8  C   UNL     1      12.137   3.877  -1.029  0.00  0.00    +0.062 C 
ATOM     13  C   UNL     1      11.452   4.968  -1.858  0.00  0.00    +0.047 C 
ATOM     14  C   UNL     1      12.457   2.669  -1.913  0.00  0.00    +0.047 C 
ATOM     16  C   UNL     1      10.261   4.389  -2.614  0.00  0.00    +0.161 C 
ATOM     17  C   UNL     1      11.210   2.218  -2.666  0.00  0.00    +0.161 C 
ENDBRANCH   4   8
BRANCH   9  15
ATOM      3  O   UNL     1      13.425   5.958   2.389  0.00  0.00    -0.336 OA
ATOM      5  N   UNL     1      11.605   4.661   2.532  0.00  0.00    -0.190 NA
ATOM      6  N   UNL     1      12.564   6.595   3.292  0.00  0.00    -0.056 NA
ATOM     15  C   UNL     1      12.784   4.829   1.989  0.00  0.00    +0.245 A 
ATOM     18  C   UNL     1      11.513   5.769   3.323  0.00  0.00    +0.204 A 
BRANCH  18  19
ATOM      7  N   UNL     1       8.290   7.236   4.459  0.00  0.00    -0.263 NA
ATOM     19  C   UNL     1      10.356   6.023   4.132  0.00  0.00    +0.041 A 
ATOM     20  C   UNL     1      10.158   5.348   5.332  0.00  0.00    +0.014 A 
ATOM     21  C   UNL     1       9.402   6.950   3.743  0.00  0.00    +0.122 A 
ATOM     22  C   UNL     1       9.027   5.616   6.095  0.00  0.00    +0.020 A 
ATOM     23  C   UNL     1       8.132   6.561   5.619  0.00  0.00    +0.111 A 
ENDBRANCH  18  19
ENDBRANCH   9  15
BRANCH  12   2
ATOM      2  O   UNL     1      16.841   3.656  -0.369  0.00  0.00    -0.390 OA
ATOM     24  H   UNL     1      16.610   2.716  -0.471  0.00  0.00    +0.210 HD
ENDBRANCH  12   2
TORSDOF 4
ENDMDL
MODEL 10
REMARK VINA RESULT:      -5.8     25.606     28.295
REMARK  Name = 26743984
REMARK  4 active torsions:
REMARK  status: ('A' for Active; 'I' for Inactive)
REMARK    1  A    between atoms: O_2  and  C_12
REMARK    2  A    between atoms: N_4  and  C_8
REMARK    3  A    between atoms: C_9  and  C_15
REMARK    4  A    between atoms: C_18  and  C_19
REMARK                            x       y       z     vdW  Elec       q    Type
REMARK                         _______ _______ _______ _____ _____    ______ ____
ROOT
ATOM      4  N   UNL     1      -3.635 -11.352  14.945  0.00  0.00    -0.286 NA
ATOM      9  C   UNL     1      -3.159 -10.467  13.863  0.00  0.00    +0.149 C 
ATOM     10  C   UNL     1      -2.774 -11.099  16.097  0.00  0.00    +0.116 C 
ATOM     11  C   UNL     1      -1.663 -10.251  14.162  0.00  0.00    +0.061 C 
ATOM     12  C   UNL     1      -1.404 -11.017  15.452  0.00  0.00    +0.130 C 
ENDROOT
BRANCH   4   8
ATOM      1  O   UNL     1      -7.106 -10.812  17.245  0.00  0.00    -0.380 OA
ATOM      8  C   UNL     1      -5.049 -11.166  15.262  0.00  0.00    +0.062 C 
ATOM     13  C   UNL     1      -5.557 -12.319  16.133  0.00  0.00    +0.047 C 
ATOM     14  C   UNL     1      -5.284  -9.830  15.972  0.00  0.00    +0.047 C 
ATOM     16  C   UNL     1      -6.997 -12.062  16.566  0.00  0.00    +0.161 C 
ATOM     17  C   UNL     1      -6.739  -9.711  16.413  0.00  0.00    +0.161 C 
ENDBRANCH   4   8
BRANCH   9  15
ATOM      3  O   UNL     1      -3.073 -12.350  12.309  0.00  0.00    -0.336 OA
ATOM      5  N   UNL     1      -3.892 -10.466  11.418  0.00  0.00    -0.190 NA
ATOM      6  N   UNL     1      -3.384 -12.653  10.977  0.00  0.00    -0.056 NA
ATOM     15  C   UNL     1      -3.403 -11.044  12.485  0.00  0.00    +0.245 A 
ATOM     18  C   UNL     1      -3.861 -11.492  10.519  0.00  0.00    +0.204 A 
BRANCH  18  19
ATOM      7  N   UNL     1      -5.193  -9.865   7.451  0.00  0.00    -0.263 NA
ATOM     19  C   UNL     1      -4.317 -11.324   9.168  0.00  0.00    +0.041 A 
ATOM     20  C   UNL     1      -4.336 -12.393   8.280  0.00  0.00    +0.014 A 
ATOM     21  C   UNL     1      -4.751 -10.091   8.709  0.00  0.00    +0.122 A 
ATOM     22  C   UNL     1      -4.783 -12.200   6.977  0.00  0.00    +0.020 A 
ATOM     23  C   UNL     1      -5.197 -10.928   6.616  0.00  0.00    +0.111 A 
ENDBRANCH  18  19
ENDBRANCH   9  15
BRANCH  12   2
ATOM      2  O   UNL     1      -0.480 -10.326  16.270  0.00  0.00    -0.390 OA
ATOM     24  H   UNL     1       0.225 -10.954  16.507  0.00  0.00    +0.210 HD
ENDBRANCH  12   2
TORSDOF 4
ENDMDL
