MODEL 1
REMARK VINA RESULT:      -6.1      0.000      0.000
REMARK  Name = 11943400
REMARK  4 active torsions:
REMARK  status: ('A' for Active; 'I' for Inactive)
REMARK    1  A    between atoms: N_4  and  C_12
REMARK    2  A    between atoms: C_6  and  C_12
REMARK    3  A    between atoms: C_8  and  C_13
REMARK    4  A    between atoms: C_14  and  C_16
REMARK                            x       y       z     vdW  Elec       q    Type
REMARK                         _______ _______ _______ _____ _____    ______ ____
ROOT
ATOM      3  N   UNL     1      10.887   6.757   5.732  0.00  0.00    -0.297 NA
ATOM      5  C   UNL     1       8.801   7.237   7.213  0.00  0.00    +0.008 C 
ATOM      6  C   UNL     1       9.682   6.124   5.134  0.00  0.00    +0.074 C 
ATOM      7  C   UNL     1       8.464   6.251   6.077  0.00  0.00    +0.025 C 
ATOM      8  C   UNL     1       9.958   6.658   8.058  0.00  0.00    +0.081 C 
ATOM      9  C   UNL     1       9.329   8.528   6.560  0.00  0.00    +0.020 C 
ATOM     10  C   UNL     1      11.105   6.248   7.110  0.00  0.00    +0.101 C 
ATOM     11  C   UNL     1      10.641   8.218   5.814  0.00  0.00    +0.085 C 
ENDROOT
BRANCH   8  13
ATOM     13  C   UNL     1       9.518   5.528   8.894  0.00  0.00    -0.101 C 
ATOM     15  C   UNL     1       9.159   4.608   9.575  0.00  0.00    +0.004 C 
ENDBRANCH   8  13
BRANCH   6  12
ATOM     12  C   UNL     1       9.931   4.673   4.719  0.00  0.00    +0.123 C 
BRANCH  12   4
ATOM      1  O   UNL     1      10.264   4.080   1.930  0.00  0.00    -0.267 OA
ATOM      4  N   UNL     1      11.204   4.592   3.983  0.00  0.00    -0.307 N 
ATOM     14  C   UNL     1      11.239   4.299   2.643  0.00  0.00    +0.279 C 
ATOM     20  H   UNL     1      12.067   4.752   4.494  0.00  0.00    +0.149 HD
BRANCH  14  16
ATOM      2  O   UNL     1      13.287   5.368   2.056  0.00  0.00    -0.458 OA
ATOM     16  C   UNL     1      12.601   4.228   2.054  0.00  0.00    +0.189 A 
ATOM     17  C   UNL     1      13.242   3.186   1.520  0.00  0.00    +0.054 A 
ATOM     18  C   UNL     1      14.495   3.715   1.129  0.00  0.00    +0.042 A 
ATOM     19  C   UNL     1      14.472   5.046   1.476  0.00  0.00    +0.196 A 
ENDBRANCH  14  16
ENDBRANCH  12   4
ENDBRANCH   6  12
TORSDOF 4
ENDMDL
MODEL 2
REMARK VINA RESULT:      -5.5     13.588     16.119
REMARK  Name = 11943400
REMARK  4 active torsions:
REMARK  status: ('A' for Active; 'I' for Inactive)
REMARK    1  A    between atoms: N_4  and  C_12
REMARK    2  A    between atoms: C_6  and  C_12
REMARK    3  A    between atoms: C_8  and  C_13
REMARK    4  A    between atoms: C_14  and  C_16
REMARK                            x       y       z     vdW  Elec       q    Type
REMARK                         _______ _______ _______ _____ _____    ______ ____
ROOT
ATOM      3  N   UNL     1      12.379   8.039  20.212  0.00  0.00    -0.297 NA
ATOM      5  C   UNL     1      13.519  10.160  19.223  0.00  0.00    +0.008 C 
ATOM      6  C   UNL     1      13.845   7.990  20.458  0.00  0.00    +0.074 C 
ATOM      7  C   UNL     1      14.566   9.151  19.737  0.00  0.00    +0.025 C 
ATOM      8  C   UNL     1      12.628   9.467  18.167  0.00  0.00    +0.081 C 
ATOM      9  C   UNL     1      12.606  10.520  20.410  0.00  0.00    +0.020 C 
ATOM     10  C   UNL     1      12.106   8.139  18.756  0.00  0.00    +0.101 C 
ATOM     11  C   UNL     1      11.847   9.260  20.866  0.00  0.00    +0.085 C 
ENDROOT
BRANCH   8  13
ATOM     13  C   UNL     1      13.343   9.252  16.898  0.00  0.00    -0.101 C 
ATOM     15  C   UNL     1      13.925   9.077  15.864  0.00  0.00    +0.004 C 
ENDBRANCH   8  13
BRANCH   6  12
ATOM     12  C   UNL     1      14.452   6.633  20.099  0.00  0.00    +0.123 C 
BRANCH  12   4
ATOM      1  O   UNL     1      16.663   5.710  18.517  0.00  0.00    -0.267 OA
ATOM      4  N   UNL     1      15.869   6.617  20.495  0.00  0.00    -0.307 N 
ATOM     14  C   UNL     1      16.843   6.150  19.650  0.00  0.00    +0.279 C 
ATOM     20  H   UNL     1      16.116   6.956  21.420  0.00  0.00    +0.149 HD
BRANCH  14  16
ATOM      2  O   UNL     1      18.501   7.210  20.994  0.00  0.00    -0.458 OA
ATOM     16  C   UNL     1      18.221   6.174  20.207  0.00  0.00    +0.189 A 
ATOM     17  C   UNL     1      19.222   5.309  20.036  0.00  0.00    +0.054 A 
ATOM     18  C   UNL     1      20.280   5.849  20.805  0.00  0.00    +0.042 A 
ATOM     19  C   UNL     1      19.791   7.006  21.368  0.00  0.00    +0.196 A 
ENDBRANCH  14  16
ENDBRANCH  12   4
ENDBRANCH   6  12
TORSDOF 4
ENDMDL
MODEL 3
REMARK VINA RESULT:      -5.4     22.391     24.990
REMARK  Name = 11943400
REMARK  4 active torsions:
REMARK  status: ('A' for Active; 'I' for Inactive)
REMARK    1  A    between atoms: N_4  and  C_12
REMARK    2  A    between atoms: C_6  and  C_12
REMARK    3  A    between atoms: C_8  and  C_13
REMARK    4  A    between atoms: C_14  and  C_16
REMARK                            x       y       z     vdW  Elec       q    Type
REMARK                         _______ _______ _______ _____ _____    ______ ____
ROOT
ATOM      3  N   UNL     1      -5.880 -10.099  15.924  0.00  0.00    -0.297 NA
ATOM      5  C   UNL     1      -6.707 -11.447  17.992  0.00  0.00    +0.008 C 
ATOM      6  C   UNL     1      -6.148 -11.510  15.537  0.00  0.00    +0.074 C 
ATOM      7  C   UNL     1      -6.479 -12.370  16.778  0.00  0.00    +0.025 C 
ATOM      8  C   UNL     1      -5.394 -10.697  18.309  0.00  0.00    +0.081 C 
ATOM      9  C   UNL     1      -7.738 -10.382  17.571  0.00  0.00    +0.020 C 
ATOM     10  C   UNL     1      -4.869 -10.048  17.011  0.00  0.00    +0.101 C 
ATOM     11  C   UNL     1      -7.144  -9.521  16.441  0.00  0.00    +0.085 C 
ENDROOT
BRANCH   8  13
ATOM     13  C   UNL     1      -4.387 -11.583  18.916  0.00  0.00    -0.101 C 
ATOM     15  C   UNL     1      -3.566 -12.305  19.411  0.00  0.00    +0.004 C 
ENDBRANCH   8  13
BRANCH   6  12
ATOM     12  C   UNL     1      -5.010 -12.115  14.713  0.00  0.00    +0.123 C 
BRANCH  12   4
ATOM      1  O   UNL     1      -2.836 -10.459  13.833  0.00  0.00    -0.267 OA
ATOM      4  N   UNL     1      -4.912 -11.403  13.428  0.00  0.00    -0.307 N 
ATOM     14  C   UNL     1      -3.818 -10.637  13.116  0.00  0.00    +0.279 C 
ATOM     20  H   UNL     1      -5.682 -11.485  12.771  0.00  0.00    +0.149 HD
BRANCH  14  16
ATOM      2  O   UNL     1      -4.977  -9.239  11.573  0.00  0.00    -0.458 OA
ATOM     16  C   UNL     1      -3.882  -9.962  11.794  0.00  0.00    +0.189 A 
ATOM     17  C   UNL     1      -3.002  -9.973  10.791  0.00  0.00    +0.054 A 
ATOM     18  C   UNL     1      -3.599  -9.158   9.799  0.00  0.00    +0.042 A 
ATOM     19  C   UNL     1      -4.799  -8.736  10.324  0.00  0.00    +0.196 A 
ENDBRANCH  14  16
ENDBRANCH  12   4
ENDBRANCH   6  12
TORSDOF 4
ENDMDL
MODEL 4
REMARK VINA RESULT:      -5.4     14.982     17.739
REMARK  Name = 11943400
REMARK  4 active torsions:
REMARK  status: ('A' for Active; 'I' for Inactive)
REMARK    1  A    between atoms: N_4  and  C_12
REMARK    2  A    between atoms: C_6  and  C_12
REMARK    3  A    between atoms: C_8  and  C_13
REMARK    4  A    between atoms: C_14  and  C_16
REMARK                            x       y       z     vdW  Elec       q    Type
REMARK                         _______ _______ _______ _____ _____    ______ ____
ROOT
ATOM      3  N   UNL     1      13.808   8.161  18.507  0.00  0.00    -0.297 NA
ATOM      5  C   UNL     1      14.028   7.134  20.889  0.00  0.00    +0.008 C 
ATOM      6  C   UNL     1      14.121   9.229  19.494  0.00  0.00    +0.074 C 
ATOM      7  C   UNL     1      14.091   8.675  20.937  0.00  0.00    +0.025 C 
ATOM      8  C   UNL     1      12.703   6.704  20.222  0.00  0.00    +0.081 C 
ATOM      9  C   UNL     1      15.167   6.656  19.969  0.00  0.00    +0.020 C 
ATOM     10  C   UNL     1      12.553   7.463  18.885  0.00  0.00    +0.101 C 
ATOM     11  C   UNL     1      14.914   7.173  18.540  0.00  0.00    +0.085 C 
ENDROOT
BRANCH   8  13
ATOM     13  C   UNL     1      11.544   6.927  21.102  0.00  0.00    -0.101 C 
ATOM     15  C   UNL     1      10.600   7.109  21.820  0.00  0.00    +0.004 C 
ENDBRANCH   8  13
BRANCH   6  12
ATOM     12  C   UNL     1      13.216  10.452  19.336  0.00  0.00    +0.123 C 
BRANCH  12   4
ATOM      1  O   UNL     1      12.226  12.988  20.247  0.00  0.00    -0.267 OA
ATOM      4  N   UNL     1      12.542  10.724  20.616  0.00  0.00    -0.307 N 
ATOM     14  C   UNL     1      12.110  11.984  20.944  0.00  0.00    +0.279 C 
ATOM     20  H   UNL     1      12.407   9.953  21.264  0.00  0.00    +0.149 HD
BRANCH  14  16
ATOM      2  O   UNL     1      11.462  10.985  23.009  0.00  0.00    -0.458 OA
ATOM     16  C   UNL     1      11.474  12.099  22.282  0.00  0.00    +0.189 A 
ATOM     17  C   UNL     1      10.912  13.159  22.867  0.00  0.00    +0.054 A 
ATOM     18  C   UNL     1      10.482  12.672  24.124  0.00  0.00    +0.042 A 
ATOM     19  C   UNL     1      10.840  11.344  24.162  0.00  0.00    +0.196 A 
ENDBRANCH  14  16
ENDBRANCH  12   4
ENDBRANCH   6  12
TORSDOF 4
ENDMDL
MODEL 5
REMARK VINA RESULT:      -5.3     21.754     24.969
REMARK  Name = 11943400
REMARK  4 active torsions:
REMARK  status: ('A' for Active; 'I' for Inactive)
REMARK    1  A    between atoms: N_4  and  C_12
REMARK    2  A    between atoms: C_6  and  C_12
REMARK    3  A    between atoms: C_8  and  C_13
REMARK    4  A    between atoms: C_14  and  C_16
REMARK                            x       y       z     vdW  Elec       q    Type
REMARK                         _______ _______ _______ _____ _____    ______ ____
ROOT
ATOM      3  N   UNL     1      17.137  -2.214  25.275  0.00  0.00    -0.297 NA
ATOM      5  C   UNL     1      18.127  -2.720  22.921  0.00  0.00    +0.008 C 
ATOM      6  C   UNL     1      18.621  -2.288  25.352  0.00  0.00    +0.074 C 
ATOM      7  C   UNL     1      19.223  -2.751  24.006  0.00  0.00    +0.025 C 
ATOM      8  C   UNL     1      17.025  -3.738  23.288  0.00  0.00    +0.081 C 
ATOM      9  C   UNL     1      17.478  -1.324  22.964  0.00  0.00    +0.020 C 
ATOM     10  C   UNL     1      16.587  -3.488  24.747  0.00  0.00    +0.101 C 
ATOM     11  C   UNL     1      16.784  -1.130  24.325  0.00  0.00    +0.085 C 
ENDROOT
BRANCH   8  13
ATOM     13  C   UNL     1      17.469  -5.128  23.088  0.00  0.00    -0.101 C 
ATOM     15  C   UNL     1      17.830  -6.260  22.924  0.00  0.00    +0.004 C 
ENDBRANCH   8  13
BRANCH   6  12
ATOM     12  C   UNL     1      19.101  -3.153  26.518  0.00  0.00    +0.123 C 
BRANCH  12   4
ATOM      1  O   UNL     1      17.378  -4.626  28.279  0.00  0.00    -0.267 OA
ATOM      4  N   UNL     1      18.495  -2.663  27.767  0.00  0.00    -0.307 N 
ATOM     14  C   UNL     1      17.683  -3.463  28.530  0.00  0.00    +0.279 C 
ATOM     20  H   UNL     1      18.685  -1.707  28.053  0.00  0.00    +0.149 HD
BRANCH  14  16
ATOM      2  O   UNL     1      17.640  -1.622  30.043  0.00  0.00    -0.458 OA
ATOM     16  C   UNL     1      17.128  -2.813  29.745  0.00  0.00    +0.189 A 
ATOM     17  C   UNL     1      16.186  -3.248  30.586  0.00  0.00    +0.054 A 
ATOM     18  C   UNL     1      16.076  -2.212  31.545  0.00  0.00    +0.042 A 
ATOM     19  C   UNL     1      16.982  -1.247  31.171  0.00  0.00    +0.196 A 
ENDBRANCH  14  16
ENDBRANCH  12   4
ENDBRANCH   6  12
TORSDOF 4
ENDMDL
MODEL 6
REMARK VINA RESULT:      -5.3     35.818     37.549
REMARK  Name = 11943400
REMARK  4 active torsions:
REMARK  status: ('A' for Active; 'I' for Inactive)
REMARK    1  A    between atoms: N_4  and  C_12
REMARK    2  A    between atoms: C_6  and  C_12
REMARK    3  A    between atoms: C_8  and  C_13
REMARK    4  A    between atoms: C_14  and  C_16
REMARK                            x       y       z     vdW  Elec       q    Type
REMARK                         _______ _______ _______ _____ _____    ______ ____
ROOT
ATOM      3  N   UNL     1     -14.542   3.561  33.949  0.00  0.00    -0.297 NA
ATOM      5  C   UNL     1     -15.351   5.608  32.559  0.00  0.00    +0.008 C 
ATOM      6  C   UNL     1     -13.705   3.710  32.729  0.00  0.00    +0.074 C 
ATOM      7  C   UNL     1     -14.267   4.812  31.803  0.00  0.00    +0.025 C 
ATOM      8  C   UNL     1     -16.528   4.665  32.893  0.00  0.00    +0.081 C 
ATOM      9  C   UNL     1     -14.742   6.052  33.902  0.00  0.00    +0.020 C 
ATOM     10  C   UNL     1     -15.970   3.399  33.576  0.00  0.00    +0.101 C 
ATOM     11  C   UNL     1     -14.411   4.806  34.745  0.00  0.00    +0.085 C 
ENDROOT
BRANCH   8  13
ATOM     13  C   UNL     1     -17.321   4.329  31.698  0.00  0.00    -0.101 C 
ATOM     15  C   UNL     1     -17.967   4.054  30.725  0.00  0.00    +0.004 C 
ENDBRANCH   8  13
BRANCH   6  12
ATOM     12  C   UNL     1     -13.516   2.386  31.987  0.00  0.00    +0.123 C 
BRANCH  12   4
ATOM      1  O   UNL     1     -15.331   0.421  30.942  0.00  0.00    -0.267 OA
ATOM      4  N   UNL     1     -14.231   2.445  30.701  0.00  0.00    -0.307 N 
ATOM     14  C   UNL     1     -15.078   1.441  30.306  0.00  0.00    +0.279 C 
ATOM     20  H   UNL     1     -14.079   3.250  30.101  0.00  0.00    +0.149 HD
BRANCH  14  16
ATOM      2  O   UNL     1     -16.338   0.578  28.476  0.00  0.00    -0.458 OA
ATOM     16  C   UNL     1     -15.702   1.637  28.972  0.00  0.00    +0.189 A 
ATOM     17  C   UNL     1     -15.720   2.721  28.194  0.00  0.00    +0.054 A 
ATOM     18  C   UNL     1     -16.458   2.315  27.055  0.00  0.00    +0.042 A 
ATOM     19  C   UNL     1     -16.810   1.004  27.276  0.00  0.00    +0.196 A 
ENDBRANCH  14  16
ENDBRANCH  12   4
ENDBRANCH   6  12
TORSDOF 4
ENDMDL
MODEL 7
REMARK VINA RESULT:      -5.3     21.441     23.528
REMARK  Name = 11943400
REMARK  4 active torsions:
REMARK  status: ('A' for Active; 'I' for Inactive)
REMARK    1  A    between atoms: N_4  and  C_12
REMARK    2  A    between atoms: C_6  and  C_12
REMARK    3  A    between atoms: C_8  and  C_13
REMARK    4  A    between atoms: C_14  and  C_16
REMARK                            x       y       z     vdW  Elec       q    Type
REMARK                         _______ _______ _______ _____ _____    ______ ____
ROOT
ATOM      3  N   UNL     1      -5.769 -10.736   9.562  0.00  0.00    -0.297 NA
ATOM      5  C   UNL     1      -4.919  -8.394  10.315  0.00  0.00    +0.008 C 
ATOM      6  C   UNL     1      -6.088 -10.518  10.998  0.00  0.00    +0.074 C 
ATOM      7  C   UNL     1      -5.448  -9.208  11.513  0.00  0.00    +0.025 C 
ATOM      8  C   UNL     1      -3.795  -9.193   9.619  0.00  0.00    +0.081 C 
ATOM      9  C   UNL     1      -6.071  -8.269   9.301  0.00  0.00    +0.020 C 
ATOM     10  C   UNL     1      -4.306 -10.622   9.337  0.00  0.00    +0.101 C 
ATOM     11  C   UNL     1      -6.441  -9.670   8.779  0.00  0.00    +0.085 C 
ENDROOT
BRANCH   8  13
ATOM     13  C   UNL     1      -2.556  -9.209  10.415  0.00  0.00    -0.101 C 
ATOM     15  C   UNL     1      -1.547  -9.222  11.064  0.00  0.00    +0.004 C 
ENDBRANCH   8  13
BRANCH   6  12
ATOM     12  C   UNL     1      -5.708 -11.717  11.868  0.00  0.00    +0.123 C 
BRANCH  12   4
ATOM      1  O   UNL     1      -2.989 -12.495  12.360  0.00  0.00    -0.267 OA
ATOM      4  N   UNL     1      -4.850 -11.261  12.974  0.00  0.00    -0.307 N 
ATOM     14  C   UNL     1      -3.559 -11.704  13.107  0.00  0.00    +0.279 C 
ATOM     20  H   UNL     1      -5.238 -10.608  13.648  0.00  0.00    +0.149 HD
BRANCH  14  16
ATOM      2  O   UNL     1      -3.420 -11.381  15.464  0.00  0.00    -0.458 OA
ATOM     16  C   UNL     1      -2.833 -11.171  14.289  0.00  0.00    +0.189 A 
ATOM     17  C   UNL     1      -1.674 -10.512  14.348  0.00  0.00    +0.054 A 
ATOM     18  C   UNL     1      -1.488 -10.263  15.729  0.00  0.00    +0.042 A 
ATOM     19  C   UNL     1      -2.578 -10.811  16.365  0.00  0.00    +0.196 A 
ENDBRANCH  14  16
ENDBRANCH  12   4
ENDBRANCH   6  12
TORSDOF 4
ENDMDL
MODEL 8
REMARK VINA RESULT:      -5.3      2.230      7.148
REMARK  Name = 11943400
REMARK  4 active torsions:
REMARK  status: ('A' for Active; 'I' for Inactive)
REMARK    1  A    between atoms: N_4  and  C_12
REMARK    2  A    between atoms: C_6  and  C_12
REMARK    3  A    between atoms: C_8  and  C_13
REMARK    4  A    between atoms: C_14  and  C_16
REMARK                            x       y       z     vdW  Elec       q    Type
REMARK                         _______ _______ _______ _____ _____    ______ ____
ROOT
ATOM      3  N   UNL     1      12.679   5.626   1.135  0.00  0.00    -0.297 NA
ATOM      5  C   UNL     1      14.200   3.690   0.289  0.00  0.00    +0.008 C 
ATOM      6  C   UNL     1      12.564   4.455   2.044  0.00  0.00    +0.074 C 
ATOM      7  C   UNL     1      13.325   3.236   1.475  0.00  0.00    +0.025 C 
ATOM      8  C   UNL     1      13.286   4.210  -0.842  0.00  0.00    +0.081 C 
ATOM      9  C   UNL     1      15.040   4.889   0.771  0.00  0.00    +0.020 C 
ATOM     10  C   UNL     1      12.302   5.241  -0.249  0.00  0.00    +0.101 C 
ATOM     11  C   UNL     1      14.099   6.056   1.124  0.00  0.00    +0.085 C 
ENDROOT
BRANCH   8  13
ATOM     13  C   UNL     1      12.575   3.115  -1.523  0.00  0.00    -0.101 C 
ATOM     15  C   UNL     1      11.996   2.223  -2.079  0.00  0.00    +0.004 C 
ENDBRANCH   8  13
BRANCH   6  12
ATOM     12  C   UNL     1      11.110   4.114   2.374  0.00  0.00    +0.123 C 
BRANCH  12   4
ATOM      1  O   UNL     1      10.050   6.445   3.672  0.00  0.00    -0.267 OA
ATOM      4  N   UNL     1      10.887   4.291   3.818  0.00  0.00    -0.307 N 
ATOM     14  C   UNL     1      10.372   5.456   4.326  0.00  0.00    +0.279 C 
ATOM     20  H   UNL     1      11.131   3.526   4.441  0.00  0.00    +0.149 HD
BRANCH  14  16
ATOM      2  O   UNL     1      10.578   6.632   6.389  0.00  0.00    -0.458 OA
ATOM     16  C   UNL     1      10.232   5.487   5.805  0.00  0.00    +0.189 A 
ATOM     17  C   UNL     1       9.809   4.535   6.638  0.00  0.00    +0.054 A 
ATOM     18  C   UNL     1       9.892   5.135   7.918  0.00  0.00    +0.042 A 
ATOM     19  C   UNL     1      10.365   6.410   7.712  0.00  0.00    +0.196 A 
ENDBRANCH  14  16
ENDBRANCH  12   4
ENDBRANCH   6  12
TORSDOF 4
ENDMDL
MODEL 9
REMARK VINA RESULT:      -5.1     22.181     24.875
REMARK  Name = 11943400
REMARK  4 active torsions:
REMARK  status: ('A' for Active; 'I' for Inactive)
REMARK    1  A    between atoms: N_4  and  C_12
REMARK    2  A    between atoms: C_6  and  C_12
REMARK    3  A    between atoms: C_8  and  C_13
REMARK    4  A    between atoms: C_14  and  C_16
REMARK                            x       y       z     vdW  Elec       q    Type
REMARK                         _______ _______ _______ _____ _____    ______ ____
ROOT
ATOM      3  N   UNL     1      -4.136 -11.902  17.748  0.00  0.00    -0.297 NA
ATOM      5  C   UNL     1      -6.261 -10.656  16.909  0.00  0.00    +0.008 C 
ATOM      6  C   UNL     1      -3.748 -10.646  17.053  0.00  0.00    +0.074 C 
ATOM      7  C   UNL     1      -4.976  -9.973  16.400  0.00  0.00    +0.025 C 
ATOM      8  C   UNL     1      -6.266 -12.131  16.447  0.00  0.00    +0.081 C 
ATOM      9  C   UNL     1      -6.195 -10.671  18.448  0.00  0.00    +0.020 C 
ATOM     10  C   UNL     1      -4.918 -12.774  16.835  0.00  0.00    +0.101 C 
ATOM     11  C   UNL     1      -5.004 -11.538  18.895  0.00  0.00    +0.085 C 
ENDROOT
BRANCH   8  13
ATOM     13  C   UNL     1      -6.528 -12.256  15.004  0.00  0.00    -0.101 C 
ATOM     15  C   UNL     1      -6.742 -12.358  13.827  0.00  0.00    +0.004 C 
ENDBRANCH   8  13
BRANCH   6  12
ATOM     12  C   UNL     1      -2.616 -10.863  16.046  0.00  0.00    +0.123 C 
BRANCH  12   4
ATOM      1  O   UNL     1      -2.167 -12.110  13.500  0.00  0.00    -0.267 OA
ATOM      4  N   UNL     1      -3.033 -10.351  14.731  0.00  0.00    -0.307 N 
ATOM     14  C   UNL     1      -2.762 -11.038  13.576  0.00  0.00    +0.279 C 
ATOM     20  H   UNL     1      -3.527  -9.464  14.693  0.00  0.00    +0.149 HD
BRANCH  14  16
ATOM      2  O   UNL     1      -2.271 -10.080  11.449  0.00  0.00    -0.458 OA
ATOM     16  C   UNL     1      -3.225 -10.376  12.329  0.00  0.00    +0.189 A 
ATOM     17  C   UNL     1      -4.460 -10.033  11.958  0.00  0.00    +0.054 A 
ATOM     18  C   UNL     1      -4.286  -9.442  10.683  0.00  0.00    +0.042 A 
ATOM     19  C   UNL     1      -2.936  -9.495  10.419  0.00  0.00    +0.196 A 
ENDBRANCH  14  16
ENDBRANCH  12   4
ENDBRANCH   6  12
TORSDOF 4
ENDMDL
MODEL 10
REMARK VINA RESULT:      -5.1     23.591     26.420
REMARK  Name = 11943400
REMARK  4 active torsions:
REMARK  status: ('A' for Active; 'I' for Inactive)
REMARK    1  A    between atoms: N_4  and  C_12
REMARK    2  A    between atoms: C_6  and  C_12
REMARK    3  A    between atoms: C_8  and  C_13
REMARK    4  A    between atoms: C_14  and  C_16
REMARK                            x       y       z     vdW  Elec       q    Type
REMARK                         _______ _______ _______ _____ _____    ______ ____
ROOT
ATOM      3  N   UNL     1      -7.318 -12.769  18.200  0.00  0.00    -0.297 NA
ATOM      5  C   UNL     1      -7.094 -10.178  18.099  0.00  0.00    +0.008 C 
ATOM      6  C   UNL     1      -5.968 -12.357  18.669  0.00  0.00    +0.074 C 
ATOM      7  C   UNL     1      -5.750 -10.841  18.462  0.00  0.00    +0.025 C 
ATOM      8  C   UNL     1      -7.587 -10.743  16.749  0.00  0.00    +0.081 C 
ATOM      9  C   UNL     1      -8.120 -10.607  19.165  0.00  0.00    +0.020 C 
ATOM     10  C   UNL     1      -7.551 -12.285  16.816  0.00  0.00    +0.101 C 
ATOM     11  C   UNL     1      -8.322 -12.132  19.087  0.00  0.00    +0.085 C 
ENDROOT
BRANCH   8  13
ATOM     13  C   UNL     1      -6.798 -10.233  15.616  0.00  0.00    -0.101 C 
ATOM     15  C   UNL     1      -6.155  -9.817  14.692  0.00  0.00    +0.004 C 
ENDBRANCH   8  13
BRANCH   6  12
ATOM     12  C   UNL     1      -4.852 -13.185  18.031  0.00  0.00    +0.123 C 
BRANCH  12   4
ATOM      1  O   UNL     1      -4.404 -13.009  15.201  0.00  0.00    -0.267 OA
ATOM      4  N   UNL     1      -3.913 -12.283  17.344  0.00  0.00    -0.307 N 
ATOM     14  C   UNL     1      -3.785 -12.289  15.978  0.00  0.00    +0.279 C 
ATOM     20  H   UNL     1      -3.349 -11.653  17.907  0.00  0.00    +0.149 HD
BRANCH  14  16
ATOM      2  O   UNL     1      -1.871 -10.909  16.315  0.00  0.00    -0.458 OA
ATOM     16  C   UNL     1      -2.776 -11.339  15.440  0.00  0.00    +0.189 A 
ATOM     17  C   UNL     1      -2.642 -10.853  14.204  0.00  0.00    +0.054 A 
ATOM     18  C   UNL     1      -1.513 -10.003  14.289  0.00  0.00    +0.042 A 
ATOM     19  C   UNL     1      -1.081 -10.072  15.593  0.00  0.00    +0.196 A 
ENDBRANCH  14  16
ENDBRANCH  12   4
ENDBRANCH   6  12
TORSDOF 4
ENDMDL
