MODEL 1
REMARK VINA RESULT:      -7.1      0.000      0.000
REMARK  Name = 7050095
REMARK  13 active torsions:
REMARK  status: ('A' for Active; 'I' for Inactive)
REMARK    1  A    between atoms: O_4  and  C_14
REMARK    2  A    between atoms: O_5  and  C_15
REMARK    3  A    between atoms: O_9  and  C_33
REMARK    4  A    between atoms: O_9  and  C_34
REMARK    5  A    between atoms: N_10  and  C_16
REMARK    6  A    between atoms: N_11  and  C_20
REMARK    7  A    between atoms: N_12  and  C_28
REMARK    8  A    between atoms: C_18  and  C_21
REMARK    9  A    between atoms: C_20  and  C_22
REMARK   10  A    between atoms: C_20  and  C_27
REMARK   11  A    between atoms: C_22  and  C_23
REMARK   12  A    between atoms: C_23  and  C_25
REMARK   13  A    between atoms: C_23  and  C_26
REMARK                            x       y       z     vdW  Elec       q    Type
REMARK                         _______ _______ _______ _____ _____    ______ ____
ROOT
ATOM     14  C   UNL     1      12.583   7.003  20.557  0.00  0.00    +0.167 C 
ATOM     15  C   UNL     1      11.254   7.712  20.267  0.00  0.00    +0.149 C 
ATOM     16  C   UNL     1      13.679   8.004  20.966  0.00  0.00    +0.129 C 
ATOM     17  C   UNL     1      10.780   8.563  21.457  0.00  0.00    +0.074 C 
ATOM     18  C   UNL     1      11.899   9.276  22.163  0.00  0.00    +0.015 C 
ATOM     19  C   UNL     1      13.202   9.041  21.946  0.00  0.00    +0.006 C 
ENDROOT
BRANCH  16  10
ATOM      7  O   UNL     1      16.269   7.776  19.763  0.00  0.00    -0.252 OA
ATOM     10  N   UNL     1      14.831   7.335  21.520  0.00  0.00    -0.290 N 
ATOM     12  N   UNL     1      16.990   6.561  21.638  0.00  0.00    -0.269 N 
ATOM     24  C   UNL     1      16.067   7.269  20.864  0.00  0.00    +0.304 C 
ATOM     35  H   UNL     1      14.731   6.844  22.403  0.00  0.00    +0.151 HD
ATOM     39  H   UNL     1      16.661   6.205  22.531  0.00  0.00    +0.156 HD
BRANCH  12  28
ATOM     28  C   UNL     1      18.341   6.274  21.331  0.00  0.00    +0.035 A 
ATOM     29  C   UNL     1      18.655   5.516  20.203  0.00  0.00    +0.027 A 
ATOM     30  C   UNL     1      19.360   6.750  22.156  0.00  0.00    +0.027 A 
ATOM     31  C   UNL     1      19.986   5.233  19.901  0.00  0.00    +0.048 A 
ATOM     32  C   UNL     1      20.692   6.467  21.855  0.00  0.00    +0.048 A 
ATOM     33  C   UNL     1      21.005   5.709  20.727  0.00  0.00    +0.130 A 
BRANCH  33   9
ATOM      9  O   UNL     1      22.305   5.435  20.430  0.00  0.00    -0.406 OA
BRANCH   9  34
ATOM      1  F   UNL     1      23.864   3.811  20.255  0.00  0.00    -0.133 F 
ATOM      2  F   UNL     1      23.542   4.721  22.216  0.00  0.00    -0.133 F 
ATOM      3  F   UNL     1      22.029   3.361  21.353  0.00  0.00    -0.133 F 
ATOM     34  C   UNL     1      22.927   4.332  21.080  0.00  0.00    +0.575 C 
ENDBRANCH   9  34
ENDBRANCH  33   9
ENDBRANCH  12  28
ENDBRANCH  16  10
BRANCH  18  21
ATOM      6  O   UNL     1      10.377  10.576  23.377  0.00  0.00    -0.271 OA
ATOM     11  N   UNL     1      12.661  10.905  23.711  0.00  0.00    -0.300 N 
ATOM     21  C   UNL     1      11.551  10.312  23.140  0.00  0.00    +0.241 C 
ATOM     36  H   UNL     1      13.587  10.553  23.484  0.00  0.00    +0.150 HD
BRANCH  11  20
ATOM     20  C   UNL     1      12.571  11.952  24.696  0.00  0.00    +0.159 C 
BRANCH  20  27
ATOM      8  O   UNL     1      13.880  12.334  26.709  0.00  0.00    -0.274 OA
ATOM     13  N   UNL     1      14.784  11.042  25.039  0.00  0.00    -0.328 N 
ATOM     27  C   UNL     1      13.796  11.828  25.592  0.00  0.00    +0.231 C 
ATOM     40  H   UNL     1      14.692  10.612  24.124  0.00  0.00    +0.145 HD
ATOM     41  H   UNL     1      15.650  10.866  25.539  0.00  0.00    +0.145 HD
ENDBRANCH  20  27
BRANCH  20  22
ATOM     22  C   UNL     1      12.518  13.347  24.060  0.00  0.00    +0.034 C 
BRANCH  22  23
ATOM     23  C   UNL     1      11.225  14.140  24.348  0.00  0.00    -0.015 C 
ATOM     25  C   UNL     1      10.234  14.081  23.184  0.00  0.00    +0.007 C 
ATOM     26  C   UNL     1      10.562  13.601  25.618  0.00  0.00    +0.007 C 
ENDBRANCH  22  23
ENDBRANCH  20  22
ENDBRANCH  11  20
ENDBRANCH  18  21
BRANCH  14   4
ATOM      4  O   UNL     1      12.379   6.058  21.609  0.00  0.00    -0.387 OA
ATOM     37  H   UNL     1      12.728   5.203  21.306  0.00  0.00    +0.210 HD
ENDBRANCH  14   4
BRANCH  15   5
ATOM      5  O   UNL     1      11.375   8.524  19.101  0.00  0.00    -0.389 OA
ATOM     38  H   UNL     1      12.062   8.130  18.538  0.00  0.00    +0.210 HD
ENDBRANCH  15   5
TORSDOF 11
ENDMDL
MODEL 2
REMARK VINA RESULT:      -6.9     28.667     32.508
REMARK  Name = 7050095
REMARK  13 active torsions:
REMARK  status: ('A' for Active; 'I' for Inactive)
REMARK    1  A    between atoms: O_4  and  C_14
REMARK    2  A    between atoms: O_5  and  C_15
REMARK    3  A    between atoms: O_9  and  C_33
REMARK    4  A    between atoms: O_9  and  C_34
REMARK    5  A    between atoms: N_10  and  C_16
REMARK    6  A    between atoms: N_11  and  C_20
REMARK    7  A    between atoms: N_12  and  C_28
REMARK    8  A    between atoms: C_18  and  C_21
REMARK    9  A    between atoms: C_20  and  C_22
REMARK   10  A    between atoms: C_20  and  C_27
REMARK   11  A    between atoms: C_22  and  C_23
REMARK   12  A    between atoms: C_23  and  C_25
REMARK   13  A    between atoms: C_23  and  C_26
REMARK                            x       y       z     vdW  Elec       q    Type
REMARK                         _______ _______ _______ _____ _____    ______ ____
ROOT
ATOM     14  C   UNL     1     -10.911 -10.485  18.387  0.00  0.00    +0.167 C 
ATOM     15  C   UNL     1      -9.938 -11.025  19.441  0.00  0.00    +0.149 C 
ATOM     16  C   UNL     1     -10.396  -9.175  17.761  0.00  0.00    +0.129 C 
ATOM     17  C   UNL     1      -8.523 -11.228  18.872  0.00  0.00    +0.074 C 
ATOM     18  C   UNL     1      -8.105 -10.148  17.916  0.00  0.00    +0.015 C 
ATOM     19  C   UNL     1      -8.932  -9.217  17.416  0.00  0.00    +0.006 C 
ENDROOT
BRANCH  16  10
ATOM      7  O   UNL     1     -11.274  -6.553  17.014  0.00  0.00    -0.252 OA
ATOM     10  N   UNL     1     -11.143  -8.820  16.579  0.00  0.00    -0.290 N 
ATOM     12  N   UNL     1     -12.240  -7.469  15.081  0.00  0.00    -0.269 N 
ATOM     24  C   UNL     1     -11.535  -7.507  16.286  0.00  0.00    +0.304 C 
ATOM     35  H   UNL     1     -11.444  -9.561  15.953  0.00  0.00    +0.151 HD
ATOM     39  H   UNL     1     -12.370  -8.354  14.598  0.00  0.00    +0.156 HD
BRANCH  12  28
ATOM     28  C   UNL     1     -12.804  -6.341  14.441  0.00  0.00    +0.035 A 
ATOM     29  C   UNL     1     -14.189  -6.194  14.377  0.00  0.00    +0.027 A 
ATOM     30  C   UNL     1     -11.974  -5.373  13.874  0.00  0.00    +0.027 A 
ATOM     31  C   UNL     1     -14.745  -5.081  13.747  0.00  0.00    +0.048 A 
ATOM     32  C   UNL     1     -12.529  -4.261  13.243  0.00  0.00    +0.048 A 
ATOM     33  C   UNL     1     -13.915  -4.114  13.179  0.00  0.00    +0.130 A 
BRANCH  33   9
ATOM      9  O   UNL     1     -14.457  -3.027  12.566  0.00  0.00    -0.406 OA
BRANCH   9  34
ATOM      1  F   UNL     1     -15.672  -4.137  11.019  0.00  0.00    -0.133 F 
ATOM      2  F   UNL     1     -15.365  -1.991  10.740  0.00  0.00    -0.133 F 
ATOM      3  F   UNL     1     -13.694  -3.407  10.444  0.00  0.00    -0.133 F 
ATOM     34  C   UNL     1     -14.787  -3.127  11.185  0.00  0.00    +0.575 C 
ENDBRANCH   9  34
ENDBRANCH  33   9
ENDBRANCH  12  28
ENDBRANCH  16  10
BRANCH  18  21
ATOM      6  O   UNL     1      -6.311  -9.241  16.717  0.00  0.00    -0.271 OA
ATOM     11  N   UNL     1      -5.924 -11.066  18.115  0.00  0.00    -0.300 N 
ATOM     21  C   UNL     1      -6.697 -10.090  17.512  0.00  0.00    +0.241 C 
ATOM     36  H   UNL     1      -6.345 -11.673  18.813  0.00  0.00    +0.150 HD
BRANCH  11  20
ATOM     20  C   UNL     1      -4.512 -11.210  17.872  0.00  0.00    +0.159 C 
BRANCH  20  27
ATOM      8  O   UNL     1      -3.339 -12.061  19.823  0.00  0.00    -0.274 OA
ATOM     13  N   UNL     1      -4.418 -13.555  18.452  0.00  0.00    -0.328 N 
ATOM     27  C   UNL     1      -4.006 -12.291  18.817  0.00  0.00    +0.231 C 
ATOM     40  H   UNL     1      -4.987 -13.728  17.630  0.00  0.00    +0.145 HD
ATOM     41  H   UNL     1      -4.160 -14.366  19.005  0.00  0.00    +0.145 HD
ENDBRANCH  20  27
BRANCH  20  22
ATOM     22  C   UNL     1      -4.208 -11.591  16.417  0.00  0.00    +0.034 C 
BRANCH  22  23
ATOM     23  C   UNL     1      -3.260 -10.622  15.680  0.00  0.00    -0.015 C 
ATOM     25  C   UNL     1      -1.820 -10.718  16.187  0.00  0.00    +0.007 C 
ATOM     26  C   UNL     1      -3.298 -10.908  14.176  0.00  0.00    +0.007 C 
ENDBRANCH  22  23
ENDBRANCH  20  22
ENDBRANCH  11  20
ENDBRANCH  18  21
BRANCH  14   4
ATOM      4  O   UNL     1     -11.078 -11.471  17.367  0.00  0.00    -0.387 OA
ATOM     37  H   UNL     1     -11.126 -12.338  17.803  0.00  0.00    +0.210 HD
ENDBRANCH  14   4
BRANCH  15   5
ATOM      5  O   UNL     1      -9.893 -10.148  20.564  0.00  0.00    -0.389 OA
ATOM     38  H   UNL     1     -10.810  -9.938  20.811  0.00  0.00    +0.210 HD
ENDBRANCH  15   5
TORSDOF 11
ENDMDL
MODEL 3
REMARK VINA RESULT:      -6.5      7.139      8.372
REMARK  Name = 7050095
REMARK  13 active torsions:
REMARK  status: ('A' for Active; 'I' for Inactive)
REMARK    1  A    between atoms: O_4  and  C_14
REMARK    2  A    between atoms: O_5  and  C_15
REMARK    3  A    between atoms: O_9  and  C_33
REMARK    4  A    between atoms: O_9  and  C_34
REMARK    5  A    between atoms: N_10  and  C_16
REMARK    6  A    between atoms: N_11  and  C_20
REMARK    7  A    between atoms: N_12  and  C_28
REMARK    8  A    between atoms: C_18  and  C_21
REMARK    9  A    between atoms: C_20  and  C_22
REMARK   10  A    between atoms: C_20  and  C_27
REMARK   11  A    between atoms: C_22  and  C_23
REMARK   12  A    between atoms: C_23  and  C_25
REMARK   13  A    between atoms: C_23  and  C_26
REMARK                            x       y       z     vdW  Elec       q    Type
REMARK                         _______ _______ _______ _____ _____    ______ ____
ROOT
ATOM     14  C   UNL     1      13.665   7.881  18.680  0.00  0.00    +0.167 C 
ATOM     15  C   UNL     1      13.181   6.869  19.725  0.00  0.00    +0.149 C 
ATOM     16  C   UNL     1      12.600   8.958  18.401  0.00  0.00    +0.129 C 
ATOM     17  C   UNL     1      12.758   7.551  21.037  0.00  0.00    +0.074 C 
ATOM     18  C   UNL     1      12.035   8.851  20.827  0.00  0.00    +0.015 C 
ATOM     19  C   UNL     1      11.949   9.488  19.649  0.00  0.00    +0.006 C 
ENDROOT
BRANCH  16  10
ATOM      7  O   UNL     1      12.917   9.115  15.559  0.00  0.00    -0.252 OA
ATOM     10  N   UNL     1      13.146  10.065  17.654  0.00  0.00    -0.290 N 
ATOM     12  N   UNL     1      13.825  11.264  15.817  0.00  0.00    -0.269 N 
ATOM     24  C   UNL     1      13.266  10.062  16.259  0.00  0.00    +0.304 C 
ATOM     35  H   UNL     1      13.507  10.865  18.164  0.00  0.00    +0.151 HD
ATOM     39  H   UNL     1      14.060  11.949  16.531  0.00  0.00    +0.156 HD
BRANCH  12  28
ATOM     28  C   UNL     1      14.111  11.652  14.487  0.00  0.00    +0.035 A 
ATOM     29  C   UNL     1      13.129  12.270  13.714  0.00  0.00    +0.027 A 
ATOM     30  C   UNL     1      15.376  11.417  13.949  0.00  0.00    +0.027 A 
ATOM     31  C   UNL     1      13.410  12.652  12.403  0.00  0.00    +0.048 A 
ATOM     32  C   UNL     1      15.658  11.799  12.638  0.00  0.00    +0.048 A 
ATOM     33  C   UNL     1      14.676  12.417  11.864  0.00  0.00    +0.130 A 
BRANCH  33   9
ATOM      9  O   UNL     1      14.951  12.792  10.586  0.00  0.00    -0.406 OA
BRANCH   9  34
ATOM      1  F   UNL     1      16.848  13.865   9.994  0.00  0.00    -0.133 F 
ATOM      2  F   UNL     1      14.940  14.741   9.389  0.00  0.00    -0.133 F 
ATOM      3  F   UNL     1      15.571  14.792  11.506  0.00  0.00    -0.133 F 
ATOM     34  C   UNL     1      15.564  14.059  10.372  0.00  0.00    +0.575 C 
ENDBRANCH   9  34
ENDBRANCH  33   9
ENDBRANCH  12  28
ENDBRANCH  16  10
BRANCH  18  21
ATOM      6  O   UNL     1      10.692   8.773  22.743  0.00  0.00    -0.271 OA
ATOM     11  N   UNL     1      11.567  10.823  22.062  0.00  0.00    -0.300 N 
ATOM     21  C   UNL     1      11.358   9.459  21.977  0.00  0.00    +0.241 C 
ATOM     36  H   UNL     1      12.199  11.273  21.405  0.00  0.00    +0.150 HD
BRANCH  11  20
ATOM     20  C   UNL     1      11.001  11.639  23.105  0.00  0.00    +0.159 C 
BRANCH  20  27
ATOM      8  O   UNL     1      12.978  12.069  24.455  0.00  0.00    -0.274 OA
ATOM     13  N   UNL     1      11.357  10.675  25.295  0.00  0.00    -0.328 N 
ATOM     27  C   UNL     1      11.902  11.490  24.325  0.00  0.00    +0.231 C 
ATOM     40  H   UNL     1      10.456  10.221  25.183  0.00  0.00    +0.145 HD
ATOM     41  H   UNL     1      11.848  10.502  26.165  0.00  0.00    +0.145 HD
ENDBRANCH  20  27
BRANCH  20  22
ATOM     22  C   UNL     1      10.898  13.115  22.699  0.00  0.00    +0.034 C 
BRANCH  22  23
ATOM     23  C   UNL     1       9.896  13.945  23.529  0.00  0.00    -0.015 C 
ATOM     25  C   UNL     1      10.592  14.881  24.517  0.00  0.00    +0.007 C 
ATOM     26  C   UNL     1       9.000  14.759  22.591  0.00  0.00    +0.007 C 
ENDBRANCH  22  23
ENDBRANCH  20  22
ENDBRANCH  11  20
ENDBRANCH  18  21
BRANCH  14   4
ATOM      4  O   UNL     1      14.860   8.500  19.159  0.00  0.00    -0.387 OA
ATOM     37  H   UNL     1      15.249   7.910  19.825  0.00  0.00    +0.210 HD
ENDBRANCH  14   4
BRANCH  15   5
ATOM      5  O   UNL     1      12.101   6.100  19.201  0.00  0.00    -0.389 OA
ATOM     38  H   UNL     1      11.339   6.695  19.098  0.00  0.00    +0.210 HD
ENDBRANCH  15   5
TORSDOF 11
ENDMDL
MODEL 4
REMARK VINA RESULT:      -6.4     29.052     31.908
REMARK  Name = 7050095
REMARK  13 active torsions:
REMARK  status: ('A' for Active; 'I' for Inactive)
REMARK    1  A    between atoms: O_4  and  C_14
REMARK    2  A    between atoms: O_5  and  C_15
REMARK    3  A    between atoms: O_9  and  C_33
REMARK    4  A    between atoms: O_9  and  C_34
REMARK    5  A    between atoms: N_10  and  C_16
REMARK    6  A    between atoms: N_11  and  C_20
REMARK    7  A    between atoms: N_12  and  C_28
REMARK    8  A    between atoms: C_18  and  C_21
REMARK    9  A    between atoms: C_20  and  C_22
REMARK   10  A    between atoms: C_20  and  C_27
REMARK   11  A    between atoms: C_22  and  C_23
REMARK   12  A    between atoms: C_23  and  C_25
REMARK   13  A    between atoms: C_23  and  C_26
REMARK                            x       y       z     vdW  Elec       q    Type
REMARK                         _______ _______ _______ _____ _____    ______ ____
ROOT
ATOM     14  C   UNL     1      -7.760 -10.603  18.173  0.00  0.00    +0.167 C 
ATOM     15  C   UNL     1      -6.686 -11.131  19.132  0.00  0.00    +0.149 C 
ATOM     16  C   UNL     1      -7.214  -9.472  17.281  0.00  0.00    +0.129 C 
ATOM     17  C   UNL     1      -5.427 -11.605  18.385  0.00  0.00    +0.074 C 
ATOM     18  C   UNL     1      -5.061 -10.730  17.220  0.00  0.00    +0.015 C 
ATOM     19  C   UNL     1      -5.849  -9.765  16.720  0.00  0.00    +0.006 C 
ENDROOT
BRANCH  16  10
ATOM      7  O   UNL     1      -9.587  -7.874  17.405  0.00  0.00    -0.252 OA
ATOM     10  N   UNL     1      -8.111  -9.175  16.190  0.00  0.00    -0.290 N 
ATOM     12  N   UNL     1      -9.925  -8.266  15.115  0.00  0.00    -0.269 N 
ATOM     24  C   UNL     1      -9.255  -8.380  16.336  0.00  0.00    +0.304 C 
ATOM     35  H   UNL     1      -7.935  -9.601  15.286  0.00  0.00    +0.151 HD
ATOM     39  H   UNL     1      -9.515  -8.751  14.321  0.00  0.00    +0.156 HD
BRANCH  12  28
ATOM     28  C   UNL     1     -11.117  -7.555  14.842  0.00  0.00    +0.035 A 
ATOM     29  C   UNL     1     -11.202  -6.196  15.141  0.00  0.00    +0.027 A 
ATOM     30  C   UNL     1     -12.207  -8.213  14.272  0.00  0.00    +0.027 A 
ATOM     31  C   UNL     1     -12.377  -5.494  14.872  0.00  0.00    +0.048 A 
ATOM     32  C   UNL     1     -13.382  -7.512  14.003  0.00  0.00    +0.048 A 
ATOM     33  C   UNL     1     -13.467  -6.153  14.302  0.00  0.00    +0.130 A 
BRANCH  33   9
ATOM      9  O   UNL     1     -14.613  -5.467  14.037  0.00  0.00    -0.406 OA
BRANCH   9  34
ATOM      1  F   UNL     1     -13.521  -4.801  12.177  0.00  0.00    -0.133 F 
ATOM      2  F   UNL     1     -15.706  -4.783  12.149  0.00  0.00    -0.133 F 
ATOM      3  F   UNL     1     -14.591  -3.290  13.338  0.00  0.00    -0.133 F 
ATOM     34  C   UNL     1     -14.624  -4.576  12.928  0.00  0.00    +0.575 C 
ENDBRANCH   9  34
ENDBRANCH  33   9
ENDBRANCH  12  28
ENDBRANCH  16  10
BRANCH  18  21
ATOM      6  O   UNL     1      -2.742 -11.047  17.285  0.00  0.00    -0.271 OA
ATOM     11  N   UNL     1      -3.809 -10.945  15.214  0.00  0.00    -0.300 N 
ATOM     21  C   UNL     1      -3.749 -10.924  16.595  0.00  0.00    +0.241 C 
ATOM     36  H   UNL     1      -4.715 -10.901  14.755  0.00  0.00    +0.150 HD
BRANCH  11  20
ATOM     20  C   UNL     1      -2.648 -11.119  14.381  0.00  0.00    +0.159 C 
BRANCH  20  27
ATOM      8  O   UNL     1      -3.346 -13.447  14.454  0.00  0.00    -0.274 OA
ATOM     13  N   UNL     1      -1.362 -12.928  13.420  0.00  0.00    -0.328 N 
ATOM     27  C   UNL     1      -2.508 -12.613  14.119  0.00  0.00    +0.231 C 
ATOM     40  H   UNL     1      -0.689 -12.226  13.131  0.00  0.00    +0.145 HD
ATOM     41  H   UNL     1      -1.154 -13.888  13.168  0.00  0.00    +0.145 HD
ENDBRANCH  20  27
BRANCH  20  22
ATOM     22  C   UNL     1      -2.762 -10.357  13.055  0.00  0.00    +0.034 C 
BRANCH  22  23
ATOM     23  C   UNL     1      -3.904 -10.833  12.132  0.00  0.00    -0.015 C 
ATOM     25  C   UNL     1      -4.988  -9.770  11.950  0.00  0.00    +0.007 C 
ATOM     26  C   UNL     1      -3.333 -11.226  10.767  0.00  0.00    +0.007 C 
ENDBRANCH  22  23
ENDBRANCH  20  22
ENDBRANCH  11  20
ENDBRANCH  18  21
BRANCH  14   4
ATOM      4  O   UNL     1      -8.218 -11.682  17.356  0.00  0.00    -0.387 OA
ATOM     37  H   UNL     1      -9.189 -11.683  17.390  0.00  0.00    +0.210 HD
ENDBRANCH  14   4
BRANCH  15   5
ATOM      5  O   UNL     1      -6.342 -10.129  20.085  0.00  0.00    -0.389 OA
ATOM     38  H   UNL     1      -6.429  -9.265  19.649  0.00  0.00    +0.210 HD
ENDBRANCH  15   5
TORSDOF 11
ENDMDL
MODEL 5
REMARK VINA RESULT:      -6.4     27.648     30.777
REMARK  Name = 7050095
REMARK  13 active torsions:
REMARK  status: ('A' for Active; 'I' for Inactive)
REMARK    1  A    between atoms: O_4  and  C_14
REMARK    2  A    between atoms: O_5  and  C_15
REMARK    3  A    between atoms: O_9  and  C_33
REMARK    4  A    between atoms: O_9  and  C_34
REMARK    5  A    between atoms: N_10  and  C_16
REMARK    6  A    between atoms: N_11  and  C_20
REMARK    7  A    between atoms: N_12  and  C_28
REMARK    8  A    between atoms: C_18  and  C_21
REMARK    9  A    between atoms: C_20  and  C_22
REMARK   10  A    between atoms: C_20  and  C_27
REMARK   11  A    between atoms: C_22  and  C_23
REMARK   12  A    between atoms: C_23  and  C_25
REMARK   13  A    between atoms: C_23  and  C_26
REMARK                            x       y       z     vdW  Elec       q    Type
REMARK                         _______ _______ _______ _____ _____    ______ ____
ROOT
ATOM     14  C   UNL     1      -8.151  -9.009   6.900  0.00  0.00    +0.167 C 
ATOM     15  C   UNL     1      -8.786  -8.001   5.934  0.00  0.00    +0.149 C 
ATOM     16  C   UNL     1      -7.411  -8.301   8.050  0.00  0.00    +0.129 C 
ATOM     17  C   UNL     1      -9.733  -7.027   6.655  0.00  0.00    +0.074 C 
ATOM     18  C   UNL     1      -9.230  -6.595   8.003  0.00  0.00    +0.015 C 
ATOM     19  C   UNL     1      -8.185  -7.152   8.636  0.00  0.00    +0.006 C 
ENDROOT
BRANCH  16  10
ATOM      7  O   UNL     1      -4.996  -8.315   9.590  0.00  0.00    -0.252 OA
ATOM     10  N   UNL     1      -7.069  -9.219   9.109  0.00  0.00    -0.290 N 
ATOM     12  N   UNL     1      -5.810 -10.169  10.778  0.00  0.00    -0.269 N 
ATOM     24  C   UNL     1      -5.861  -9.157   9.816  0.00  0.00    +0.304 C 
ATOM     35  H   UNL     1      -7.709  -9.979   9.319  0.00  0.00    +0.151 HD
ATOM     39  H   UNL     1      -6.615 -10.787  10.835  0.00  0.00    +0.156 HD
BRANCH  12  28
ATOM     28  C   UNL     1      -4.765 -10.446  11.691  0.00  0.00    +0.035 A 
ATOM     29  C   UNL     1      -3.486 -10.739  11.220  0.00  0.00    +0.027 A 
ATOM     30  C   UNL     1      -5.015 -10.426  13.063  0.00  0.00    +0.027 A 
ATOM     31  C   UNL     1      -2.456 -11.011  12.120  0.00  0.00    +0.048 A 
ATOM     32  C   UNL     1      -3.986 -10.699  13.963  0.00  0.00    +0.048 A 
ATOM     33  C   UNL     1      -2.707 -10.991  13.493  0.00  0.00    +0.130 A 
BRANCH  33   9
ATOM      9  O   UNL     1      -1.701 -11.255  14.371  0.00  0.00    -0.406 OA
BRANCH   9  34
ATOM      1  F   UNL     1      -0.096 -10.587  15.812  0.00  0.00    -0.133 F 
ATOM      2  F   UNL     1      -0.979  -9.089  14.488  0.00  0.00    -0.133 F 
ATOM      3  F   UNL     1      -2.145  -9.918  16.172  0.00  0.00    -0.133 F 
ATOM     34  C   UNL     1      -1.243 -10.199  15.208  0.00  0.00    +0.575 C 
ENDBRANCH   9  34
ENDBRANCH  33   9
ENDBRANCH  12  28
ENDBRANCH  16  10
BRANCH  18  21
ATOM      6  O   UNL     1      -9.380  -4.373   8.725  0.00  0.00    -0.271 OA
ATOM     11  N   UNL     1     -11.140  -5.830   9.186  0.00  0.00    -0.300 N 
ATOM     21  C   UNL     1      -9.908  -5.478   8.668  0.00  0.00    +0.241 C 
ATOM     36  H   UNL     1     -11.504  -6.764   9.016  0.00  0.00    +0.150 HD
BRANCH  11  20
ATOM     20  C   UNL     1     -11.990  -4.903   9.887  0.00  0.00    +0.159 C 
BRANCH  20  27
ATOM      8  O   UNL     1     -13.372  -3.211   8.820  0.00  0.00    -0.274 OA
ATOM     13  N   UNL     1     -13.441  -5.358   8.006  0.00  0.00    -0.328 N 
ATOM     27  C   UNL     1     -13.008  -4.383   8.880  0.00  0.00    +0.231 C 
ATOM     40  H   UNL     1     -13.114  -6.318   8.054  0.00  0.00    +0.145 HD
ATOM     41  H   UNL     1     -14.111  -5.141   7.276  0.00  0.00    +0.145 HD
ENDBRANCH  20  27
BRANCH  20  22
ATOM     22  C   UNL     1     -12.706  -5.554  11.077  0.00  0.00    +0.034 C 
BRANCH  22  23
ATOM     23  C   UNL     1     -12.971  -4.608  12.268  0.00  0.00    -0.015 C 
ATOM     25  C   UNL     1     -12.104  -3.350  12.217  0.00  0.00    +0.007 C 
ATOM     26  C   UNL     1     -14.451  -4.215  12.294  0.00  0.00    +0.007 C 
ENDBRANCH  22  23
ENDBRANCH  20  22
ENDBRANCH  11  20
ENDBRANCH  18  21
BRANCH  14   4
ATOM      4  O   UNL     1      -9.180  -9.845   7.433  0.00  0.00    -0.387 OA
ATOM     37  H   UNL     1      -9.890  -9.265   7.756  0.00  0.00    +0.210 HD
ENDBRANCH  14   4
BRANCH  15   5
ATOM      5  O   UNL     1      -7.771  -7.277   5.243  0.00  0.00    -0.389 OA
ATOM     38  H   UNL     1      -7.340  -6.688   5.885  0.00  0.00    +0.210 HD
ENDBRANCH  15   5
TORSDOF 11
ENDMDL
MODEL 6
REMARK VINA RESULT:      -6.2      1.697      2.453
REMARK  Name = 7050095
REMARK  13 active torsions:
REMARK  status: ('A' for Active; 'I' for Inactive)
REMARK    1  A    between atoms: O_4  and  C_14
REMARK    2  A    between atoms: O_5  and  C_15
REMARK    3  A    between atoms: O_9  and  C_33
REMARK    4  A    between atoms: O_9  and  C_34
REMARK    5  A    between atoms: N_10  and  C_16
REMARK    6  A    between atoms: N_11  and  C_20
REMARK    7  A    between atoms: N_12  and  C_28
REMARK    8  A    between atoms: C_18  and  C_21
REMARK    9  A    between atoms: C_20  and  C_22
REMARK   10  A    between atoms: C_20  and  C_27
REMARK   11  A    between atoms: C_22  and  C_23
REMARK   12  A    between atoms: C_23  and  C_25
REMARK   13  A    between atoms: C_23  and  C_26
REMARK                            x       y       z     vdW  Elec       q    Type
REMARK                         _______ _______ _______ _____ _____    ______ ____
ROOT
ATOM     14  C   UNL     1      12.464   7.020  20.142  0.00  0.00    +0.167 C 
ATOM     15  C   UNL     1      11.266   7.742  20.770  0.00  0.00    +0.149 C 
ATOM     16  C   UNL     1      13.427   8.012  19.461  0.00  0.00    +0.129 C 
ATOM     17  C   UNL     1      11.703   8.828  21.768  0.00  0.00    +0.074 C 
ATOM     18  C   UNL     1      12.919   9.591  21.324  0.00  0.00    +0.015 C 
ATOM     19  C   UNL     1      13.695   9.241  20.287  0.00  0.00    +0.006 C 
ENDROOT
BRANCH  16  10
ATOM      7  O   UNL     1      15.680   7.677  21.198  0.00  0.00    -0.252 OA
ATOM     10  N   UNL     1      14.686   7.389  19.130  0.00  0.00    -0.290 N 
ATOM     12  N   UNL     1      16.827   6.621  19.443  0.00  0.00    -0.269 N 
ATOM     24  C   UNL     1      15.741   7.265  20.043  0.00  0.00    +0.304 C 
ATOM     35  H   UNL     1      14.835   7.071  18.178  0.00  0.00    +0.151 HD
ATOM     39  H   UNL     1      16.715   6.342  18.472  0.00  0.00    +0.156 HD
BRANCH  12  28
ATOM     28  C   UNL     1      18.078   6.307  20.023  0.00  0.00    +0.035 A 
ATOM     29  C   UNL     1      18.636   7.154  20.980  0.00  0.00    +0.027 A 
ATOM     30  C   UNL     1      18.754   5.149  19.639  0.00  0.00    +0.027 A 
ATOM     31  C   UNL     1      19.869   6.844  21.553  0.00  0.00    +0.048 A 
ATOM     32  C   UNL     1      19.988   4.839  20.211  0.00  0.00    +0.048 A 
ATOM     33  C   UNL     1      20.546   5.686  21.168  0.00  0.00    +0.130 A 
BRANCH  33   9
ATOM      9  O   UNL     1      21.748   5.383  21.728  0.00  0.00    -0.406 OA
BRANCH   9  34
ATOM      1  F   UNL     1      22.682   6.716  20.164  0.00  0.00    -0.133 F 
ATOM      2  F   UNL     1      23.943   6.020  21.808  0.00  0.00    -0.133 F 
ATOM      3  F   UNL     1      23.294   4.619  20.227  0.00  0.00    -0.133 F 
ATOM     34  C   UNL     1      22.929   5.672  20.988  0.00  0.00    +0.575 C 
ENDBRANCH   9  34
ENDBRANCH  33   9
ENDBRANCH  12  28
ENDBRANCH  16  10
BRANCH  18  21
ATOM      6  O   UNL     1      13.701  11.794  21.458  0.00  0.00    -0.271 OA
ATOM     11  N   UNL     1      13.075  10.697  23.418  0.00  0.00    -0.300 N 
ATOM     21  C   UNL     1      13.275  10.811  22.055  0.00  0.00    +0.241 C 
ATOM     36  H   UNL     1      12.650   9.852  23.791  0.00  0.00    +0.150 HD
BRANCH  11  20
ATOM     20  C   UNL     1      13.357  11.764  24.344  0.00  0.00    +0.159 C 
BRANCH  20  27
ATOM      8  O   UNL     1      11.222  11.075  25.282  0.00  0.00    -0.274 OA
ATOM     13  N   UNL     1      12.262  12.925  26.161  0.00  0.00    -0.328 N 
ATOM     27  C   UNL     1      12.159  11.870  25.279  0.00  0.00    +0.231 C 
ATOM     40  H   UNL     1      13.053  13.561  26.161  0.00  0.00    +0.145 HD
ATOM     41  H   UNL     1      11.537  13.101  26.848  0.00  0.00    +0.145 HD
ENDBRANCH  20  27
BRANCH  20  22
ATOM     22  C   UNL     1      14.639  11.514  25.148  0.00  0.00    +0.034 C 
BRANCH  22  23
ATOM     23  C   UNL     1      15.696  12.633  25.042  0.00  0.00    -0.015 C 
ATOM     25  C   UNL     1      15.318  13.697  24.010  0.00  0.00    +0.007 C 
ATOM     26  C   UNL     1      15.891  13.289  26.412  0.00  0.00    +0.007 C 
ENDBRANCH  22  23
ENDBRANCH  20  22
ENDBRANCH  11  20
ENDBRANCH  18  21
BRANCH  14   4
ATOM      4  O   UNL     1      13.157   6.303  21.165  0.00  0.00    -0.387 OA
ATOM     37  H   UNL     1      13.177   6.867  21.956  0.00  0.00    +0.210 HD
ENDBRANCH  14   4
BRANCH  15   5
ATOM      5  O   UNL     1      10.447   8.313  19.753  0.00  0.00    -0.389 OA
ATOM     38  H   UNL     1      10.970   8.998  19.303  0.00  0.00    +0.210 HD
ENDBRANCH  15   5
TORSDOF 11
ENDMDL
MODEL 7
REMARK VINA RESULT:      -6.1     15.770     18.452
REMARK  Name = 7050095
REMARK  13 active torsions:
REMARK  status: ('A' for Active; 'I' for Inactive)
REMARK    1  A    between atoms: O_4  and  C_14
REMARK    2  A    between atoms: O_5  and  C_15
REMARK    3  A    between atoms: O_9  and  C_33
REMARK    4  A    between atoms: O_9  and  C_34
REMARK    5  A    between atoms: N_10  and  C_16
REMARK    6  A    between atoms: N_11  and  C_20
REMARK    7  A    between atoms: N_12  and  C_28
REMARK    8  A    between atoms: C_18  and  C_21
REMARK    9  A    between atoms: C_20  and  C_22
REMARK   10  A    between atoms: C_20  and  C_27
REMARK   11  A    between atoms: C_22  and  C_23
REMARK   12  A    between atoms: C_23  and  C_25
REMARK   13  A    between atoms: C_23  and  C_26
REMARK                            x       y       z     vdW  Elec       q    Type
REMARK                         _______ _______ _______ _____ _____    ______ ____
ROOT
ATOM     14  C   UNL     1      10.090   8.465   7.284  0.00  0.00    +0.167 C 
ATOM     15  C   UNL     1       8.955   7.435   7.337  0.00  0.00    +0.149 C 
ATOM     16  C   UNL     1      11.465   7.784   7.144  0.00  0.00    +0.129 C 
ATOM     17  C   UNL     1       8.964   6.501   6.115  0.00  0.00    +0.074 C 
ATOM     18  C   UNL     1      10.346   6.106   5.676  0.00  0.00    +0.015 C 
ATOM     19  C   UNL     1      11.475   6.668   6.135  0.00  0.00    +0.006 C 
ENDROOT
BRANCH  16  10
ATOM      7  O   UNL     1      14.272   7.259   6.935  0.00  0.00    -0.252 OA
ATOM     10  N   UNL     1      12.496   8.732   6.799  0.00  0.00    -0.290 N 
ATOM     12  N   UNL     1      14.612   9.511   6.365  0.00  0.00    -0.269 N 
ATOM     24  C   UNL     1      13.852   8.393   6.718  0.00  0.00    +0.304 C 
ATOM     35  H   UNL     1      12.236   9.704   6.658  0.00  0.00    +0.151 HD
ATOM     39  H   UNL     1      14.107  10.381   6.220  0.00  0.00    +0.156 HD
BRANCH  12  28
ATOM     28  C   UNL     1      16.013   9.586   6.182  0.00  0.00    +0.035 A 
ATOM     29  C   UNL     1      16.696   8.529   5.580  0.00  0.00    +0.027 A 
ATOM     30  C   UNL     1      16.712  10.717   6.603  0.00  0.00    +0.027 A 
ATOM     31  C   UNL     1      18.076   8.603   5.399  0.00  0.00    +0.048 A 
ATOM     32  C   UNL     1      18.093  10.791   6.424  0.00  0.00    +0.048 A 
ATOM     33  C   UNL     1      18.775   9.735   5.821  0.00  0.00    +0.130 A 
BRANCH  33   9
ATOM      9  O   UNL     1      20.123   9.808   5.643  0.00  0.00    -0.406 OA
BRANCH   9  34
ATOM      1  F   UNL     1      22.156   9.596   6.602  0.00  0.00    -0.133 F 
ATOM      2  F   UNL     1      20.422   8.821   7.684  0.00  0.00    -0.133 F 
ATOM      3  F   UNL     1      21.166   7.787   5.878  0.00  0.00    -0.133 F 
ATOM     34  C   UNL     1      20.956   8.989   6.456  0.00  0.00    +0.575 C 
ENDBRANCH   9  34
ENDBRANCH  33   9
ENDBRANCH  12  28
ENDBRANCH  16  10
BRANCH  18  21
ATOM      6  O   UNL     1       9.948   3.936   4.895  0.00  0.00    -0.271 OA
ATOM     11  N   UNL     1      11.231   5.385   3.595  0.00  0.00    -0.300 N 
ATOM     21  C   UNL     1      10.477   5.024   4.696  0.00  0.00    +0.241 C 
ATOM     36  H   UNL     1      11.561   6.343   3.510  0.00  0.00    +0.150 HD
BRANCH  11  20
ATOM     20  C   UNL     1      11.502   4.488   2.502  0.00  0.00    +0.159 C 
BRANCH  20  27
ATOM      8  O   UNL     1       9.761   3.753   0.972  0.00  0.00    -0.274 OA
ATOM     13  N   UNL     1      10.115   6.007   1.230  0.00  0.00    -0.328 N 
ATOM     27  C   UNL     1      10.386   4.679   1.483  0.00  0.00    +0.231 C 
ATOM     40  H   UNL     1      10.626   6.763   1.676  0.00  0.00    +0.145 HD
ATOM     41  H   UNL     1       9.384   6.275   0.580  0.00  0.00    +0.145 HD
ENDBRANCH  20  27
BRANCH  20  22
ATOM     22  C   UNL     1      12.865   4.755   1.853  0.00  0.00    +0.034 C 
BRANCH  22  23
ATOM     23  C   UNL     1      13.551   3.509   1.253  0.00  0.00    -0.015 C 
ATOM     25  C   UNL     1      13.404   3.438  -0.268  0.00  0.00    +0.007 C 
ATOM     26  C   UNL     1      15.036   3.507   1.628  0.00  0.00    +0.007 C 
ENDBRANCH  22  23
ENDBRANCH  20  22
ENDBRANCH  11  20
ENDBRANCH  18  21
BRANCH  14   4
ATOM      4  O   UNL     1       9.870   9.335   6.172  0.00  0.00    -0.387 OA
ATOM     37  H   UNL     1       9.622   8.781   5.412  0.00  0.00    +0.210 HD
ENDBRANCH  14   4
BRANCH  15   5
ATOM      5  O   UNL     1       9.041   6.672   8.538  0.00  0.00    -0.389 OA
ATOM     38  H   UNL     1       8.256   6.099   8.580  0.00  0.00    +0.210 HD
ENDBRANCH  15   5
TORSDOF 11
ENDMDL
MODEL 8
REMARK VINA RESULT:      -6.1     28.946     31.077
REMARK  Name = 7050095
REMARK  13 active torsions:
REMARK  status: ('A' for Active; 'I' for Inactive)
REMARK    1  A    between atoms: O_4  and  C_14
REMARK    2  A    between atoms: O_5  and  C_15
REMARK    3  A    between atoms: O_9  and  C_33
REMARK    4  A    between atoms: O_9  and  C_34
REMARK    5  A    between atoms: N_10  and  C_16
REMARK    6  A    between atoms: N_11  and  C_20
REMARK    7  A    between atoms: N_12  and  C_28
REMARK    8  A    between atoms: C_18  and  C_21
REMARK    9  A    between atoms: C_20  and  C_22
REMARK   10  A    between atoms: C_20  and  C_27
REMARK   11  A    between atoms: C_22  and  C_23
REMARK   12  A    between atoms: C_23  and  C_25
REMARK   13  A    between atoms: C_23  and  C_26
REMARK                            x       y       z     vdW  Elec       q    Type
REMARK                         _______ _______ _______ _____ _____    ______ ____
ROOT
ATOM     14  C   UNL     1      -4.071 -10.938  16.511  0.00  0.00    +0.167 C 
ATOM     15  C   UNL     1      -4.066 -11.635  17.878  0.00  0.00    +0.149 C 
ATOM     16  C   UNL     1      -5.440 -11.071  15.816  0.00  0.00    +0.129 C 
ATOM     17  C   UNL     1      -5.183 -11.112  18.797  0.00  0.00    +0.074 C 
ATOM     18  C   UNL     1      -6.471 -10.839  18.074  0.00  0.00    +0.015 C 
ATOM     19  C   UNL     1      -6.601 -10.825  16.739  0.00  0.00    +0.006 C 
ENDROOT
BRANCH  16  10
ATOM      7  O   UNL     1      -5.363 -11.809  13.050  0.00  0.00    -0.252 OA
ATOM     10  N   UNL     1      -5.549 -10.183  14.683  0.00  0.00    -0.290 N 
ATOM     12  N   UNL     1      -5.633  -9.548  12.478  0.00  0.00    -0.269 N 
ATOM     24  C   UNL     1      -5.502 -10.627  13.356  0.00  0.00    +0.304 C 
ATOM     35  H   UNL     1      -5.611  -9.184  14.852  0.00  0.00    +0.151 HD
ATOM     39  H   UNL     1      -5.741  -8.628  12.897  0.00  0.00    +0.156 HD
BRANCH  12  28
ATOM     28  C   UNL     1      -5.635  -9.574  11.064  0.00  0.00    +0.035 A 
ATOM     29  C   UNL     1      -6.842  -9.628  10.368  0.00  0.00    +0.027 A 
ATOM     30  C   UNL     1      -4.428  -9.545  10.365  0.00  0.00    +0.027 A 
ATOM     31  C   UNL     1      -6.843  -9.654   8.974  0.00  0.00    +0.048 A 
ATOM     32  C   UNL     1      -4.429  -9.572   8.970  0.00  0.00    +0.048 A 
ATOM     33  C   UNL     1      -5.636  -9.626   8.275  0.00  0.00    +0.130 A 
BRANCH  33   9
ATOM      9  O   UNL     1      -5.638  -9.648   6.914  0.00  0.00    -0.406 OA
BRANCH   9  34
ATOM      1  F   UNL     1      -6.652 -10.934   5.359  0.00  0.00    -0.133 F 
ATOM      2  F   UNL     1      -4.488 -11.122   5.597  0.00  0.00    -0.133 F 
ATOM      3  F   UNL     1      -5.855 -11.913   7.142  0.00  0.00    -0.133 F 
ATOM     34  C   UNL     1      -5.644 -10.913   6.261  0.00  0.00    +0.575 C 
ENDBRANCH   9  34
ENDBRANCH  33   9
ENDBRANCH  12  28
ENDBRANCH  16  10
BRANCH  18  21
ATOM      6  O   UNL     1      -7.671 -10.793  20.084  0.00  0.00    -0.271 OA
ATOM     11  N   UNL     1      -8.734 -10.124  18.120  0.00  0.00    -0.300 N 
ATOM     21  C   UNL     1      -7.673 -10.589  18.875  0.00  0.00    +0.241 C 
ATOM     36  H   UNL     1      -8.594  -9.927  17.132  0.00  0.00    +0.150 HD
BRANCH  11  20
ATOM     20  C   UNL     1     -10.021  -9.811  18.685  0.00  0.00    +0.159 C 
BRANCH  20  27
ATOM      8  O   UNL     1     -11.807  -8.676  17.487  0.00  0.00    -0.274 OA
ATOM     13  N   UNL     1      -9.722  -7.714  17.519  0.00  0.00    -0.328 N 
ATOM     27  C   UNL     1     -10.627  -8.706  17.829  0.00  0.00    +0.231 C 
ATOM     40  H   UNL     1      -8.755  -7.741  17.827  0.00  0.00    +0.145 HD
ATOM     41  H   UNL     1     -10.000  -6.911  16.964  0.00  0.00    +0.145 HD
ENDBRANCH  20  27
BRANCH  20  22
ATOM     22  C   UNL     1     -10.954 -11.028  18.719  0.00  0.00    +0.034 C 
BRANCH  22  23
ATOM     23  C   UNL     1     -11.312 -11.529  20.134  0.00  0.00    -0.015 C 
ATOM     25  C   UNL     1     -12.815 -11.751  20.311  0.00  0.00    +0.007 C 
ATOM     26  C   UNL     1     -10.560 -12.830  20.426  0.00  0.00    +0.007 C 
ENDBRANCH  22  23
ENDBRANCH  20  22
ENDBRANCH  11  20
ENDBRANCH  18  21
BRANCH  14   4
ATOM      4  O   UNL     1      -3.759  -9.557  16.698  0.00  0.00    -0.387 OA
ATOM     37  H   UNL     1      -4.599  -9.077  16.793  0.00  0.00    +0.210 HD
ENDBRANCH  14   4
BRANCH  15   5
ATOM      5  O   UNL     1      -4.188 -13.045  17.711  0.00  0.00    -0.389 OA
ATOM     38  H   UNL     1      -4.808 -13.369  18.386  0.00  0.00    +0.210 HD
ENDBRANCH  15   5
TORSDOF 11
ENDMDL
MODEL 9
REMARK VINA RESULT:      -6.1     28.154     31.156
REMARK  Name = 7050095
REMARK  13 active torsions:
REMARK  status: ('A' for Active; 'I' for Inactive)
REMARK    1  A    between atoms: O_4  and  C_14
REMARK    2  A    between atoms: O_5  and  C_15
REMARK    3  A    between atoms: O_9  and  C_33
REMARK    4  A    between atoms: O_9  and  C_34
REMARK    5  A    between atoms: N_10  and  C_16
REMARK    6  A    between atoms: N_11  and  C_20
REMARK    7  A    between atoms: N_12  and  C_28
REMARK    8  A    between atoms: C_18  and  C_21
REMARK    9  A    between atoms: C_20  and  C_22
REMARK   10  A    between atoms: C_20  and  C_27
REMARK   11  A    between atoms: C_22  and  C_23
REMARK   12  A    between atoms: C_23  and  C_25
REMARK   13  A    between atoms: C_23  and  C_26
REMARK                            x       y       z     vdW  Elec       q    Type
REMARK                         _______ _______ _______ _____ _____    ______ ____
ROOT
ATOM     14  C   UNL     1     -11.168 -10.814  20.245  0.00  0.00    +0.167 C 
ATOM     15  C   UNL     1     -12.692 -10.978  20.282  0.00  0.00    +0.149 C 
ATOM     16  C   UNL     1     -10.642 -10.753  18.798  0.00  0.00    +0.129 C 
ATOM     17  C   UNL     1     -13.413  -9.866  19.500  0.00  0.00    +0.074 C 
ATOM     18  C   UNL     1     -12.708  -9.476  18.232  0.00  0.00    +0.015 C 
ATOM     19  C   UNL     1     -11.469  -9.873  17.901  0.00  0.00    +0.006 C 
ENDROOT
BRANCH  16  10
ATOM      7  O   UNL     1      -8.548 -11.839  17.174  0.00  0.00    -0.252 OA
ATOM     10  N   UNL     1      -9.270 -10.309  18.749  0.00  0.00    -0.290 N 
ATOM     12  N   UNL     1      -7.072 -10.259  18.087  0.00  0.00    -0.269 N 
ATOM     24  C   UNL     1      -8.304 -10.897  17.923  0.00  0.00    +0.304 C 
ATOM     35  H   UNL     1      -8.976  -9.569  19.379  0.00  0.00    +0.151 HD
ATOM     39  H   UNL     1      -7.039  -9.491  18.752  0.00  0.00    +0.156 HD
BRANCH  12  28
ATOM     28  C   UNL     1      -5.849 -10.553  17.439  0.00  0.00    +0.035 A 
ATOM     29  C   UNL     1      -5.659 -10.184  16.108  0.00  0.00    +0.027 A 
ATOM     30  C   UNL     1      -4.833 -11.210  18.132  0.00  0.00    +0.027 A 
ATOM     31  C   UNL     1      -4.454 -10.474  15.469  0.00  0.00    +0.048 A 
ATOM     32  C   UNL     1      -3.627 -11.500  17.494  0.00  0.00    +0.048 A 
ATOM     33  C   UNL     1      -3.437 -11.132  16.162  0.00  0.00    +0.130 A 
BRANCH  33   9
ATOM      9  O   UNL     1      -2.260 -11.412  15.539  0.00  0.00    -0.406 OA
BRANCH   9  34
ATOM      1  F   UNL     1      -0.091 -10.786  15.539  0.00  0.00    -0.133 F 
ATOM      2  F   UNL     1      -1.413  -9.917  14.031  0.00  0.00    -0.133 F 
ATOM      3  F   UNL     1      -1.586  -9.314  16.150  0.00  0.00    -0.133 F 
ATOM     34  C   UNL     1      -1.348 -10.344  15.309  0.00  0.00    +0.575 C 
ENDBRANCH   9  34
ENDBRANCH  33   9
ENDBRANCH  12  28
ENDBRANCH  16  10
BRANCH  18  21
ATOM      6  O   UNL     1     -14.648  -8.615  17.245  0.00  0.00    -0.271 OA
ATOM     11  N   UNL     1     -12.571  -7.879  16.481  0.00  0.00    -0.300 N 
ATOM     21  C   UNL     1     -13.422  -8.622  17.279  0.00  0.00    +0.241 C 
ATOM     36  H   UNL     1     -11.570  -7.918  16.650  0.00  0.00    +0.150 HD
BRANCH  11  20
ATOM     20  C   UNL     1     -13.041  -6.970  15.468  0.00  0.00    +0.159 C 
BRANCH  20  27
ATOM      8  O   UNL     1     -11.839  -5.264  14.221  0.00  0.00    -0.274 OA
ATOM     13  N   UNL     1     -11.068  -5.848  16.303  0.00  0.00    -0.328 N 
ATOM     27  C   UNL     1     -11.932  -5.953  15.234  0.00  0.00    +0.231 C 
ATOM     40  H   UNL     1     -11.169  -6.409  17.144  0.00  0.00    +0.145 HD
ATOM     41  H   UNL     1     -10.291  -5.197  16.283  0.00  0.00    +0.145 HD
ENDBRANCH  20  27
BRANCH  20  22
ATOM     22  C   UNL     1     -13.388  -7.687  14.157  0.00  0.00    +0.034 C 
BRANCH  22  23
ATOM     23  C   UNL     1     -14.745  -7.287  13.541  0.00  0.00    -0.015 C 
ATOM     25  C   UNL     1     -15.612  -6.485  14.513  0.00  0.00    +0.007 C 
ATOM     26  C   UNL     1     -14.513  -6.474  12.265  0.00  0.00    +0.007 C 
ENDBRANCH  22  23
ENDBRANCH  20  22
ENDBRANCH  11  20
ENDBRANCH  18  21
BRANCH  14   4
ATOM      4  O   UNL     1     -10.818  -9.612  20.934  0.00  0.00    -0.387 OA
ATOM     37  H   UNL     1     -10.195  -9.851  21.641  0.00  0.00    +0.210 HD
ENDBRANCH  14   4
BRANCH  15   5
ATOM      5  O   UNL     1     -13.062 -12.255  19.769  0.00  0.00    -0.389 OA
ATOM     38  H   UNL     1     -12.245 -12.758  19.613  0.00  0.00    +0.210 HD
ENDBRANCH  15   5
TORSDOF 11
ENDMDL
MODEL 10
REMARK VINA RESULT:      -6.0     16.124     17.561
REMARK  Name = 7050095
REMARK  13 active torsions:
REMARK  status: ('A' for Active; 'I' for Inactive)
REMARK    1  A    between atoms: O_4  and  C_14
REMARK    2  A    between atoms: O_5  and  C_15
REMARK    3  A    between atoms: O_9  and  C_33
REMARK    4  A    between atoms: O_9  and  C_34
REMARK    5  A    between atoms: N_10  and  C_16
REMARK    6  A    between atoms: N_11  and  C_20
REMARK    7  A    between atoms: N_12  and  C_28
REMARK    8  A    between atoms: C_18  and  C_21
REMARK    9  A    between atoms: C_20  and  C_22
REMARK   10  A    between atoms: C_20  and  C_27
REMARK   11  A    between atoms: C_22  and  C_23
REMARK   12  A    between atoms: C_23  and  C_25
REMARK   13  A    between atoms: C_23  and  C_26
REMARK                            x       y       z     vdW  Elec       q    Type
REMARK                         _______ _______ _______ _____ _____    ______ ____
ROOT
ATOM     14  C   UNL     1      14.886   9.820   5.301  0.00  0.00    +0.167 C 
ATOM     15  C   UNL     1      13.532  10.120   5.956  0.00  0.00    +0.149 C 
ATOM     16  C   UNL     1      15.328   8.367   5.558  0.00  0.00    +0.129 C 
ATOM     17  C   UNL     1      12.438   9.142   5.496  0.00  0.00    +0.074 C 
ATOM     18  C   UNL     1      12.927   7.730   5.343  0.00  0.00    +0.015 C 
ATOM     19  C   UNL     1      14.218   7.368   5.377  0.00  0.00    +0.006 C 
ENDROOT
BRANCH  16  10
ATOM      7  O   UNL     1      18.102   8.894   6.038  0.00  0.00    -0.252 OA
ATOM     10  N   UNL     1      16.436   7.991   4.714  0.00  0.00    -0.290 N 
ATOM     12  N   UNL     1      18.619   7.800   4.026  0.00  0.00    -0.269 N 
ATOM     24  C   UNL     1      17.769   8.288   5.023  0.00  0.00    +0.304 C 
ATOM     35  H   UNL     1      16.239   7.534   3.828  0.00  0.00    +0.151 HD
ATOM     39  H   UNL     1      18.179   7.318   3.246  0.00  0.00    +0.156 HD
BRANCH  12  28
ATOM     28  C   UNL     1      20.029   7.895   3.964  0.00  0.00    +0.035 A 
ATOM     29  C   UNL     1      20.821   6.862   4.464  0.00  0.00    +0.027 A 
ATOM     30  C   UNL     1      20.627   9.023   3.401  0.00  0.00    +0.027 A 
ATOM     31  C   UNL     1      22.210   6.956   4.403  0.00  0.00    +0.048 A 
ATOM     32  C   UNL     1      22.017   9.117   3.340  0.00  0.00    +0.048 A 
ATOM     33  C   UNL     1      22.809   8.084   3.840  0.00  0.00    +0.130 A 
BRANCH  33   9
ATOM      9  O   UNL     1      24.166   8.174   3.779  0.00  0.00    -0.406 OA
BRANCH   9  34
ATOM      1  F   UNL     1      25.432   7.479   5.514  0.00  0.00    -0.133 F 
ATOM      2  F   UNL     1      25.857   9.442   4.652  0.00  0.00    -0.133 F 
ATOM      3  F   UNL     1      24.031   9.121   5.856  0.00  0.00    -0.133 F 
ATOM     34  C   UNL     1      24.869   8.572   4.950  0.00  0.00    +0.575 C 
ENDBRANCH   9  34
ENDBRANCH  33   9
ENDBRANCH  12  28
ENDBRANCH  16  10
BRANCH  18  21
ATOM      6  O   UNL     1      11.845   6.067   4.101  0.00  0.00    -0.271 OA
ATOM     11  N   UNL     1      11.156   6.465   6.292  0.00  0.00    -0.300 N 
ATOM     21  C   UNL     1      11.930   6.669   5.165  0.00  0.00    +0.241 C 
ATOM     36  H   UNL     1      11.366   6.982   7.141  0.00  0.00    +0.150 HD
BRANCH  11  20
ATOM     20  C   UNL     1      10.108   5.479   6.355  0.00  0.00    +0.159 C 
BRANCH  20  27
ATOM      8  O   UNL     1       9.351   5.896   8.627  0.00  0.00    -0.274 OA
ATOM     13  N   UNL     1      10.350   3.882   8.155  0.00  0.00    -0.328 N 
ATOM     27  C   UNL     1       9.901   5.143   7.826  0.00  0.00    +0.231 C 
ATOM     40  H   UNL     1      10.783   3.263   7.478  0.00  0.00    +0.145 HD
ATOM     41  H   UNL     1      10.259   3.528   9.102  0.00  0.00    +0.145 HD
ENDBRANCH  20  27
BRANCH  20  22
ATOM     22  C   UNL     1       8.798   5.979   5.735  0.00  0.00    +0.034 C 
BRANCH  22  23
ATOM     23  C   UNL     1       8.814   7.460   5.299  0.00  0.00    -0.015 C 
ATOM     25  C   UNL     1       8.219   7.663   3.904  0.00  0.00    +0.007 C 
ATOM     26  C   UNL     1       8.043   8.305   6.316  0.00  0.00    +0.007 C 
ENDBRANCH  22  23
ENDBRANCH  20  22
ENDBRANCH  11  20
ENDBRANCH  18  21
BRANCH  14   4
ATOM      4  O   UNL     1      14.777  10.048   3.895  0.00  0.00    -0.387 OA
ATOM     37  H   UNL     1      13.833  10.152   3.688  0.00  0.00    +0.210 HD
ENDBRANCH  14   4
BRANCH  15   5
ATOM      5  O   UNL     1      13.655  10.085   7.376  0.00  0.00    -0.389 OA
ATOM     38  H   UNL     1      12.998   9.453   7.713  0.00  0.00    +0.210 HD
ENDBRANCH  15   5
TORSDOF 11
ENDMDL
