MODEL 1
REMARK VINA RESULT:      -7.5      0.000      0.000
REMARK  Name = 45783811
REMARK  8 active torsions:
REMARK  status: ('A' for Active; 'I' for Inactive)
REMARK    1  A    between atoms: N_4  and  C_14
REMARK    2  A    between atoms: N_7  and  C_23
REMARK    3  A    between atoms: N_9  and  C_27
REMARK    4  A    between atoms: N_9  and  C_28
REMARK    5  A    between atoms: N_9  and  C_29
REMARK    6  A    between atoms: C_10  and  C_15
REMARK    7  A    between atoms: C_14  and  C_16
REMARK    8  A    between atoms: C_19  and  C_22
REMARK                            x       y       z     vdW  Elec       q    Type
REMARK                         _______ _______ _______ _____ _____    ______ ____
ROOT
ATOM      4  N   UNL     1      12.551   8.536  18.668  0.00  0.00    -0.287 NA
ATOM     10  C   UNL     1      13.656   7.683  18.185  0.00  0.00    +0.146 C 
ATOM     11  C   UNL     1      13.925   8.167  16.749  0.00  0.00    +0.030 C 
ATOM     12  C   UNL     1      12.885   9.248  16.492  0.00  0.00    +0.017 C 
ATOM     13  C   UNL     1      11.786   8.929  17.485  0.00  0.00    +0.085 C 
ENDROOT
BRANCH  10  15
ATOM      1  O   UNL     1      14.980   8.857  19.872  0.00  0.00    -0.336 OA
ATOM      5  N   UNL     1      15.886   6.930  19.177  0.00  0.00    -0.190 NA
ATOM      6  N   UNL     1      16.178   8.713  20.581  0.00  0.00    -0.056 NA
ATOM     15  C   UNL     1      14.884   7.765  19.069  0.00  0.00    +0.245 A 
ATOM     19  C   UNL     1      16.654   7.554  20.117  0.00  0.00    +0.204 A 
BRANCH  19  22
ATOM      8  N   UNL     1      19.610   5.307  20.322  0.00  0.00    -0.240 NA
ATOM     22  C   UNL     1      17.893   6.990  20.572  0.00  0.00    +0.041 A 
ATOM     24  C   UNL     1      18.572   7.533  21.657  0.00  0.00    +0.016 A 
ATOM     25  C   UNL     1      18.449   5.887  19.944  0.00  0.00    +0.124 A 
ATOM     26  C   UNL     1      19.770   6.963  22.075  0.00  0.00    +0.044 A 
ATOM     27  C   UNL     1      20.241   5.862  21.381  0.00  0.00    +0.121 A 
BRANCH  27   9
ATOM      9  N   UNL     1      21.464   5.294  21.818  0.00  0.00    -0.321 N 
ATOM     28  C   UNL     1      21.794   3.927  21.480  0.00  0.00    +0.130 C 
ATOM     29  C   UNL     1      22.386   6.076  22.613  0.00  0.00    +0.130 C 
ENDBRANCH  27   9
ENDBRANCH  19  22
ENDBRANCH  10  15
BRANCH   4  14
ATOM     14  C   UNL     1      11.717   7.884  19.668  0.00  0.00    +0.120 C 
BRANCH  14  16
ATOM     16  C   UNL     1      11.475   8.770  20.862  0.00  0.00    -0.033 A 
ATOM     17  C   UNL     1      11.822  10.120  20.811  0.00  0.00    +0.007 A 
ATOM     18  C   UNL     1      10.903   8.240  22.018  0.00  0.00    +0.007 A 
ATOM     20  C   UNL     1      11.598  10.939  21.917  0.00  0.00    +0.033 A 
ATOM     21  C   UNL     1      10.679   9.060  23.124  0.00  0.00    +0.033 A 
ATOM     23  C   UNL     1      11.027  10.410  23.074  0.00  0.00    +0.126 A 
BRANCH  23   7
ATOM      2  O   UNL     1      10.137  12.301  24.049  0.00  0.00    -0.126 OA
ATOM      3  O   UNL     1      11.265  10.904  25.314  0.00  0.00    -0.126 OA
ATOM      7  N   UNL     1      10.798  11.245  24.199  0.00  0.00    +0.056 N 
ENDBRANCH  23   7
ENDBRANCH  14  16
ENDBRANCH   4  14
TORSDOF 6
ENDMDL
MODEL 2
REMARK VINA RESULT:      -6.9      2.680      4.953
REMARK  Name = 45783811
REMARK  8 active torsions:
REMARK  status: ('A' for Active; 'I' for Inactive)
REMARK    1  A    between atoms: N_4  and  C_14
REMARK    2  A    between atoms: N_7  and  C_23
REMARK    3  A    between atoms: N_9  and  C_27
REMARK    4  A    between atoms: N_9  and  C_28
REMARK    5  A    between atoms: N_9  and  C_29
REMARK    6  A    between atoms: C_10  and  C_15
REMARK    7  A    between atoms: C_14  and  C_16
REMARK    8  A    between atoms: C_19  and  C_22
REMARK                            x       y       z     vdW  Elec       q    Type
REMARK                         _______ _______ _______ _____ _____    ______ ____
ROOT
ATOM      4  N   UNL     1      12.334   8.844  20.292  0.00  0.00    -0.287 NA
ATOM     10  C   UNL     1      13.072   8.180  21.386  0.00  0.00    +0.146 C 
ATOM     11  C   UNL     1      12.078   7.156  21.964  0.00  0.00    +0.030 C 
ATOM     12  C   UNL     1      10.793   7.361  21.174  0.00  0.00    +0.017 C 
ATOM     13  C   UNL     1      10.918   8.777  20.650  0.00  0.00    +0.085 C 
ENDROOT
BRANCH  10  15
ATOM      1  O   UNL     1      14.279   6.758  19.806  0.00  0.00    -0.336 OA
ATOM      5  N   UNL     1      15.565   7.625  21.422  0.00  0.00    -0.190 NA
ATOM      6  N   UNL     1      15.575   6.285  19.568  0.00  0.00    -0.056 NA
ATOM     15  C   UNL     1      14.362   7.540  20.914  0.00  0.00    +0.245 A 
ATOM     19  C   UNL     1      16.275   6.839  20.562  0.00  0.00    +0.204 A 
BRANCH  19  22
ATOM      8  N   UNL     1      19.758   7.265  21.793  0.00  0.00    -0.240 NA
ATOM     22  C   UNL     1      17.685   6.629  20.724  0.00  0.00    +0.041 A 
ATOM     24  C   UNL     1      18.349   5.636  20.011  0.00  0.00    +0.016 A 
ATOM     25  C   UNL     1      18.429   7.409  21.595  0.00  0.00    +0.124 A 
ATOM     26  C   UNL     1      19.717   5.457  20.189  0.00  0.00    +0.044 A 
ATOM     27  C   UNL     1      20.369   6.291  21.083  0.00  0.00    +0.121 A 
BRANCH  27   9
ATOM      9  N   UNL     1      21.762   6.095  21.254  0.00  0.00    -0.321 N 
ATOM     28  C   UNL     1      22.461   5.107  20.462  0.00  0.00    +0.130 C 
ATOM     29  C   UNL     1      22.492   6.878  22.227  0.00  0.00    +0.130 C 
ENDBRANCH  27   9
ENDBRANCH  19  22
ENDBRANCH  10  15
BRANCH   4  14
ATOM     14  C   UNL     1      12.775  10.211  20.050  0.00  0.00    +0.120 C 
BRANCH  14  16
ATOM     16  C   UNL     1      13.309  10.389  18.653  0.00  0.00    -0.033 A 
ATOM     17  C   UNL     1      13.919  11.589  18.286  0.00  0.00    +0.007 A 
ATOM     18  C   UNL     1      13.195   9.353  17.726  0.00  0.00    +0.007 A 
ATOM     20  C   UNL     1      14.412  11.752  16.992  0.00  0.00    +0.033 A 
ATOM     21  C   UNL     1      13.688   9.517  16.432  0.00  0.00    +0.033 A 
ATOM     23  C   UNL     1      14.298  10.717  16.064  0.00  0.00    +0.126 A 
BRANCH  23   7
ATOM      2  O   UNL     1      15.417   9.933  14.207  0.00  0.00    -0.126 OA
ATOM      3  O   UNL     1      14.618  11.978  14.161  0.00  0.00    -0.126 OA
ATOM      7  N   UNL     1      14.801  10.883  14.748  0.00  0.00    +0.056 N 
ENDBRANCH  23   7
ENDBRANCH  14  16
ENDBRANCH   4  14
TORSDOF 6
ENDMDL
MODEL 3
REMARK VINA RESULT:      -6.9     31.039     33.050
REMARK  Name = 45783811
REMARK  8 active torsions:
REMARK  status: ('A' for Active; 'I' for Inactive)
REMARK    1  A    between atoms: N_4  and  C_14
REMARK    2  A    between atoms: N_7  and  C_23
REMARK    3  A    between atoms: N_9  and  C_27
REMARK    4  A    between atoms: N_9  and  C_28
REMARK    5  A    between atoms: N_9  and  C_29
REMARK    6  A    between atoms: C_10  and  C_15
REMARK    7  A    between atoms: C_14  and  C_16
REMARK    8  A    between atoms: C_19  and  C_22
REMARK                            x       y       z     vdW  Elec       q    Type
REMARK                         _______ _______ _______ _____ _____    ______ ____
ROOT
ATOM      4  N   UNL     1     -14.524   5.472  33.129  0.00  0.00    -0.287 NA
ATOM     10  C   UNL     1     -15.976   5.675  32.947  0.00  0.00    +0.146 C 
ATOM     11  C   UNL     1     -16.171   7.200  33.036  0.00  0.00    +0.030 C 
ATOM     12  C   UNL     1     -14.788   7.761  33.330  0.00  0.00    +0.017 C 
ATOM     13  C   UNL     1     -14.049   6.590  33.944  0.00  0.00    +0.085 C 
ENDROOT
BRANCH  10  15
ATOM      1  O   UNL     1     -17.595   4.314  31.723  0.00  0.00    -0.336 OA
ATOM      5  N   UNL     1     -16.011   5.232  30.432  0.00  0.00    -0.190 NA
ATOM      6  N   UNL     1     -17.871   3.899  30.415  0.00  0.00    -0.056 NA
ATOM     15  C   UNL     1     -16.486   5.095  31.645  0.00  0.00    +0.245 A 
ATOM     19  C   UNL     1     -16.894   4.481  29.712  0.00  0.00    +0.204 A 
BRANCH  19  22
ATOM      8  N   UNL     1     -17.220   5.204  26.079  0.00  0.00    -0.240 NA
ATOM     22  C   UNL     1     -16.773   4.334  28.290  0.00  0.00    +0.041 A 
ATOM     24  C   UNL     1     -16.125   3.236  27.736  0.00  0.00    +0.016 A 
ATOM     25  C   UNL     1     -17.298   5.282  27.426  0.00  0.00    +0.124 A 
ATOM     26  C   UNL     1     -16.023   3.121  26.353  0.00  0.00    +0.044 A 
ATOM     27  C   UNL     1     -16.583   4.122  25.577  0.00  0.00    +0.121 A 
BRANCH  27   9
ATOM      9  N   UNL     1     -16.471   3.991  24.170  0.00  0.00    -0.321 N 
ATOM     28  C   UNL     1     -15.350   4.581  23.471  0.00  0.00    +0.130 C 
ATOM     29  C   UNL     1     -17.480   3.273  23.424  0.00  0.00    +0.130 C 
ENDBRANCH  27   9
ENDBRANCH  19  22
ENDBRANCH  10  15
BRANCH   4  14
ATOM     14  C   UNL     1     -14.195   4.182  33.722  0.00  0.00    +0.120 C 
BRANCH  14  16
ATOM     16  C   UNL     1     -14.171   3.082  32.695  0.00  0.00    -0.033 A 
ATOM     17  C   UNL     1     -14.894   1.908  32.910  0.00  0.00    +0.007 A 
ATOM     18  C   UNL     1     -13.425   3.237  31.526  0.00  0.00    +0.007 A 
ATOM     20  C   UNL     1     -14.870   0.890  31.958  0.00  0.00    +0.033 A 
ATOM     21  C   UNL     1     -13.401   2.218  30.574  0.00  0.00    +0.033 A 
ATOM     23  C   UNL     1     -14.124   1.044  30.789  0.00  0.00    +0.126 A 
BRANCH  23   7
ATOM      2  O   UNL     1     -13.107  -0.759  29.772  0.00  0.00    -0.126 OA
ATOM      3  O   UNL     1     -15.073  -0.115  29.036  0.00  0.00    -0.126 OA
ATOM      7  N   UNL     1     -14.100   0.007  29.820  0.00  0.00    +0.056 N 
ENDBRANCH  23   7
ENDBRANCH  14  16
ENDBRANCH   4  14
TORSDOF 6
ENDMDL
MODEL 4
REMARK VINA RESULT:      -6.7      3.045      4.546
REMARK  Name = 45783811
REMARK  8 active torsions:
REMARK  status: ('A' for Active; 'I' for Inactive)
REMARK    1  A    between atoms: N_4  and  C_14
REMARK    2  A    between atoms: N_7  and  C_23
REMARK    3  A    between atoms: N_9  and  C_27
REMARK    4  A    between atoms: N_9  and  C_28
REMARK    5  A    between atoms: N_9  and  C_29
REMARK    6  A    between atoms: C_10  and  C_15
REMARK    7  A    between atoms: C_14  and  C_16
REMARK    8  A    between atoms: C_19  and  C_22
REMARK                            x       y       z     vdW  Elec       q    Type
REMARK                         _______ _______ _______ _____ _____    ______ ____
ROOT
ATOM      4  N   UNL     1      15.398   8.778  22.053  0.00  0.00    -0.287 NA
ATOM     10  C   UNL     1      16.168   8.876  20.797  0.00  0.00    +0.146 C 
ATOM     11  C   UNL     1      16.790  10.283  20.829  0.00  0.00    +0.030 C 
ATOM     12  C   UNL     1      16.265  10.922  22.106  0.00  0.00    +0.017 C 
ATOM     13  C   UNL     1      15.000  10.142  22.401  0.00  0.00    +0.085 C 
ENDROOT
BRANCH  10  15
ATOM      1  O   UNL     1      17.067   6.940  19.605  0.00  0.00    -0.336 OA
ATOM      5  N   UNL     1      18.235   7.514  21.429  0.00  0.00    -0.190 NA
ATOM      6  N   UNL     1      18.125   6.027  19.693  0.00  0.00    -0.056 NA
ATOM     15  C   UNL     1      17.206   7.781  20.664  0.00  0.00    +0.245 A 
ATOM     19  C   UNL     1      18.768   6.431  20.793  0.00  0.00    +0.204 A 
BRANCH  19  22
ATOM      8  N   UNL     1      21.574   5.503  23.049  0.00  0.00    -0.240 NA
ATOM     22  C   UNL     1      19.947   5.776  21.282  0.00  0.00    +0.041 A 
ATOM     24  C   UNL     1      20.602   4.815  20.520  0.00  0.00    +0.016 A 
ATOM     25  C   UNL     1      20.468   6.081  22.530  0.00  0.00    +0.124 A 
ATOM     26  C   UNL     1      21.743   4.198  21.021  0.00  0.00    +0.044 A 
ATOM     27  C   UNL     1      22.184   4.574  22.279  0.00  0.00    +0.121 A 
BRANCH  27   9
ATOM      9  N   UNL     1      23.348   3.935  22.776  0.00  0.00    -0.321 N 
ATOM     28  C   UNL     1      24.532   4.709  23.074  0.00  0.00    +0.130 C 
ATOM     29  C   UNL     1      23.360   2.504  22.981  0.00  0.00    +0.130 C 
ENDBRANCH  27   9
ENDBRANCH  19  22
ENDBRANCH  10  15
BRANCH   4  14
ATOM     14  C   UNL     1      14.253   7.881  21.957  0.00  0.00    +0.120 C 
BRANCH  14  16
ATOM     16  C   UNL     1      13.517   8.049  20.654  0.00  0.00    -0.033 A 
ATOM     17  C   UNL     1      12.804   9.221  20.400  0.00  0.00    +0.007 A 
ATOM     18  C   UNL     1      13.550   7.032  19.699  0.00  0.00    +0.007 A 
ATOM     20  C   UNL     1      12.122   9.374  19.193  0.00  0.00    +0.033 A 
ATOM     21  C   UNL     1      12.868   7.186  18.492  0.00  0.00    +0.033 A 
ATOM     23  C   UNL     1      12.154   8.357  18.239  0.00  0.00    +0.126 A 
BRANCH  23   7
ATOM      2  O   UNL     1      10.229   8.274  16.971  0.00  0.00    -0.126 OA
ATOM      3  O   UNL     1      12.098   8.888  15.996  0.00  0.00    -0.126 OA
ATOM      7  N   UNL     1      11.461   8.514  17.010  0.00  0.00    +0.056 N 
ENDBRANCH  23   7
ENDBRANCH  14  16
ENDBRANCH   4  14
TORSDOF 6
ENDMDL
MODEL 5
REMARK VINA RESULT:      -6.6      2.695      5.247
REMARK  Name = 45783811
REMARK  8 active torsions:
REMARK  status: ('A' for Active; 'I' for Inactive)
REMARK    1  A    between atoms: N_4  and  C_14
REMARK    2  A    between atoms: N_7  and  C_23
REMARK    3  A    between atoms: N_9  and  C_27
REMARK    4  A    between atoms: N_9  and  C_28
REMARK    5  A    between atoms: N_9  and  C_29
REMARK    6  A    between atoms: C_10  and  C_15
REMARK    7  A    between atoms: C_14  and  C_16
REMARK    8  A    between atoms: C_19  and  C_22
REMARK                            x       y       z     vdW  Elec       q    Type
REMARK                         _______ _______ _______ _____ _____    ______ ____
ROOT
ATOM      4  N   UNL     1      12.182  12.005  23.911  0.00  0.00    -0.287 NA
ATOM     10  C   UNL     1      13.219  12.956  23.463  0.00  0.00    +0.146 C 
ATOM     11  C   UNL     1      13.745  13.600  24.759  0.00  0.00    +0.030 C 
ATOM     12  C   UNL     1      12.903  12.996  25.873  0.00  0.00    +0.017 C 
ATOM     13  C   UNL     1      11.645  12.538  25.163  0.00  0.00    +0.085 C 
ENDROOT
BRANCH  10  15
ATOM      1  O   UNL     1      14.932  13.055  21.722  0.00  0.00    -0.336 OA
ATOM      5  N   UNL     1      14.761  11.059  22.724  0.00  0.00    -0.190 NA
ATOM      6  N   UNL     1      15.888  12.232  21.115  0.00  0.00    -0.056 NA
ATOM     15  C   UNL     1      14.313  12.288  22.657  0.00  0.00    +0.245 A 
ATOM     19  C   UNL     1      15.726  11.073  21.759  0.00  0.00    +0.204 A 
BRANCH  19  22
ATOM      8  N   UNL     1      18.635   8.761  21.615  0.00  0.00    -0.240 NA
ATOM     22  C   UNL     1      16.513   9.910  21.466  0.00  0.00    +0.041 A 
ATOM     24  C   UNL     1      15.970   8.831  20.777  0.00  0.00    +0.016 A 
ATOM     25  C   UNL     1      17.839   9.825  21.860  0.00  0.00    +0.124 A 
ATOM     26  C   UNL     1      16.758   7.718  20.506  0.00  0.00    +0.044 A 
ATOM     27  C   UNL     1      18.072   7.733  20.942  0.00  0.00    +0.121 A 
BRANCH  27   9
ATOM      9  N   UNL     1      18.862   6.590  20.660  0.00  0.00    -0.321 N 
ATOM     28  C   UNL     1      18.424   5.628  19.674  0.00  0.00    +0.130 C 
ATOM     29  C   UNL     1      20.108   6.376  21.363  0.00  0.00    +0.130 C 
ENDBRANCH  27   9
ENDBRANCH  19  22
ENDBRANCH  10  15
BRANCH   4  14
ATOM     14  C   UNL     1      11.139  11.784  22.918  0.00  0.00    +0.120 C 
BRANCH  14  16
ATOM     16  C   UNL     1      11.243  10.419  22.289  0.00  0.00    -0.033 A 
ATOM     17  C   UNL     1      10.807   9.293  22.988  0.00  0.00    +0.007 A 
ATOM     18  C   UNL     1      11.776  10.281  21.008  0.00  0.00    +0.007 A 
ATOM     20  C   UNL     1      10.905   8.030  22.405  0.00  0.00    +0.033 A 
ATOM     21  C   UNL     1      11.874   9.018  20.425  0.00  0.00    +0.033 A 
ATOM     23  C   UNL     1      11.439   7.892  21.123  0.00  0.00    +0.126 A 
BRANCH  23   7
ATOM      2  O   UNL     1      12.101   6.492  19.415  0.00  0.00    -0.126 OA
ATOM      3  O   UNL     1      11.057   5.618  21.137  0.00  0.00    -0.126 OA
ATOM      7  N   UNL     1      11.538   6.606  20.530  0.00  0.00    +0.056 N 
ENDBRANCH  23   7
ENDBRANCH  14  16
ENDBRANCH   4  14
TORSDOF 6
ENDMDL
MODEL 6
REMARK VINA RESULT:      -6.6      1.587      2.195
REMARK  Name = 45783811
REMARK  8 active torsions:
REMARK  status: ('A' for Active; 'I' for Inactive)
REMARK    1  A    between atoms: N_4  and  C_14
REMARK    2  A    between atoms: N_7  and  C_23
REMARK    3  A    between atoms: N_9  and  C_27
REMARK    4  A    between atoms: N_9  and  C_28
REMARK    5  A    between atoms: N_9  and  C_29
REMARK    6  A    between atoms: C_10  and  C_15
REMARK    7  A    between atoms: C_14  and  C_16
REMARK    8  A    between atoms: C_19  and  C_22
REMARK                            x       y       z     vdW  Elec       q    Type
REMARK                         _______ _______ _______ _____ _____    ______ ____
ROOT
ATOM      4  N   UNL     1      13.849   9.255  19.064  0.00  0.00    -0.287 NA
ATOM     10  C   UNL     1      13.848   8.006  19.851  0.00  0.00    +0.146 C 
ATOM     11  C   UNL     1      12.701   7.170  19.257  0.00  0.00    +0.030 C 
ATOM     12  C   UNL     1      12.078   8.054  18.186  0.00  0.00    +0.017 C 
ATOM     13  C   UNL     1      12.475   9.455  18.604  0.00  0.00    +0.085 C 
ENDROOT
BRANCH  10  15
ATOM      1  O   UNL     1      15.362   6.415  18.778  0.00  0.00    -0.336 OA
ATOM      5  N   UNL     1      16.203   7.378  20.618  0.00  0.00    -0.190 NA
ATOM      6  N   UNL     1      16.646   5.882  18.945  0.00  0.00    -0.056 NA
ATOM     15  C   UNL     1      15.181   7.287  19.804  0.00  0.00    +0.245 A 
ATOM     19  C   UNL     1      17.077   6.498  20.050  0.00  0.00    +0.204 A 
BRANCH  19  22
ATOM      8  N   UNL     1      20.012   6.763  22.317  0.00  0.00    -0.240 NA
ATOM     22  C   UNL     1      18.375   6.259  20.611  0.00  0.00    +0.041 A 
ATOM     24  C   UNL     1      19.245   5.337  20.038  0.00  0.00    +0.016 A 
ATOM     25  C   UNL     1      18.803   6.939  21.740  0.00  0.00    +0.124 A 
ATOM     26  C   UNL     1      20.498   5.128  20.605  0.00  0.00    +0.044 A 
ATOM     27  C   UNL     1      20.830   5.859  21.733  0.00  0.00    +0.121 A 
BRANCH  27   9
ATOM      9  N   UNL     1      22.110   5.634  22.299  0.00  0.00    -0.321 N 
ATOM     28  C   UNL     1      23.244   5.357  21.446  0.00  0.00    +0.130 C 
ATOM     29  C   UNL     1      22.287   5.671  23.733  0.00  0.00    +0.130 C 
ENDBRANCH  27   9
ENDBRANCH  19  22
ENDBRANCH  10  15
BRANCH   4  14
ATOM     14  C   UNL     1      14.350  10.403  19.809  0.00  0.00    +0.120 C 
BRANCH  14  16
ATOM     16  C   UNL     1      13.487  10.717  21.003  0.00  0.00    -0.033 A 
ATOM     17  C   UNL     1      13.995  10.561  22.293  0.00  0.00    +0.007 A 
ATOM     18  C   UNL     1      12.179  11.164  20.819  0.00  0.00    +0.007 A 
ATOM     20  C   UNL     1      13.194  10.851  23.397  0.00  0.00    +0.033 A 
ATOM     21  C   UNL     1      11.378  11.454  21.923  0.00  0.00    +0.033 A 
ATOM     23  C   UNL     1      11.886  11.297  23.213  0.00  0.00    +0.126 A 
BRANCH  23   7
ATOM      2  O   UNL     1      11.289  10.995  25.420  0.00  0.00    -0.126 OA
ATOM      3  O   UNL     1      10.156  12.442  24.219  0.00  0.00    -0.126 OA
ATOM      7  N   UNL     1      11.072  11.592  24.338  0.00  0.00    +0.056 N 
ENDBRANCH  23   7
ENDBRANCH  14  16
ENDBRANCH   4  14
TORSDOF 6
ENDMDL
MODEL 7
REMARK VINA RESULT:      -6.5     27.152     29.200
REMARK  Name = 45783811
REMARK  8 active torsions:
REMARK  status: ('A' for Active; 'I' for Inactive)
REMARK    1  A    between atoms: N_4  and  C_14
REMARK    2  A    between atoms: N_7  and  C_23
REMARK    3  A    between atoms: N_9  and  C_27
REMARK    4  A    between atoms: N_9  and  C_28
REMARK    5  A    between atoms: N_9  and  C_29
REMARK    6  A    between atoms: C_10  and  C_15
REMARK    7  A    between atoms: C_14  and  C_16
REMARK    8  A    between atoms: C_19  and  C_22
REMARK                            x       y       z     vdW  Elec       q    Type
REMARK                         _______ _______ _______ _____ _____    ______ ____
ROOT
ATOM      4  N   UNL     1      -3.272 -11.764  14.207  0.00  0.00    -0.287 NA
ATOM     10  C   UNL     1      -2.354 -11.759  13.051  0.00  0.00    +0.146 C 
ATOM     11  C   UNL     1      -2.239 -13.237  12.637  0.00  0.00    +0.030 C 
ATOM     12  C   UNL     1      -3.075 -14.001  13.653  0.00  0.00    +0.017 C 
ATOM     13  C   UNL     1      -3.123 -13.071  14.848  0.00  0.00    +0.085 C 
ENDROOT
BRANCH  10  15
ATOM      1  O   UNL     1      -1.959  -9.954  11.451  0.00  0.00    -0.336 OA
ATOM      5  N   UNL     1      -4.007 -10.854  11.327  0.00  0.00    -0.190 NA
ATOM      6  N   UNL     1      -2.626  -9.264  10.432  0.00  0.00    -0.056 NA
ATOM     15  C   UNL     1      -2.842 -10.872  11.924  0.00  0.00    +0.245 A 
ATOM     19  C   UNL     1      -3.826  -9.851  10.419  0.00  0.00    +0.204 A 
BRANCH  19  22
ATOM      8  N   UNL     1      -5.893  -9.676   7.333  0.00  0.00    -0.240 NA
ATOM     22  C   UNL     1      -4.867  -9.462   9.511  0.00  0.00    +0.041 A 
ATOM     24  C   UNL     1      -5.833  -8.534   9.883  0.00  0.00    +0.016 A 
ATOM     25  C   UNL     1      -4.941 -10.000   8.236  0.00  0.00    +0.124 A 
ATOM     26  C   UNL     1      -6.829  -8.176   8.981  0.00  0.00    +0.044 A 
ATOM     27  C   UNL     1      -6.814  -8.770   7.730  0.00  0.00    +0.121 A 
BRANCH  27   9
ATOM      9  N   UNL     1      -7.837  -8.397   6.822  0.00  0.00    -0.321 N 
ATOM     28  C   UNL     1      -8.293  -9.329   5.815  0.00  0.00    +0.130 C 
ATOM     29  C   UNL     1      -8.424  -7.077   6.892  0.00  0.00    +0.130 C 
ENDBRANCH  27   9
ENDBRANCH  19  22
ENDBRANCH  10  15
BRANCH   4  14
ATOM     14  C   UNL     1      -3.031 -10.668  15.137  0.00  0.00    +0.120 C 
BRANCH  14  16
ATOM     16  C   UNL     1      -3.919 -10.756  16.350  0.00  0.00    -0.033 A 
ATOM     17  C   UNL     1      -5.217 -10.249  16.304  0.00  0.00    +0.007 A 
ATOM     18  C   UNL     1      -3.441 -11.345  17.521  0.00  0.00    +0.007 A 
ATOM     20  C   UNL     1      -6.038 -10.331  17.429  0.00  0.00    +0.033 A 
ATOM     21  C   UNL     1      -4.261 -11.426  18.646  0.00  0.00    +0.033 A 
ATOM     23  C   UNL     1      -5.561 -10.919  18.600  0.00  0.00    +0.126 A 
BRANCH  23   7
ATOM      2  O   UNL     1      -5.885 -11.303  20.851  0.00  0.00    -0.126 OA
ATOM      3  O   UNL     1      -7.624 -10.774  19.619  0.00  0.00    -0.126 OA
ATOM      7  N   UNL     1      -6.396 -11.002  19.745  0.00  0.00    +0.056 N 
ENDBRANCH  23   7
ENDBRANCH  14  16
ENDBRANCH   4  14
TORSDOF 6
ENDMDL
MODEL 8
REMARK VINA RESULT:      -6.5     27.411     29.138
REMARK  Name = 45783811
REMARK  8 active torsions:
REMARK  status: ('A' for Active; 'I' for Inactive)
REMARK    1  A    between atoms: N_4  and  C_14
REMARK    2  A    between atoms: N_7  and  C_23
REMARK    3  A    between atoms: N_9  and  C_27
REMARK    4  A    between atoms: N_9  and  C_28
REMARK    5  A    between atoms: N_9  and  C_29
REMARK    6  A    between atoms: C_10  and  C_15
REMARK    7  A    between atoms: C_14  and  C_16
REMARK    8  A    between atoms: C_19  and  C_22
REMARK                            x       y       z     vdW  Elec       q    Type
REMARK                         _______ _______ _______ _____ _____    ______ ____
ROOT
ATOM      4  N   UNL     1      -5.261  -9.576   9.204  0.00  0.00    -0.287 NA
ATOM     10  C   UNL     1      -6.181  -8.666   9.915  0.00  0.00    +0.146 C 
ATOM     11  C   UNL     1      -7.407  -8.548   8.990  0.00  0.00    +0.030 C 
ATOM     12  C   UNL     1      -7.057  -9.373   7.760  0.00  0.00    +0.017 C 
ATOM     13  C   UNL     1      -5.543  -9.417   7.777  0.00  0.00    +0.085 C 
ENDROOT
BRANCH  10  15
ATOM      1  O   UNL     1      -7.833  -9.536  11.493  0.00  0.00    -0.336 OA
ATOM      5  N   UNL     1      -5.780  -9.297  12.358  0.00  0.00    -0.190 NA
ATOM      6  N   UNL     1      -7.921  -9.954  12.826  0.00  0.00    -0.056 NA
ATOM     15  C   UNL     1      -6.540  -9.166  11.299  0.00  0.00    +0.245 A 
ATOM     19  C   UNL     1      -6.672  -9.783  13.269  0.00  0.00    +0.204 A 
BRANCH  19  22
ATOM      8  N   UNL     1      -6.909 -10.402  16.928  0.00  0.00    -0.240 NA
ATOM     22  C   UNL     1      -6.280 -10.091  14.614  0.00  0.00    +0.041 A 
ATOM     24  C   UNL     1      -4.955 -10.369  14.929  0.00  0.00    +0.016 A 
ATOM     25  C   UNL     1      -7.211 -10.121  15.641  0.00  0.00    +0.124 A 
ATOM     26  C   UNL     1      -4.606 -10.664  16.243  0.00  0.00    +0.044 A 
ATOM     27  C   UNL     1      -5.611 -10.667  17.196  0.00  0.00    +0.121 A 
BRANCH  27   9
ATOM      9  N   UNL     1      -5.239 -10.970  18.530  0.00  0.00    -0.321 N 
ATOM     28  C   UNL     1      -4.082 -11.796  18.793  0.00  0.00    +0.130 C 
ATOM     29  C   UNL     1      -6.020 -10.460  19.635  0.00  0.00    +0.130 C 
ENDBRANCH  27   9
ENDBRANCH  19  22
ENDBRANCH  10  15
BRANCH   4  14
ATOM     14  C   UNL     1      -3.859  -9.333   9.515  0.00  0.00    +0.120 C 
BRANCH  14  16
ATOM     16  C   UNL     1      -3.328 -10.320  10.522  0.00  0.00    -0.033 A 
ATOM     17  C   UNL     1      -2.366  -9.922  11.450  0.00  0.00    +0.007 A 
ATOM     18  C   UNL     1      -3.801 -11.632  10.526  0.00  0.00    +0.007 A 
ATOM     20  C   UNL     1      -1.875 -10.838  12.381  0.00  0.00    +0.033 A 
ATOM     21  C   UNL     1      -3.310 -12.548  11.457  0.00  0.00    +0.033 A 
ATOM     23  C   UNL     1      -2.347 -12.151  12.385  0.00  0.00    +0.126 A 
BRANCH  23   7
ATOM      2  O   UNL     1      -1.662 -14.271  12.978  0.00  0.00    -0.126 OA
ATOM      3  O   UNL     1      -1.607 -12.690  14.501  0.00  0.00    -0.126 OA
ATOM      7  N   UNL     1      -1.848 -13.082  13.333  0.00  0.00    +0.056 N 
ENDBRANCH  23   7
ENDBRANCH  14  16
ENDBRANCH   4  14
TORSDOF 6
ENDMDL
MODEL 9
REMARK VINA RESULT:      -6.4     26.589     29.627
REMARK  Name = 45783811
REMARK  8 active torsions:
REMARK  status: ('A' for Active; 'I' for Inactive)
REMARK    1  A    between atoms: N_4  and  C_14
REMARK    2  A    between atoms: N_7  and  C_23
REMARK    3  A    between atoms: N_9  and  C_27
REMARK    4  A    between atoms: N_9  and  C_28
REMARK    5  A    between atoms: N_9  and  C_29
REMARK    6  A    between atoms: C_10  and  C_15
REMARK    7  A    between atoms: C_14  and  C_16
REMARK    8  A    between atoms: C_19  and  C_22
REMARK                            x       y       z     vdW  Elec       q    Type
REMARK                         _______ _______ _______ _____ _____    ______ ____
ROOT
ATOM      4  N   UNL     1      -3.048 -10.731  14.339  0.00  0.00    -0.287 NA
ATOM     10  C   UNL     1      -2.869 -11.289  15.694  0.00  0.00    +0.146 C 
ATOM     11  C   UNL     1      -1.611 -10.590  16.242  0.00  0.00    +0.030 C 
ATOM     12  C   UNL     1      -1.120  -9.707  15.104  0.00  0.00    +0.017 C 
ATOM     13  C   UNL     1      -1.716 -10.351  13.869  0.00  0.00    +0.085 C 
ENDROOT
BRANCH  10  15
ATOM      1  O   UNL     1      -3.932 -11.369  17.894  0.00  0.00    -0.336 OA
ATOM      5  N   UNL     1      -5.281 -10.661  16.252  0.00  0.00    -0.190 NA
ATOM      6  N   UNL     1      -5.169 -11.104  18.494  0.00  0.00    -0.056 NA
ATOM     15  C   UNL     1      -4.084 -11.081  16.574  0.00  0.00    +0.245 A 
ATOM     19  C   UNL     1      -5.911 -10.691  17.462  0.00  0.00    +0.204 A 
BRANCH  19  22
ATOM      8  N   UNL     1      -9.443 -10.680  18.624  0.00  0.00    -0.240 NA
ATOM     22  C   UNL     1      -7.284 -10.300  17.605  0.00  0.00    +0.041 A 
ATOM     24  C   UNL     1      -7.796  -9.212  16.907  0.00  0.00    +0.016 A 
ATOM     25  C   UNL     1      -8.141 -10.994  18.444  0.00  0.00    +0.124 A 
ATOM     26  C   UNL     1      -9.131  -8.857  17.067  0.00  0.00    +0.044 A 
ATOM     27  C   UNL     1      -9.905  -9.617  17.928  0.00  0.00    +0.121 A 
BRANCH  27   9
ATOM      9  N   UNL     1     -11.264  -9.242  18.081  0.00  0.00    -0.321 N 
ATOM     28  C   UNL     1     -11.901  -8.396  17.096  0.00  0.00    +0.130 C 
ATOM     29  C   UNL     1     -12.019  -9.697  19.228  0.00  0.00    +0.130 C 
ENDBRANCH  27   9
ENDBRANCH  19  22
ENDBRANCH  10  15
BRANCH   4  14
ATOM     14  C   UNL     1      -3.710 -11.649  13.422  0.00  0.00    +0.120 C 
BRANCH  14  16
ATOM     16  C   UNL     1      -4.293 -10.932  12.233  0.00  0.00    -0.033 A 
ATOM     17  C   UNL     1      -5.376 -10.069  12.398  0.00  0.00    +0.007 A 
ATOM     18  C   UNL     1      -3.748 -11.131  10.964  0.00  0.00    +0.007 A 
ATOM     20  C   UNL     1      -5.914  -9.406  11.296  0.00  0.00    +0.033 A 
ATOM     21  C   UNL     1      -4.286 -10.468   9.861  0.00  0.00    +0.033 A 
ATOM     23  C   UNL     1      -5.370  -9.606  10.027  0.00  0.00    +0.126 A 
BRANCH  23   7
ATOM      2  O   UNL     1      -6.558  -7.866   9.088  0.00  0.00    -0.126 OA
ATOM      3  O   UNL     1      -5.750  -9.417   7.761  0.00  0.00    -0.126 OA
ATOM      7  N   UNL     1      -5.918  -8.930   8.905  0.00  0.00    +0.056 N 
ENDBRANCH  23   7
ENDBRANCH  14  16
ENDBRANCH   4  14
TORSDOF 6
ENDMDL
MODEL 10
REMARK VINA RESULT:      -6.4     14.455     17.414
REMARK  Name = 45783811
REMARK  8 active torsions:
REMARK  status: ('A' for Active; 'I' for Inactive)
REMARK    1  A    between atoms: N_4  and  C_14
REMARK    2  A    between atoms: N_7  and  C_23
REMARK    3  A    between atoms: N_9  and  C_27
REMARK    4  A    between atoms: N_9  and  C_28
REMARK    5  A    between atoms: N_9  and  C_29
REMARK    6  A    between atoms: C_10  and  C_15
REMARK    7  A    between atoms: C_14  and  C_16
REMARK    8  A    between atoms: C_19  and  C_22
REMARK                            x       y       z     vdW  Elec       q    Type
REMARK                         _______ _______ _______ _____ _____    ______ ____
ROOT
ATOM      4  N   UNL     1       9.910   6.682   5.622  0.00  0.00    -0.287 NA
ATOM     10  C   UNL     1      10.624   7.779   6.305  0.00  0.00    +0.146 C 
ATOM     11  C   UNL     1      10.041   7.797   7.730  0.00  0.00    +0.030 C 
ATOM     12  C   UNL     1       8.966   6.720   7.733  0.00  0.00    +0.017 C 
ATOM     13  C   UNL     1       8.603   6.573   6.270  0.00  0.00    +0.085 C 
ENDROOT
BRANCH  10  15
ATOM      1  O   UNL     1      12.636   6.707   7.188  0.00  0.00    -0.336 OA
ATOM      5  N   UNL     1      13.029   8.167   5.536  0.00  0.00    -0.190 NA
ATOM      6  N   UNL     1      14.022   6.706   6.990  0.00  0.00    -0.056 NA
ATOM     15  C   UNL     1      12.128   7.592   6.292  0.00  0.00    +0.245 A 
ATOM     19  C   UNL     1      14.175   7.592   6.001  0.00  0.00    +0.204 A 
BRANCH  19  22
ATOM      8  N   UNL     1      17.654   8.885   5.770  0.00  0.00    -0.240 NA
ATOM     22  C   UNL     1      15.459   7.922   5.453  0.00  0.00    +0.041 A 
ATOM     24  C   UNL     1      15.771   7.627   4.130  0.00  0.00    +0.016 A 
ATOM     25  C   UNL     1      16.427   8.546   6.224  0.00  0.00    +0.124 A 
ATOM     26  C   UNL     1      17.025   7.961   3.627  0.00  0.00    +0.044 A 
ATOM     27  C   UNL     1      17.921   8.583   4.480  0.00  0.00    +0.121 A 
BRANCH  27   9
ATOM      9  N   UNL     1      19.194   8.915   3.952  0.00  0.00    -0.321 N 
ATOM     28  C   UNL     1      19.694  10.268   4.055  0.00  0.00    +0.130 C 
ATOM     29  C   UNL     1      19.998   7.904   3.301  0.00  0.00    +0.130 C 
ENDBRANCH  27   9
ENDBRANCH  19  22
ENDBRANCH  10  15
BRANCH   4  14
ATOM     14  C   UNL     1       9.793   6.882   4.183  0.00  0.00    +0.120 C 
BRANCH  14  16
ATOM     16  C   UNL     1      10.716   5.974   3.414  0.00  0.00    -0.033 A 
ATOM     17  C   UNL     1      11.795   6.508   2.709  0.00  0.00    +0.007 A 
ATOM     18  C   UNL     1      10.492   4.597   3.407  0.00  0.00    +0.007 A 
ATOM     20  C   UNL     1      12.648   5.666   1.996  0.00  0.00    +0.033 A 
ATOM     21  C   UNL     1      11.345   3.755   2.695  0.00  0.00    +0.033 A 
ATOM     23  C   UNL     1      12.424   4.289   1.989  0.00  0.00    +0.126 A 
BRANCH  23   7
ATOM      2  O   UNL     1      12.964   3.068   0.109  0.00  0.00    -0.126 OA
ATOM      3  O   UNL     1      14.366   3.061   1.799  0.00  0.00    -0.126 OA
ATOM      7  N   UNL     1      13.293   3.432   1.264  0.00  0.00    +0.056 N 
ENDBRANCH  23   7
ENDBRANCH  14  16
ENDBRANCH   4  14
TORSDOF 6
ENDMDL
