MODEL 1
REMARK VINA RESULT:      -7.0      0.000      0.000
REMARK  Name = 7144188
REMARK  4 active torsions:
REMARK  status: ('A' for Active; 'I' for Inactive)
REMARK    1  A    between atoms: O_6  and  C_30
REMARK    2  A    between atoms: O_6  and  C_33
REMARK    3  A    between atoms: C_18  and  C_23
REMARK    4  A    between atoms: C_20  and  C_24
REMARK                            x       y       z     vdW  Elec       q    Type
REMARK                         _______ _______ _______ _____ _____    ______ ____
ROOT
ATOM      4  O   UNL     1       7.272   8.645   3.942  0.00  0.00    -0.268 OA
ATOM      5  O   UNL     1      10.846   9.785   7.360  0.00  0.00    -0.268 OA
ATOM      7  N   UNL     1       8.957   7.148   4.580  0.00  0.00    -0.311 N 
ATOM      8  N   UNL     1      11.141   7.526   6.829  0.00  0.00    -0.295 N 
ATOM     11  C   UNL     1       9.061   6.178   6.954  0.00  0.00    +0.027 C 
ATOM     12  C   UNL     1      10.793   5.592   5.307  0.00  0.00    +0.054 C 
ATOM     13  C   UNL     1       9.775   5.011   6.288  0.00  0.00    +0.018 C 
ATOM     14  C   UNL     1       8.296   6.954   5.880  0.00  0.00    +0.130 C 
ATOM     15  C   UNL     1      10.064   7.070   7.705  0.00  0.00    +0.113 C 
ATOM     16  C   UNL     1      11.814   6.459   6.075  0.00  0.00    +0.117 C 
ATOM     17  C   UNL     1      10.113   6.427   4.218  0.00  0.00    +0.034 A 
ATOM     18  C   UNL     1      10.599   6.518   2.953  0.00  0.00    +0.002 A 
ATOM     19  C   UNL     1       8.291   8.003   3.684  0.00  0.00    +0.252 A 
ATOM     20  C   UNL     1      11.411   8.894   6.727  0.00  0.00    +0.266 C 
ATOM     21  C   UNL     1       9.942   7.394   2.003  0.00  0.00    +0.015 A 
ATOM     22  C   UNL     1       8.867   8.114   2.325  0.00  0.00    +0.071 A 
ENDROOT
BRANCH  20  24
ATOM      9  N   UNL     1      12.040   9.526   4.511  0.00  0.00    -0.247 NA
ATOM     10  N   UNL     1      14.697   9.918   5.317  0.00  0.00    -0.259 NA
ATOM     24  C   UNL     1      12.442   9.329   5.778  0.00  0.00    +0.144 A 
ATOM     27  C   UNL     1      13.742   9.519   6.179  0.00  0.00    +0.143 A 
ATOM     31  C   UNL     1      12.994   9.926   3.649  0.00  0.00    +0.131 A 
ATOM     32  C   UNL     1      14.301  10.118   4.044  0.00  0.00    +0.130 A 
ENDBRANCH  20  24
BRANCH  18  23
ATOM     23  C   UNL     1      11.795   5.761   2.523  0.00  0.00    -0.016 A 
ATOM     25  C   UNL     1      13.042   6.379   2.523  0.00  0.00    +0.012 A 
ATOM     26  C   UNL     1      11.665   4.436   2.121  0.00  0.00    +0.012 A 
ATOM     28  C   UNL     1      14.169   5.666   2.116  0.00  0.00    +0.046 A 
ATOM     29  C   UNL     1      12.792   3.721   1.714  0.00  0.00    +0.046 A 
ATOM     30  C   UNL     1      14.044   4.336   1.712  0.00  0.00    +0.130 A 
BRANCH  30   6
ATOM      6  O   UNL     1      15.144   3.640   1.314  0.00  0.00    -0.406 OA
BRANCH   6  33
ATOM      1  F   UNL     1      16.835   3.203  -0.115  0.00  0.00    -0.133 F 
ATOM      2  F   UNL     1      14.956   3.953  -0.943  0.00  0.00    -0.133 F 
ATOM      3  F   UNL     1      16.281   5.291   0.214  0.00  0.00    -0.133 F 
ATOM     33  C   UNL     1      15.794   4.037   0.112  0.00  0.00    +0.575 C 
ENDBRANCH   6  33
ENDBRANCH  30   6
ENDBRANCH  18  23
TORSDOF 4
ENDMDL
MODEL 2
REMARK VINA RESULT:      -6.8      1.253      1.746
REMARK  Name = 7144188
REMARK  4 active torsions:
REMARK  status: ('A' for Active; 'I' for Inactive)
REMARK    1  A    between atoms: O_6  and  C_30
REMARK    2  A    between atoms: O_6  and  C_33
REMARK    3  A    between atoms: C_18  and  C_23
REMARK    4  A    between atoms: C_20  and  C_24
REMARK                            x       y       z     vdW  Elec       q    Type
REMARK                         _______ _______ _______ _____ _____    ______ ____
ROOT
ATOM      4  O   UNL     1       7.194   9.552   5.014  0.00  0.00    -0.268 OA
ATOM      5  O   UNL     1      11.621   9.753   7.489  0.00  0.00    -0.268 OA
ATOM      7  N   UNL     1       8.662   7.733   5.160  0.00  0.00    -0.311 N 
ATOM      8  N   UNL     1      11.344   7.530   6.816  0.00  0.00    -0.295 N 
ATOM     11  C   UNL     1       9.133   6.565   7.397  0.00  0.00    +0.027 C 
ATOM     12  C   UNL     1      10.285   5.822   5.353  0.00  0.00    +0.054 C 
ATOM     13  C   UNL     1       9.433   5.350   6.532  0.00  0.00    +0.018 C 
ATOM     14  C   UNL     1       8.301   7.551   6.575  0.00  0.00    +0.130 C 
ATOM     15  C   UNL     1      10.436   7.200   7.912  0.00  0.00    +0.113 C 
ATOM     16  C   UNL     1      11.604   6.428   5.879  0.00  0.00    +0.117 C 
ATOM     17  C   UNL     1       9.541   6.852   4.499  0.00  0.00    +0.034 A 
ATOM     18  C   UNL     1       9.725   6.961   3.157  0.00  0.00    +0.002 A 
ATOM     19  C   UNL     1       7.982   8.764   4.490  0.00  0.00    +0.252 A 
ATOM     20  C   UNL     1      11.840   8.832   6.703  0.00  0.00    +0.266 C 
ATOM     21  C   UNL     1       9.043   8.016   2.432  0.00  0.00    +0.015 A 
ATOM     22  C   UNL     1       8.232   8.885   3.036  0.00  0.00    +0.071 A 
ENDROOT
BRANCH  20  24
ATOM      9  N   UNL     1      12.040   9.522   4.424  0.00  0.00    -0.247 NA
ATOM     10  N   UNL     1      14.837   9.378   4.568  0.00  0.00    -0.259 NA
ATOM     24  C   UNL     1      12.683   9.156   5.546  0.00  0.00    +0.144 A 
ATOM     27  C   UNL     1      14.053   9.084   5.623  0.00  0.00    +0.143 A 
ATOM     31  C   UNL     1      12.824   9.817   3.369  0.00  0.00    +0.131 A 
ATOM     32  C   UNL     1      14.198   9.746   3.440  0.00  0.00    +0.130 A 
ENDBRANCH  20  24
BRANCH  18  23
ATOM     23  C   UNL     1      10.618   6.043   2.417  0.00  0.00    -0.016 A 
ATOM     25  C   UNL     1      10.110   4.861   1.888  0.00  0.00    +0.012 A 
ATOM     26  C   UNL     1      11.961   6.368   2.255  0.00  0.00    +0.012 A 
ATOM     28  C   UNL     1      10.953   3.995   1.191  0.00  0.00    +0.046 A 
ATOM     29  C   UNL     1      12.804   5.503   1.558  0.00  0.00    +0.046 A 
ATOM     30  C   UNL     1      12.300   4.317   1.025  0.00  0.00    +0.130 A 
BRANCH  30   6
ATOM      6  O   UNL     1      13.122   3.471   0.345  0.00  0.00    -0.406 OA
BRANCH   6  33
ATOM      1  F   UNL     1      12.653   2.472  -1.623  0.00  0.00    -0.133 F 
ATOM      2  F   UNL     1      12.466   4.646  -1.504  0.00  0.00    -0.133 F 
ATOM      3  F   UNL     1      14.460   3.693  -1.496  0.00  0.00    -0.133 F 
ATOM     33  C   UNL     1      13.183   3.587  -1.072  0.00  0.00    +0.575 C 
ENDBRANCH   6  33
ENDBRANCH  30   6
ENDBRANCH  18  23
TORSDOF 4
ENDMDL
MODEL 3
REMARK VINA RESULT:      -6.7     25.814     28.606
REMARK  Name = 7144188
REMARK  4 active torsions:
REMARK  status: ('A' for Active; 'I' for Inactive)
REMARK    1  A    between atoms: O_6  and  C_30
REMARK    2  A    between atoms: O_6  and  C_33
REMARK    3  A    between atoms: C_18  and  C_23
REMARK    4  A    between atoms: C_20  and  C_24
REMARK                            x       y       z     vdW  Elec       q    Type
REMARK                         _______ _______ _______ _____ _____    ______ ____
ROOT
ATOM      4  O   UNL     1      -5.957 -11.464  20.936  0.00  0.00    -0.268 OA
ATOM      5  O   UNL     1      -9.261 -13.730  17.820  0.00  0.00    -0.268 OA
ATOM      7  N   UNL     1      -6.213 -10.863  18.686  0.00  0.00    -0.311 N 
ATOM      8  N   UNL     1      -8.336 -11.950  16.616  0.00  0.00    -0.295 N 
ATOM     11  C   UNL     1      -8.376  -9.783  17.824  0.00  0.00    +0.027 C 
ATOM     12  C   UNL     1      -6.536 -10.272  16.264  0.00  0.00    +0.054 C 
ATOM     13  C   UNL     1      -7.473  -9.172  16.762  0.00  0.00    +0.018 C 
ATOM     14  C   UNL     1      -7.505 -10.232  18.999  0.00  0.00    +0.130 C 
ATOM     15  C   UNL     1      -9.195 -10.944  17.237  0.00  0.00    +0.113 C 
ATOM     16  C   UNL     1      -7.367 -11.418  15.647  0.00  0.00    +0.117 C 
ATOM     17  C   UNL     1      -5.655 -10.814  17.393  0.00  0.00    +0.034 A 
ATOM     18  C   UNL     1      -4.393 -11.270  17.183  0.00  0.00    +0.002 A 
ATOM     19  C   UNL     1      -5.524 -11.407  19.785  0.00  0.00    +0.252 A 
ATOM     20  C   UNL     1      -8.448 -13.287  17.009  0.00  0.00    +0.266 C 
ATOM     21  C   UNL     1      -3.653 -11.842  18.291  0.00  0.00    +0.015 A 
ATOM     22  C   UNL     1      -4.166 -11.934  19.518  0.00  0.00    +0.071 A 
ENDROOT
BRANCH  20  24
ATOM      9  N   UNL     1      -6.311 -14.355  17.017  0.00  0.00    -0.247 NA
ATOM     10  N   UNL     1      -7.026 -15.925  14.806  0.00  0.00    -0.259 NA
ATOM     24  C   UNL     1      -7.516 -14.262  16.430  0.00  0.00    +0.144 A 
ATOM     27  C   UNL     1      -7.873 -15.028  15.347  0.00  0.00    +0.143 A 
ATOM     31  C   UNL     1      -5.464 -15.253  16.477  0.00  0.00    +0.131 A 
ATOM     32  C   UNL     1      -5.815 -16.024  15.390  0.00  0.00    +0.130 A 
ENDBRANCH  20  24
BRANCH  18  23
ATOM     23  C   UNL     1      -3.758 -11.215  15.848  0.00  0.00    -0.016 A 
ATOM     25  C   UNL     1      -2.708 -10.331  15.618  0.00  0.00    +0.012 A 
ATOM     26  C   UNL     1      -4.214 -12.048  14.832  0.00  0.00    +0.012 A 
ATOM     28  C   UNL     1      -2.110 -10.280  14.358  0.00  0.00    +0.046 A 
ATOM     29  C   UNL     1      -3.617 -11.997  13.572  0.00  0.00    +0.046 A 
ATOM     30  C   UNL     1      -2.564 -11.113  13.336  0.00  0.00    +0.130 A 
BRANCH  30   6
ATOM      6  O   UNL     1      -1.980 -11.062  12.107  0.00  0.00    -0.406 OA
BRANCH   6  33
ATOM      1  F   UNL     1      -1.648  -9.328  10.701  0.00  0.00    -0.133 F 
ATOM      2  F   UNL     1      -2.958 -10.949  10.043  0.00  0.00    -0.133 F 
ATOM      3  F   UNL     1      -3.620  -9.546  11.617  0.00  0.00    -0.133 F 
ATOM     33  C   UNL     1      -2.569 -10.228  11.116  0.00  0.00    +0.575 C 
ENDBRANCH   6  33
ENDBRANCH  30   6
ENDBRANCH  18  23
TORSDOF 4
ENDMDL
MODEL 4
REMARK VINA RESULT:      -6.7     25.398     28.139
REMARK  Name = 7144188
REMARK  4 active torsions:
REMARK  status: ('A' for Active; 'I' for Inactive)
REMARK    1  A    between atoms: O_6  and  C_30
REMARK    2  A    between atoms: O_6  and  C_33
REMARK    3  A    between atoms: C_18  and  C_23
REMARK    4  A    between atoms: C_20  and  C_24
REMARK                            x       y       z     vdW  Elec       q    Type
REMARK                         _______ _______ _______ _____ _____    ______ ____
ROOT
ATOM      4  O   UNL     1      -7.644 -14.836  17.471  0.00  0.00    -0.268 OA
ATOM      5  O   UNL     1      -9.403 -10.276  18.839  0.00  0.00    -0.268 OA
ATOM      7  N   UNL     1      -6.516 -12.837  17.005  0.00  0.00    -0.311 N 
ATOM      8  N   UNL     1      -7.275  -9.917  17.937  0.00  0.00    -0.295 N 
ATOM     11  C   UNL     1      -5.515 -11.393  18.876  0.00  0.00    +0.027 C 
ATOM     12  C   UNL     1      -5.360 -10.655  16.534  0.00  0.00    +0.054 C 
ATOM     13  C   UNL     1      -4.547 -10.928  17.799  0.00  0.00    +0.018 C 
ATOM     14  C   UNL     1      -6.147 -12.711  18.423  0.00  0.00    +0.130 C 
ATOM     15  C   UNL     1      -6.574 -10.314  19.156  0.00  0.00    +0.113 C 
ATOM     16  C   UNL     1      -6.398  -9.547  16.817  0.00  0.00    +0.117 C 
ATOM     17  C   UNL     1      -6.066 -11.918  16.036  0.00  0.00    +0.034 A 
ATOM     18  C   UNL     1      -6.298 -12.156  14.718  0.00  0.00    +0.002 A 
ATOM     19  C   UNL     1      -7.240 -13.995  16.668  0.00  0.00    +0.252 A 
ATOM     20  C   UNL     1      -8.672  -9.966  17.899  0.00  0.00    +0.266 C 
ATOM     21  C   UNL     1      -7.046 -13.338  14.333  0.00  0.00    +0.015 A 
ATOM     22  C   UNL     1      -7.513 -14.208  15.229  0.00  0.00    +0.071 A 
ENDROOT
BRANCH  20  24
ATOM      9  N   UNL     1      -9.505 -10.656  15.770  0.00  0.00    -0.247 NA
ATOM     10  N   UNL     1     -10.395  -8.055  15.214  0.00  0.00    -0.259 NA
ATOM     24  C   UNL     1      -9.344  -9.642  16.636  0.00  0.00    +0.144 A 
ATOM     27  C   UNL     1      -9.777  -8.366  16.370  0.00  0.00    +0.143 A 
ATOM     31  C   UNL     1     -10.124 -10.347  14.614  0.00  0.00    +0.131 A 
ATOM     32  C   UNL     1     -10.561  -9.068  14.340  0.00  0.00    +0.130 A 
ENDBRANCH  20  24
BRANCH  18  23
ATOM     23  C   UNL     1      -5.824 -11.233  13.665  0.00  0.00    -0.016 A 
ATOM     25  C   UNL     1      -4.474 -11.202  13.329  0.00  0.00    +0.012 A 
ATOM     26  C   UNL     1      -6.731 -10.400  13.018  0.00  0.00    +0.012 A 
ATOM     28  C   UNL     1      -4.027 -10.330  12.336  0.00  0.00    +0.046 A 
ATOM     29  C   UNL     1      -6.285  -9.528  12.025  0.00  0.00    +0.046 A 
ATOM     30  C   UNL     1      -4.933  -9.493  11.684  0.00  0.00    +0.130 A 
BRANCH  30   6
ATOM      6  O   UNL     1      -4.496  -8.642  10.715  0.00  0.00    -0.406 OA
BRANCH   6  33
ATOM      1  F   UNL     1      -3.899  -8.422   8.550  0.00  0.00    -0.133 F 
ATOM      2  F   UNL     1      -2.393  -9.135   9.964  0.00  0.00    -0.133 F 
ATOM      3  F   UNL     1      -4.074 -10.440   9.367  0.00  0.00    -0.133 F 
ATOM     33  C   UNL     1      -3.707  -9.175   9.657  0.00  0.00    +0.575 C 
ENDBRANCH   6  33
ENDBRANCH  30   6
ENDBRANCH  18  23
TORSDOF 4
ENDMDL
MODEL 5
REMARK VINA RESULT:      -6.4     14.127     16.382
REMARK  Name = 7144188
REMARK  4 active torsions:
REMARK  status: ('A' for Active; 'I' for Inactive)
REMARK    1  A    between atoms: O_6  and  C_30
REMARK    2  A    between atoms: O_6  and  C_33
REMARK    3  A    between atoms: C_18  and  C_23
REMARK    4  A    between atoms: C_20  and  C_24
REMARK                            x       y       z     vdW  Elec       q    Type
REMARK                         _______ _______ _______ _____ _____    ______ ____
ROOT
ATOM      4  O   UNL     1      10.931  10.760  22.198  0.00  0.00    -0.268 OA
ATOM      5  O   UNL     1      14.667   7.328  22.339  0.00  0.00    -0.268 OA
ATOM      7  N   UNL     1      12.122  10.086  20.297  0.00  0.00    -0.311 N 
ATOM      8  N   UNL     1      14.314   7.824  20.080  0.00  0.00    -0.295 N 
ATOM     11  C   UNL     1      11.938   7.697  19.376  0.00  0.00    +0.027 C 
ATOM     12  C   UNL     1      13.440   9.320  18.298  0.00  0.00    +0.054 C 
ATOM     13  C   UNL     1      12.296   8.340  18.044  0.00  0.00    +0.018 C 
ATOM     14  C   UNL     1      11.428   8.789  20.319  0.00  0.00    +0.130 C 
ATOM     15  C   UNL     1      13.149   6.950  19.961  0.00  0.00    +0.113 C 
ATOM     16  C   UNL     1      14.662   8.556  18.854  0.00  0.00    +0.117 C 
ATOM     17  C   UNL     1      13.028  10.427  19.273  0.00  0.00    +0.034 A 
ATOM     18  C   UNL     1      13.526  11.689  19.202  0.00  0.00    +0.002 A 
ATOM     19  C   UNL     1      11.728  11.000  21.291  0.00  0.00    +0.252 A 
ATOM     20  C   UNL     1      14.961   7.943  21.314  0.00  0.00    +0.266 C 
ATOM     21  C   UNL     1      13.146  12.657  20.213  0.00  0.00    +0.015 A 
ATOM     22  C   UNL     1      12.317  12.355  21.212  0.00  0.00    +0.071 A 
ENDROOT
BRANCH  20  24
ATOM      9  N   UNL     1      15.753  10.158  21.731  0.00  0.00    -0.247 NA
ATOM     10  N   UNL     1      18.406   9.346  21.320  0.00  0.00    -0.259 NA
ATOM     24  C   UNL     1      16.076   8.890  21.424  0.00  0.00    +0.144 A 
ATOM     27  C   UNL     1      17.373   8.485  21.222  0.00  0.00    +0.143 A 
ATOM     31  C   UNL     1      16.785  11.018  21.830  0.00  0.00    +0.131 A 
ATOM     32  C   UNL     1      18.089  10.619  21.628  0.00  0.00    +0.130 A 
ENDBRANCH  20  24
BRANCH  18  23
ATOM     23  C   UNL     1      14.460  12.098  18.131  0.00  0.00    -0.016 A 
ATOM     25  C   UNL     1      15.822  12.191  18.401  0.00  0.00    +0.012 A 
ATOM     26  C   UNL     1      13.972  12.387  16.861  0.00  0.00    +0.012 A 
ATOM     28  C   UNL     1      16.704  12.578  17.391  0.00  0.00    +0.046 A 
ATOM     29  C   UNL     1      14.852  12.774  15.851  0.00  0.00    +0.046 A 
ATOM     30  C   UNL     1      16.218  12.869  16.116  0.00  0.00    +0.130 A 
BRANCH  30   6
ATOM      6  O   UNL     1      17.079  13.246  15.131  0.00  0.00    -0.406 OA
BRANCH   6  33
ATOM      1  F   UNL     1      17.143  11.078  14.507  0.00  0.00    -0.133 F 
ATOM      2  F   UNL     1      18.068  12.556  13.188  0.00  0.00    -0.133 F 
ATOM      3  F   UNL     1      19.015  12.029  15.114  0.00  0.00    -0.133 F 
ATOM     33  C   UNL     1      17.842  12.237  14.480  0.00  0.00    +0.575 C 
ENDBRANCH   6  33
ENDBRANCH  30   6
ENDBRANCH  18  23
TORSDOF 4
ENDMDL
MODEL 6
REMARK VINA RESULT:      -6.4     26.930     29.771
REMARK  Name = 7144188
REMARK  4 active torsions:
REMARK  status: ('A' for Active; 'I' for Inactive)
REMARK    1  A    between atoms: O_6  and  C_30
REMARK    2  A    between atoms: O_6  and  C_33
REMARK    3  A    between atoms: C_18  and  C_23
REMARK    4  A    between atoms: C_20  and  C_24
REMARK                            x       y       z     vdW  Elec       q    Type
REMARK                         _______ _______ _______ _____ _____    ______ ____
ROOT
ATOM      4  O   UNL     1     -10.300 -11.750  20.462  0.00  0.00    -0.268 OA
ATOM      5  O   UNL     1     -11.896 -12.021  15.652  0.00  0.00    -0.268 OA
ATOM      7  N   UNL     1      -9.159 -10.752  18.677  0.00  0.00    -0.311 N 
ATOM      8  N   UNL     1     -10.054 -10.580  15.653  0.00  0.00    -0.295 N 
ATOM     11  C   UNL     1     -10.171  -8.789  17.367  0.00  0.00    +0.027 C 
ATOM     12  C   UNL     1      -7.983  -9.708  16.715  0.00  0.00    +0.054 C 
ATOM     13  C   UNL     1      -8.721  -8.422  17.085  0.00  0.00    +0.018 C 
ATOM     14  C   UNL     1     -10.206  -9.723  18.579  0.00  0.00    +0.130 C 
ATOM     15  C   UNL     1     -10.819  -9.429  16.128  0.00  0.00    +0.113 C 
ATOM     16  C   UNL     1      -8.620 -10.324  15.451  0.00  0.00    +0.117 C 
ATOM     17  C   UNL     1      -8.009 -10.721  17.863  0.00  0.00    +0.034 A 
ATOM     18  C   UNL     1      -6.995 -11.596  18.091  0.00  0.00    +0.002 A 
ATOM     19  C   UNL     1      -9.325 -11.687  19.713  0.00  0.00    +0.252 A 
ATOM     20  C   UNL     1     -10.696 -11.810  15.482  0.00  0.00    +0.266 C 
ATOM     21  C   UNL     1      -7.133 -12.579  19.148  0.00  0.00    +0.015 A 
ATOM     22  C   UNL     1      -8.222 -12.654  19.913  0.00  0.00    +0.071 A 
ENDROOT
BRANCH  20  24
ATOM      9  N   UNL     1      -9.289 -13.646  16.079  0.00  0.00    -0.247 NA
ATOM     10  N   UNL     1      -9.014 -14.382  13.386  0.00  0.00    -0.259 NA
ATOM     24  C   UNL     1      -9.886 -12.967  15.085  0.00  0.00    +0.144 A 
ATOM     27  C   UNL     1      -9.756 -13.322  13.764  0.00  0.00    +0.143 A 
ATOM     31  C   UNL     1      -8.548 -14.706  15.701  0.00  0.00    +0.131 A 
ATOM     32  C   UNL     1      -8.413 -15.067  14.378  0.00  0.00    +0.130 A 
ENDBRANCH  20  24
BRANCH  18  23
ATOM     23  C   UNL     1      -5.760 -11.585  17.278  0.00  0.00    -0.016 A 
ATOM     25  C   UNL     1      -4.750 -10.673  17.567  0.00  0.00    +0.012 A 
ATOM     26  C   UNL     1      -5.616 -12.487  16.228  0.00  0.00    +0.012 A 
ATOM     28  C   UNL     1      -3.585 -10.662  16.799  0.00  0.00    +0.046 A 
ATOM     29  C   UNL     1      -4.452 -12.477  15.460  0.00  0.00    +0.046 A 
ATOM     30  C   UNL     1      -3.436 -11.565  15.746  0.00  0.00    +0.130 A 
BRANCH  30   6
ATOM      6  O   UNL     1      -2.299 -11.554  14.997  0.00  0.00    -0.406 OA
BRANCH   6  33
ATOM      1  F   UNL     1      -1.458  -9.614  14.208  0.00  0.00    -0.133 F 
ATOM      2  F   UNL     1      -1.683 -11.280  12.812  0.00  0.00    -0.133 F 
ATOM      3  F   UNL     1      -3.461 -10.203  13.563  0.00  0.00    -0.133 F 
ATOM     33  C   UNL     1      -2.236 -10.672  13.882  0.00  0.00    +0.575 C 
ENDBRANCH   6  33
ENDBRANCH  30   6
ENDBRANCH  18  23
TORSDOF 4
ENDMDL
MODEL 7
REMARK VINA RESULT:      -6.3     24.412     26.624
REMARK  Name = 7144188
REMARK  4 active torsions:
REMARK  status: ('A' for Active; 'I' for Inactive)
REMARK    1  A    between atoms: O_6  and  C_30
REMARK    2  A    between atoms: O_6  and  C_33
REMARK    3  A    between atoms: C_18  and  C_23
REMARK    4  A    between atoms: C_20  and  C_24
REMARK                            x       y       z     vdW  Elec       q    Type
REMARK                         _______ _______ _______ _____ _____    ______ ____
ROOT
ATOM      4  O   UNL     1      19.572  -5.019  21.554  0.00  0.00    -0.268 OA
ATOM      5  O   UNL     1      20.887  -1.353  24.807  0.00  0.00    -0.268 OA
ATOM      7  N   UNL     1      18.178  -4.287  23.288  0.00  0.00    -0.311 N 
ATOM      8  N   UNL     1      18.662  -1.890  25.286  0.00  0.00    -0.295 N 
ATOM     11  C   UNL     1      17.178  -1.923  23.298  0.00  0.00    +0.027 C 
ATOM     12  C   UNL     1      16.735  -3.456  25.171  0.00  0.00    +0.054 C 
ATOM     13  C   UNL     1      16.071  -2.554  24.131  0.00  0.00    +0.018 C 
ATOM     14  C   UNL     1      17.920  -3.037  22.556  0.00  0.00    +0.130 C 
ATOM     15  C   UNL     1      18.121  -1.095  24.186  0.00  0.00    +0.113 C 
ATOM     16  C   UNL     1      17.654  -2.609  26.078  0.00  0.00    +0.117 C 
ATOM     17  C   UNL     1      17.541  -4.578  24.511  0.00  0.00    +0.034 A 
ATOM     18  C   UNL     1      17.685  -5.806  25.074  0.00  0.00    +0.002 A 
ATOM     19  C   UNL     1      19.003  -5.215  22.628  0.00  0.00    +0.252 A 
ATOM     20  C   UNL     1      20.046  -1.957  25.471  0.00  0.00    +0.266 C 
ATOM     21  C   UNL     1      18.532  -6.788  24.424  0.00  0.00    +0.015 A 
ATOM     22  C   UNL     1      19.174  -6.531  23.285  0.00  0.00    +0.071 A 
ENDROOT
BRANCH  20  24
ATOM      9  N   UNL     1      20.764  -4.115  26.200  0.00  0.00    -0.247 NA
ATOM     10  N   UNL     1      21.297  -3.131  28.772  0.00  0.00    -0.259 NA
ATOM     24  C   UNL     1      20.563  -2.829  26.532  0.00  0.00    +0.144 A 
ATOM     27  C   UNL     1      20.822  -2.340  27.789  0.00  0.00    +0.143 A 
ATOM     31  C   UNL     1      21.240  -4.906  27.182  0.00  0.00    +0.131 A 
ATOM     32  C   UNL     1      21.501  -4.422  28.446  0.00  0.00    +0.130 A 
ENDBRANCH  20  24
BRANCH  18  23
ATOM     23  C   UNL     1      17.015  -6.163  26.343  0.00  0.00    -0.016 A 
ATOM     25  C   UNL     1      17.681  -5.981  27.551  0.00  0.00    +0.012 A 
ATOM     26  C   UNL     1      15.724  -6.680  26.321  0.00  0.00    +0.012 A 
ATOM     28  C   UNL     1      17.050  -6.319  28.749  0.00  0.00    +0.046 A 
ATOM     29  C   UNL     1      15.092  -7.019  27.518  0.00  0.00    +0.046 A 
ATOM     30  C   UNL     1      15.755  -6.838  28.731  0.00  0.00    +0.130 A 
BRANCH  30   6
ATOM      6  O   UNL     1      15.140  -7.168  29.900  0.00  0.00    -0.406 OA
BRANCH   6  33
ATOM      1  F   UNL     1      14.154  -6.462  31.803  0.00  0.00    -0.133 F 
ATOM      2  F   UNL     1      14.672  -4.965  30.297  0.00  0.00    -0.133 F 
ATOM      3  F   UNL     1      12.999  -6.367  29.951  0.00  0.00    -0.133 F 
ATOM     33  C   UNL     1      14.236  -6.230  30.473  0.00  0.00    +0.575 C 
ENDBRANCH   6  33
ENDBRANCH  30   6
ENDBRANCH  18  23
TORSDOF 4
ENDMDL
MODEL 8
REMARK VINA RESULT:      -6.2     27.249     30.518
REMARK  Name = 7144188
REMARK  4 active torsions:
REMARK  status: ('A' for Active; 'I' for Inactive)
REMARK    1  A    between atoms: O_6  and  C_30
REMARK    2  A    between atoms: O_6  and  C_33
REMARK    3  A    between atoms: C_18  and  C_23
REMARK    4  A    between atoms: C_20  and  C_24
REMARK                            x       y       z     vdW  Elec       q    Type
REMARK                         _______ _______ _______ _____ _____    ______ ____
ROOT
ATOM      4  O   UNL     1     -12.987  13.254  18.766  0.00  0.00    -0.268 OA
ATOM      5  O   UNL     1     -12.287  10.168  14.798  0.00  0.00    -0.268 OA
ATOM      7  N   UNL     1     -12.273  11.033  18.982  0.00  0.00    -0.311 N 
ATOM      8  N   UNL     1     -11.549   8.995  16.682  0.00  0.00    -0.295 N 
ATOM     11  C   UNL     1      -9.979  10.272  18.118  0.00  0.00    +0.027 C 
ATOM     12  C   UNL     1     -11.512   8.643  19.142  0.00  0.00    +0.054 C 
ATOM     13  C   UNL     1     -10.092   9.203  19.196  0.00  0.00    +0.018 C 
ATOM     14  C   UNL     1     -10.950  11.405  18.457  0.00  0.00    +0.130 C 
ATOM     15  C   UNL     1     -10.255   9.673  16.729  0.00  0.00    +0.113 C 
ATOM     16  C   UNL     1     -11.768   8.015  17.755  0.00  0.00    +0.117 C 
ATOM     17  C   UNL     1     -12.556   9.726  19.426  0.00  0.00    +0.034 A 
ATOM     18  C   UNL     1     -13.735   9.463  20.048  0.00  0.00    +0.002 A 
ATOM     19  C   UNL     1     -13.187  12.093  19.123  0.00  0.00    +0.252 A 
ATOM     20  C   UNL     1     -12.474   9.347  15.695  0.00  0.00    +0.266 C 
ATOM     21  C   UNL     1     -14.705  10.530  20.207  0.00  0.00    +0.015 A 
ATOM     22  C   UNL     1     -14.480  11.768  19.768  0.00  0.00    +0.071 A 
ENDROOT
BRANCH  20  24
ATOM      9  N   UNL     1     -14.658   9.164  16.649  0.00  0.00    -0.247 NA
ATOM     10  N   UNL     1     -15.326   7.109  14.861  0.00  0.00    -0.259 NA
ATOM     24  C   UNL     1     -13.796   8.709  15.723  0.00  0.00    +0.144 A 
ATOM     27  C   UNL     1     -14.116   7.703  14.845  0.00  0.00    +0.143 A 
ATOM     31  C   UNL     1     -15.867   8.571  16.665  0.00  0.00    +0.131 A 
ATOM     32  C   UNL     1     -16.195   7.561  15.786  0.00  0.00    +0.130 A 
ENDBRANCH  20  24
BRANCH  18  23
ATOM     23  C   UNL     1     -14.065   8.113  20.552  0.00  0.00    -0.016 A 
ATOM     25  C   UNL     1     -15.203   7.461  20.088  0.00  0.00    +0.012 A 
ATOM     26  C   UNL     1     -13.234   7.503  21.487  0.00  0.00    +0.012 A 
ATOM     28  C   UNL     1     -15.515   6.187  20.565  0.00  0.00    +0.046 A 
ATOM     29  C   UNL     1     -13.545   6.229  21.964  0.00  0.00    +0.046 A 
ATOM     30  C   UNL     1     -14.685   5.571  21.502  0.00  0.00    +0.130 A 
BRANCH  30   6
ATOM      6  O   UNL     1     -14.990   4.328  21.966  0.00  0.00    -0.406 OA
BRANCH   6  33
ATOM      1  F   UNL     1     -16.340   5.259  23.517  0.00  0.00    -0.133 F 
ATOM      2  F   UNL     1     -16.236   3.078  23.420  0.00  0.00    -0.133 F 
ATOM      3  F   UNL     1     -14.531   4.245  24.205  0.00  0.00    -0.133 F 
ATOM     33  C   UNL     1     -15.516   4.212  23.283  0.00  0.00    +0.575 C 
ENDBRANCH   6  33
ENDBRANCH  30   6
ENDBRANCH  18  23
TORSDOF 4
ENDMDL
MODEL 9
REMARK VINA RESULT:      -6.1     14.355     17.445
REMARK  Name = 7144188
REMARK  4 active torsions:
REMARK  status: ('A' for Active; 'I' for Inactive)
REMARK    1  A    between atoms: O_6  and  C_30
REMARK    2  A    between atoms: O_6  and  C_33
REMARK    3  A    between atoms: C_18  and  C_23
REMARK    4  A    between atoms: C_20  and  C_24
REMARK                            x       y       z     vdW  Elec       q    Type
REMARK                         _______ _______ _______ _____ _____    ______ ____
ROOT
ATOM      4  O   UNL     1       0.261  11.470   6.683  0.00  0.00    -0.268 OA
ATOM      5  O   UNL     1      -2.396  14.279   3.396  0.00  0.00    -0.268 OA
ATOM      7  N   UNL     1      -1.008  10.547   4.944  0.00  0.00    -0.311 N 
ATOM      8  N   UNL     1      -2.552  12.068   2.648  0.00  0.00    -0.295 N 
ATOM     11  C   UNL     1      -0.370  10.900   2.484  0.00  0.00    +0.027 C 
ATOM     12  C   UNL     1      -2.392   9.623   3.060  0.00  0.00    +0.054 C 
ATOM     13  C   UNL     1      -1.091   9.579   2.259  0.00  0.00    +0.018 C 
ATOM     14  C   UNL     1      -0.011  11.010   3.967  0.00  0.00    +0.130 C 
ATOM     15  C   UNL     1      -1.237  12.079   2.012  0.00  0.00    +0.113 C 
ATOM     16  C   UNL     1      -3.270  10.789   2.557  0.00  0.00    +0.117 C 
ATOM     17  C   UNL     1      -2.125   9.778   4.560  0.00  0.00    +0.034 A 
ATOM     18  C   UNL     1      -2.935   9.239   5.508  0.00  0.00    +0.002 A 
ATOM     19  C   UNL     1      -0.707  10.818   6.291  0.00  0.00    +0.252 A 
ATOM     20  C   UNL     1      -2.999  13.209   3.322  0.00  0.00    +0.266 C 
ATOM     21  C   UNL     1      -2.658   9.501   6.907  0.00  0.00    +0.015 A 
ATOM     22  C   UNL     1      -1.629  10.251   7.301  0.00  0.00    +0.071 A 
ENDROOT
BRANCH  20  24
ATOM      9  N   UNL     1      -4.262  12.643   5.269  0.00  0.00    -0.247 NA
ATOM     10  N   UNL     1      -6.634  13.514   4.052  0.00  0.00    -0.259 NA
ATOM     24  C   UNL     1      -4.287  13.142   4.022  0.00  0.00    +0.144 A 
ATOM     27  C   UNL     1      -5.445  13.571   3.420  0.00  0.00    +0.143 A 
ATOM     31  C   UNL     1      -5.450  12.586   5.902  0.00  0.00    +0.131 A 
ATOM     32  C   UNL     1      -6.616  13.014   5.303  0.00  0.00    +0.130 A 
ENDBRANCH  20  24
BRANCH  18  23
ATOM     23  C   UNL     1      -4.103   8.406   5.152  0.00  0.00    -0.016 A 
ATOM     25  C   UNL     1      -5.327   9.011   4.883  0.00  0.00    +0.012 A 
ATOM     26  C   UNL     1      -3.972   7.022   5.088  0.00  0.00    +0.012 A 
ATOM     28  C   UNL     1      -6.430   8.225   4.547  0.00  0.00    +0.046 A 
ATOM     29  C   UNL     1      -5.074   6.236   4.753  0.00  0.00    +0.046 A 
ATOM     30  C   UNL     1      -6.303   6.837   4.482  0.00  0.00    +0.130 A 
BRANCH  30   6
ATOM      6  O   UNL     1      -7.379   6.071   4.155  0.00  0.00    -0.406 OA
BRANCH   6  33
ATOM      1  F   UNL     1      -8.959   4.654   4.923  0.00  0.00    -0.133 F 
ATOM      2  F   UNL     1      -7.840   5.834   6.383  0.00  0.00    -0.133 F 
ATOM      3  F   UNL     1      -9.340   6.800   5.078  0.00  0.00    -0.133 F 
ATOM     33  C   UNL     1      -8.378   5.856   5.145  0.00  0.00    +0.575 C 
ENDBRANCH   6  33
ENDBRANCH  30   6
ENDBRANCH  18  23
TORSDOF 4
ENDMDL
MODEL 10
REMARK VINA RESULT:      -6.1     24.254     26.829
REMARK  Name = 7144188
REMARK  4 active torsions:
REMARK  status: ('A' for Active; 'I' for Inactive)
REMARK    1  A    between atoms: O_6  and  C_30
REMARK    2  A    between atoms: O_6  and  C_33
REMARK    3  A    between atoms: C_18  and  C_23
REMARK    4  A    between atoms: C_20  and  C_24
REMARK                            x       y       z     vdW  Elec       q    Type
REMARK                         _______ _______ _______ _____ _____    ______ ____
ROOT
ATOM      4  O   UNL     1      -1.989 -15.123  12.727  0.00  0.00    -0.268 OA
ATOM      5  O   UNL     1      -4.896 -13.304  16.468  0.00  0.00    -0.268 OA
ATOM      7  N   UNL     1      -2.542 -12.856  12.931  0.00  0.00    -0.311 N 
ATOM      8  N   UNL     1      -4.128 -11.447  15.269  0.00  0.00    -0.295 N 
ATOM     11  C   UNL     1      -1.677 -11.435  14.885  0.00  0.00    +0.027 C 
ATOM     12  C   UNL     1      -3.176 -10.439  13.207  0.00  0.00    +0.054 C 
ATOM     13  C   UNL     1      -1.832 -10.272  13.916  0.00  0.00    +0.018 C 
ATOM     14  C   UNL     1      -1.629 -12.734  14.078  0.00  0.00    +0.130 C 
ATOM     15  C   UNL     1      -2.818 -11.438  15.916  0.00  0.00    +0.113 C 
ATOM     16  C   UNL     1      -4.317 -10.408  14.247  0.00  0.00    +0.117 C 
ATOM     17  C   UNL     1      -3.232 -11.744  12.408  0.00  0.00    +0.034 A 
ATOM     18  C   UNL     1      -3.939 -11.867  11.255  0.00  0.00    +0.002 A 
ATOM     19  C   UNL     1      -2.582 -14.123  12.322  0.00  0.00    +0.252 A 
ATOM     20  C   UNL     1      -5.057 -12.435  15.611  0.00  0.00    +0.266 C 
ATOM     21  C   UNL     1      -4.007 -13.160  10.601  0.00  0.00    +0.015 A 
ATOM     22  C   UNL     1      -3.393 -14.238  11.089  0.00  0.00    +0.071 A 
ENDROOT
BRANCH  20  24
ATOM      9  N   UNL     1      -7.355 -11.802  15.447  0.00  0.00    -0.247 NA
ATOM     10  N   UNL     1      -7.622 -13.191  13.025  0.00  0.00    -0.259 NA
ATOM     24  C   UNL     1      -6.332 -12.470  14.886  0.00  0.00    +0.144 A 
ATOM     27  C   UNL     1      -6.456 -13.152  13.700  0.00  0.00    +0.143 A 
ATOM     31  C   UNL     1      -8.520 -11.840  14.772  0.00  0.00    +0.131 A 
ATOM     32  C   UNL     1      -8.651 -12.523  13.582  0.00  0.00    +0.130 A 
ENDBRANCH  20  24
BRANCH  18  23
ATOM     23  C   UNL     1      -4.658 -10.722  10.656  0.00  0.00    -0.016 A 
ATOM     25  C   UNL     1      -5.992 -10.497  10.983  0.00  0.00    +0.012 A 
ATOM     26  C   UNL     1      -3.997  -9.877   9.771  0.00  0.00    +0.012 A 
ATOM     28  C   UNL     1      -6.671  -9.417  10.417  0.00  0.00    +0.046 A 
ATOM     29  C   UNL     1      -4.674  -8.797   9.206  0.00  0.00    +0.046 A 
ATOM     30  C   UNL     1      -6.011  -8.567   9.530  0.00  0.00    +0.130 A 
BRANCH  30   6
ATOM      6  O   UNL     1      -6.674  -7.513   8.978  0.00  0.00    -0.406 OA
BRANCH   6  33
ATOM      1  F   UNL     1      -7.832  -6.731   7.206  0.00  0.00    -0.133 F 
ATOM      2  F   UNL     1      -7.430  -8.877   7.305  0.00  0.00    -0.133 F 
ATOM      3  F   UNL     1      -8.898  -7.950   8.673  0.00  0.00    -0.133 F 
ATOM     33  C   UNL     1      -7.714  -7.785   8.046  0.00  0.00    +0.575 C 
ENDBRANCH   6  33
ENDBRANCH  30   6
ENDBRANCH  18  23
TORSDOF 4
ENDMDL
