MODEL 1
REMARK VINA RESULT:      -6.6      0.000      0.000
REMARK  Name = 7135447
REMARK  10 active torsions:
REMARK  status: ('A' for Active; 'I' for Inactive)
REMARK    1  A    between atoms: O_2  and  C_21
REMARK    2  A    between atoms: O_2  and  C_25
REMARK    3  A    between atoms: O_3  and  C_26
REMARK    4  A    between atoms: O_3  and  C_27
REMARK    5  A    between atoms: C_5  and  C_6
REMARK    6  A    between atoms: C_6  and  C_12
REMARK    7  A    between atoms: C_6  and  C_13
REMARK    8  A    between atoms: C_14  and  C_23
REMARK    9  A    between atoms: C_17  and  C_24
REMARK   10  A    between atoms: C_25  and  C_26
REMARK                            x       y       z     vdW  Elec       q    Type
REMARK                         _______ _______ _______ _____ _____    ______ ____
ROOT
ATOM      5  C   UNL     1       9.820   6.981   0.612  0.00  0.00    +0.005 C 
ATOM      7  C   UNL     1       9.639   8.489   0.813  0.00  0.00    +0.009 C 
ATOM      8  C   UNL     1      10.285   6.335   1.925  0.00  0.00    +0.040 C 
ATOM      9  C   UNL     1       8.551   8.764   1.850  0.00  0.00    +0.036 C 
ATOM     10  C   UNL     1       9.482   6.771   3.126  0.00  0.00    -0.037 A 
ATOM     11  C   UNL     1       8.697   7.937   3.103  0.00  0.00    -0.041 A 
ATOM     14  C   UNL     1       9.569   6.023   4.310  0.00  0.00    -0.005 A 
ATOM     17  C   UNL     1       7.985   8.311   4.253  0.00  0.00    -0.044 A 
ATOM     21  C   UNL     1       8.866   6.411   5.449  0.00  0.00    +0.124 A 
ATOM     22  C   UNL     1       8.072   7.554   5.420  0.00  0.00    +0.049 A 
ATOM     23  C   UNL     1      10.427   4.797   4.383  0.00  0.00    +0.048 C 
ATOM     24  C   UNL     1       7.106   9.522   4.270  0.00  0.00    +0.044 C 
ENDROOT
BRANCH   5   6
ATOM      6  C   UNL     1      10.815   6.696  -0.511  0.00  0.00    +0.075 C 
ATOM     13  C   UNL     1      10.272   7.141  -1.859  0.00  0.00    +0.017 C 
BRANCH   6  12
ATOM      1  O   UNL     1      10.224   4.435  -0.904  0.00  0.00    -0.275 OA
ATOM      4  N   UNL     1      12.385   4.824  -0.141  0.00  0.00    -0.301 N 
ATOM     12  C   UNL     1      11.107   5.216  -0.540  0.00  0.00    +0.219 C 
ATOM     15  C   UNL     1      12.743   3.404  -0.139  0.00  0.00    +0.108 C 
ATOM     16  C   UNL     1      13.468   5.733   0.254  0.00  0.00    +0.108 C 
ATOM     18  C   UNL     1      13.281   2.980   1.224  0.00  0.00    +0.019 C 
ATOM     19  C   UNL     1      14.020   5.352   1.626  0.00  0.00    +0.019 C 
ATOM     20  C   UNL     1      14.431   3.881   1.671  0.00  0.00    +0.003 C 
ENDBRANCH   6  12
ENDBRANCH   5   6
BRANCH  21   2
ATOM      2  O   UNL     1       8.942   5.687   6.601  0.00  0.00    -0.489 OA
BRANCH   2  25
ATOM     25  C   UNL     1       9.386   6.374   7.770  0.00  0.00    +0.257 C 
BRANCH  25  26
ATOM     26  C   UNL     1      10.730   5.814   8.192  0.00  0.00    +0.200 C 
BRANCH  26   3
ATOM      3  O   UNL     1      10.607   5.237   9.487  0.00  0.00    -0.380 OA
ATOM     27  C   UNL     1       9.301   4.722   9.706  0.00  0.00    +0.194 C 
ENDBRANCH  26   3
ENDBRANCH  25  26
ENDBRANCH   2  25
ENDBRANCH  21   2
TORSDOF 6
ENDMDL
MODEL 2
REMARK VINA RESULT:      -6.5     17.651     20.146
REMARK  Name = 7135447
REMARK  10 active torsions:
REMARK  status: ('A' for Active; 'I' for Inactive)
REMARK    1  A    between atoms: O_2  and  C_21
REMARK    2  A    between atoms: O_2  and  C_25
REMARK    3  A    between atoms: O_3  and  C_26
REMARK    4  A    between atoms: O_3  and  C_27
REMARK    5  A    between atoms: C_5  and  C_6
REMARK    6  A    between atoms: C_6  and  C_12
REMARK    7  A    between atoms: C_6  and  C_13
REMARK    8  A    between atoms: C_14  and  C_23
REMARK    9  A    between atoms: C_17  and  C_24
REMARK   10  A    between atoms: C_25  and  C_26
REMARK                            x       y       z     vdW  Elec       q    Type
REMARK                         _______ _______ _______ _____ _____    ______ ____
ROOT
ATOM      5  C   UNL     1      15.504   9.355  20.585  0.00  0.00    +0.005 C 
ATOM      7  C   UNL     1      16.511  10.453  20.941  0.00  0.00    +0.009 C 
ATOM      8  C   UNL     1      16.220   8.218  19.841  0.00  0.00    +0.040 C 
ATOM      9  C   UNL     1      17.582   9.912  21.886  0.00  0.00    +0.036 C 
ATOM     10  C   UNL     1      17.501   7.778  20.505  0.00  0.00    -0.037 A 
ATOM     11  C   UNL     1      18.164   8.595  21.439  0.00  0.00    -0.041 A 
ATOM     14  C   UNL     1      18.073   6.550  20.137  0.00  0.00    -0.005 A 
ATOM     17  C   UNL     1      19.365   8.150  22.013  0.00  0.00    -0.044 A 
ATOM     21  C   UNL     1      19.271   6.124  20.706  0.00  0.00    +0.124 A 
ATOM     22  C   UNL     1      19.917   6.923  21.646  0.00  0.00    +0.049 A 
ATOM     23  C   UNL     1      17.414   5.673  19.116  0.00  0.00    +0.048 C 
ATOM     24  C   UNL     1      20.090   8.962  23.039  0.00  0.00    +0.044 C 
ENDROOT
BRANCH   5   6
ATOM      6  C   UNL     1      14.360   9.915  19.742  0.00  0.00    +0.075 C 
ATOM     13  C   UNL     1      14.766  11.200  19.040  0.00  0.00    +0.017 C 
BRANCH   6  12
ATOM      1  O   UNL     1      13.127  11.220  21.287  0.00  0.00    -0.275 OA
ATOM      4  N   UNL     1      12.192   9.183  20.673  0.00  0.00    -0.301 N 
ATOM     12  C   UNL     1      13.175  10.172  20.638  0.00  0.00    +0.219 C 
ATOM     15  C   UNL     1      11.011   9.359  21.521  0.00  0.00    +0.108 C 
ATOM     16  C   UNL     1      12.201   7.948  19.879  0.00  0.00    +0.108 C 
ATOM     18  C   UNL     1      10.826   8.164  22.451  0.00  0.00    +0.019 C 
ATOM     19  C   UNL     1      12.036   6.725  20.778  0.00  0.00    +0.019 C 
ATOM     20  C   UNL     1      10.801   6.852  21.669  0.00  0.00    +0.003 C 
ENDBRANCH   6  12
ENDBRANCH   5   6
BRANCH  21   2
ATOM      2  O   UNL     1      19.829   4.932  20.356  0.00  0.00    -0.489 OA
BRANCH   2  25
ATOM     25  C   UNL     1      21.246   4.821  20.470  0.00  0.00    +0.257 C 
BRANCH  25  26
ATOM     26  C   UNL     1      21.586   3.512  21.156  0.00  0.00    +0.200 C 
BRANCH  26   3
ATOM      3  O   UNL     1      21.683   3.734  22.558  0.00  0.00    -0.380 OA
ATOM     27  C   UNL     1      22.949   3.333  23.063  0.00  0.00    +0.194 C 
ENDBRANCH  26   3
ENDBRANCH  25  26
ENDBRANCH   2  25
ENDBRANCH  21   2
TORSDOF 6
ENDMDL
MODEL 3
REMARK VINA RESULT:      -6.3     22.357     26.037
REMARK  Name = 7135447
REMARK  10 active torsions:
REMARK  status: ('A' for Active; 'I' for Inactive)
REMARK    1  A    between atoms: O_2  and  C_21
REMARK    2  A    between atoms: O_2  and  C_25
REMARK    3  A    between atoms: O_3  and  C_26
REMARK    4  A    between atoms: O_3  and  C_27
REMARK    5  A    between atoms: C_5  and  C_6
REMARK    6  A    between atoms: C_6  and  C_12
REMARK    7  A    between atoms: C_6  and  C_13
REMARK    8  A    between atoms: C_14  and  C_23
REMARK    9  A    between atoms: C_17  and  C_24
REMARK   10  A    between atoms: C_25  and  C_26
REMARK                            x       y       z     vdW  Elec       q    Type
REMARK                         _______ _______ _______ _____ _____    ______ ____
ROOT
ATOM      5  C   UNL     1      -3.793 -11.044  14.979  0.00  0.00    +0.005 C 
ATOM      7  C   UNL     1      -3.691 -11.894  16.249  0.00  0.00    +0.009 C 
ATOM      8  C   UNL     1      -5.269 -10.852  14.601  0.00  0.00    +0.040 C 
ATOM      9  C   UNL     1      -4.358 -11.183  17.425  0.00  0.00    +0.036 C 
ATOM     10  C   UNL     1      -6.138 -10.445  15.765  0.00  0.00    -0.037 A 
ATOM     11  C   UNL     1      -5.726 -10.638  17.095  0.00  0.00    -0.041 A 
ATOM     14  C   UNL     1      -7.412  -9.914  15.510  0.00  0.00    -0.005 A 
ATOM     17  C   UNL     1      -6.580 -10.262  18.143  0.00  0.00    -0.044 A 
ATOM     21  C   UNL     1      -8.256  -9.555  16.559  0.00  0.00    +0.124 A 
ATOM     22  C   UNL     1      -7.839  -9.727  17.877  0.00  0.00    +0.049 A 
ATOM     23  C   UNL     1      -7.901  -9.731  14.105  0.00  0.00    +0.048 C 
ATOM     24  C   UNL     1      -6.174 -10.412  19.576  0.00  0.00    +0.044 C 
ENDROOT
BRANCH   5   6
ATOM      6  C   UNL     1      -3.022 -11.688  13.827  0.00  0.00    +0.075 C 
ATOM     13  C   UNL     1      -1.900 -12.576  14.340  0.00  0.00    +0.017 C 
BRANCH   6  12
ATOM      1  O   UNL     1      -1.709  -9.751  13.451  0.00  0.00    -0.275 OA
ATOM      4  N   UNL     1      -2.822 -10.623  11.607  0.00  0.00    -0.301 N 
ATOM     12  C   UNL     1      -2.455 -10.598  12.952  0.00  0.00    +0.219 C 
ATOM     15  C   UNL     1      -2.314  -9.597  10.694  0.00  0.00    +0.108 C 
ATOM     16  C   UNL     1      -3.670 -11.643  10.977  0.00  0.00    +0.108 C 
ATOM     18  C   UNL     1      -3.459  -8.910   9.955  0.00  0.00    +0.019 C 
ATOM     19  C   UNL     1      -4.841 -10.993  10.242  0.00  0.00    +0.019 C 
ATOM     20  C   UNL     1      -4.358  -9.929   9.258  0.00  0.00    +0.003 C 
ENDBRANCH   6  12
ENDBRANCH   5   6
BRANCH  21   2
ATOM      2  O   UNL     1      -9.493  -9.035  16.319  0.00  0.00    -0.489 OA
BRANCH   2  25
ATOM     25  C   UNL     1      -9.892  -7.919  17.111  0.00  0.00    +0.257 C 
BRANCH  25  26
ATOM     26  C   UNL     1     -11.100  -7.265  16.471  0.00  0.00    +0.200 C 
BRANCH  26   3
ATOM      3  O   UNL     1     -10.666  -6.184  15.655  0.00  0.00    -0.380 OA
ATOM     27  C   UNL     1     -11.708  -5.716  14.811  0.00  0.00    +0.194 C 
ENDBRANCH  26   3
ENDBRANCH  25  26
ENDBRANCH   2  25
ENDBRANCH  21   2
TORSDOF 6
ENDMDL
MODEL 4
REMARK VINA RESULT:      -6.3     16.333     20.317
REMARK  Name = 7135447
REMARK  10 active torsions:
REMARK  status: ('A' for Active; 'I' for Inactive)
REMARK    1  A    between atoms: O_2  and  C_21
REMARK    2  A    between atoms: O_2  and  C_25
REMARK    3  A    between atoms: O_3  and  C_26
REMARK    4  A    between atoms: O_3  and  C_27
REMARK    5  A    between atoms: C_5  and  C_6
REMARK    6  A    between atoms: C_6  and  C_12
REMARK    7  A    between atoms: C_6  and  C_13
REMARK    8  A    between atoms: C_14  and  C_23
REMARK    9  A    between atoms: C_17  and  C_24
REMARK   10  A    between atoms: C_25  and  C_26
REMARK                            x       y       z     vdW  Elec       q    Type
REMARK                         _______ _______ _______ _____ _____    ______ ____
ROOT
ATOM      5  C   UNL     1      20.375   6.879  21.537  0.00  0.00    +0.005 C 
ATOM      7  C   UNL     1      19.931   7.690  22.757  0.00  0.00    +0.009 C 
ATOM      8  C   UNL     1      19.150   6.245  20.862  0.00  0.00    +0.040 C 
ATOM      9  C   UNL     1      19.016   8.839  22.334  0.00  0.00    +0.036 C 
ATOM     10  C   UNL     1      18.009   7.211  20.659  0.00  0.00    -0.037 A 
ATOM     11  C   UNL     1      17.926   8.414  21.383  0.00  0.00    -0.041 A 
ATOM     14  C   UNL     1      16.979   6.871  19.769  0.00  0.00    -0.005 A 
ATOM     17  C   UNL     1      16.833   9.269  21.174  0.00  0.00    -0.044 A 
ATOM     21  C   UNL     1      15.893   7.723  19.578  0.00  0.00    +0.124 A 
ATOM     22  C   UNL     1      15.821   8.924  20.279  0.00  0.00    +0.049 A 
ATOM     23  C   UNL     1      17.015   5.579  19.011  0.00  0.00    +0.048 C 
ATOM     24  C   UNL     1      16.716  10.578  21.890  0.00  0.00    +0.044 C 
ENDROOT
BRANCH   5   6
ATOM      6  C   UNL     1      21.388   5.806  21.933  0.00  0.00    +0.075 C 
ATOM     13  C   UNL     1      21.773   5.921  23.399  0.00  0.00    +0.017 C 
BRANCH   6  12
ATOM      1  O   UNL     1      22.751   6.966  20.380  0.00  0.00    -0.275 OA
ATOM      4  N   UNL     1      23.532   4.901  21.104  0.00  0.00    -0.301 N 
ATOM     12  C   UNL     1      22.615   5.951  21.068  0.00  0.00    +0.219 C 
ATOM     15  C   UNL     1      24.748   4.967  20.290  0.00  0.00    +0.108 C 
ATOM     16  C   UNL     1      23.419   3.703  21.946  0.00  0.00    +0.108 C 
ATOM     18  C   UNL     1      24.885   3.725  19.414  0.00  0.00    +0.019 C 
ATOM     19  C   UNL     1      23.532   2.436  21.100  0.00  0.00    +0.019 C 
ATOM     20  C   UNL     1      24.800   2.447  20.247  0.00  0.00    +0.003 C 
ENDBRANCH   6  12
ENDBRANCH   5   6
BRANCH  21   2
ATOM      2  O   UNL     1      14.891   7.401  18.713  0.00  0.00    -0.489 OA
BRANCH   2  25
ATOM     25  C   UNL     1      13.594   7.201  19.269  0.00  0.00    +0.257 C 
BRANCH  25  26
ATOM     26  C   UNL     1      12.554   7.729  18.301  0.00  0.00    +0.200 C 
BRANCH  26   3
ATOM      3  O   UNL     1      11.308   7.846  18.977  0.00  0.00    -0.380 OA
ATOM     27  C   UNL     1      11.370   8.806  20.023  0.00  0.00    +0.194 C 
ENDBRANCH  26   3
ENDBRANCH  25  26
ENDBRANCH   2  25
ENDBRANCH  21   2
TORSDOF 6
ENDMDL
MODEL 5
REMARK VINA RESULT:      -6.2     14.339     19.295
REMARK  Name = 7135447
REMARK  10 active torsions:
REMARK  status: ('A' for Active; 'I' for Inactive)
REMARK    1  A    between atoms: O_2  and  C_21
REMARK    2  A    between atoms: O_2  and  C_25
REMARK    3  A    between atoms: O_3  and  C_26
REMARK    4  A    between atoms: O_3  and  C_27
REMARK    5  A    between atoms: C_5  and  C_6
REMARK    6  A    between atoms: C_6  and  C_12
REMARK    7  A    between atoms: C_6  and  C_13
REMARK    8  A    between atoms: C_14  and  C_23
REMARK    9  A    between atoms: C_17  and  C_24
REMARK   10  A    between atoms: C_25  and  C_26
REMARK                            x       y       z     vdW  Elec       q    Type
REMARK                         _______ _______ _______ _____ _____    ______ ____
ROOT
ATOM      5  C   UNL     1      15.435   7.771  19.372  0.00  0.00    +0.005 C 
ATOM      7  C   UNL     1      15.663   6.280  19.641  0.00  0.00    +0.009 C 
ATOM      8  C   UNL     1      16.114   8.605  20.468  0.00  0.00    +0.040 C 
ATOM      9  C   UNL     1      17.153   5.947  19.589  0.00  0.00    +0.036 C 
ATOM     10  C   UNL     1      17.530   8.173  20.760  0.00  0.00    -0.037 A 
ATOM     11  C   UNL     1      18.007   6.905  20.381  0.00  0.00    -0.041 A 
ATOM     14  C   UNL     1      18.371   9.038  21.477  0.00  0.00    -0.005 A 
ATOM     17  C   UNL     1      19.326   6.543  20.694  0.00  0.00    -0.044 A 
ATOM     21  C   UNL     1      19.676   8.662  21.792  0.00  0.00    +0.124 A 
ATOM     22  C   UNL     1      20.154   7.415  21.399  0.00  0.00    +0.049 A 
ATOM     23  C   UNL     1      17.884  10.380  21.932  0.00  0.00    +0.048 C 
ATOM     24  C   UNL     1      19.893   5.222  20.281  0.00  0.00    +0.044 C 
ENDROOT
BRANCH   5   6
ATOM      6  C   UNL     1      13.943   8.091  19.297  0.00  0.00    +0.075 C 
ATOM     13  C   UNL     1      13.106   6.980  19.910  0.00  0.00    +0.017 C 
BRANCH   6  12
ATOM      1  O   UNL     1      13.284   7.300  17.163  0.00  0.00    -0.275 OA
ATOM      4  N   UNL     1      13.540   9.599  17.383  0.00  0.00    -0.301 N 
ATOM     12  C   UNL     1      13.558   8.286  17.852  0.00  0.00    +0.219 C 
ATOM     15  C   UNL     1      13.177   9.869  15.989  0.00  0.00    +0.108 C 
ATOM     16  C   UNL     1      13.817  10.794  18.190  0.00  0.00    +0.108 C 
ATOM     18  C   UNL     1      14.254  10.702  15.299  0.00  0.00    +0.019 C 
ATOM     19  C   UNL     1      14.905  11.645  17.539  0.00  0.00    +0.019 C 
ATOM     20  C   UNL     1      14.561  11.973  16.087  0.00  0.00    +0.003 C 
ENDBRANCH   6  12
ENDBRANCH   5   6
BRANCH  21   2
ATOM      2  O   UNL     1      20.499   9.498  22.486  0.00  0.00    -0.489 OA
BRANCH   2  25
ATOM     25  C   UNL     1      21.339   8.907  23.475  0.00  0.00    +0.257 C 
BRANCH  25  26
ATOM     26  C   UNL     1      20.598   8.873  24.797  0.00  0.00    +0.200 C 
BRANCH  26   3
ATOM      3  O   UNL     1      20.280   7.524  25.115  0.00  0.00    -0.380 OA
ATOM     27  C   UNL     1      20.270   7.308  26.520  0.00  0.00    +0.194 C 
ENDBRANCH  26   3
ENDBRANCH  25  26
ENDBRANCH   2  25
ENDBRANCH  21   2
TORSDOF 6
ENDMDL
MODEL 6
REMARK VINA RESULT:      -6.2     34.263     38.648
REMARK  Name = 7135447
REMARK  10 active torsions:
REMARK  status: ('A' for Active; 'I' for Inactive)
REMARK    1  A    between atoms: O_2  and  C_21
REMARK    2  A    between atoms: O_2  and  C_25
REMARK    3  A    between atoms: O_3  and  C_26
REMARK    4  A    between atoms: O_3  and  C_27
REMARK    5  A    between atoms: C_5  and  C_6
REMARK    6  A    between atoms: C_6  and  C_12
REMARK    7  A    between atoms: C_6  and  C_13
REMARK    8  A    between atoms: C_14  and  C_23
REMARK    9  A    between atoms: C_17  and  C_24
REMARK   10  A    between atoms: C_25  and  C_26
REMARK                            x       y       z     vdW  Elec       q    Type
REMARK                         _______ _______ _______ _____ _____    ______ ____
ROOT
ATOM      5  C   UNL     1     -14.960   3.903  33.219  0.00  0.00    +0.005 C 
ATOM      7  C   UNL     1     -14.054   2.671  33.301  0.00  0.00    +0.009 C 
ATOM      8  C   UNL     1     -15.180   4.287  31.748  0.00  0.00    +0.040 C 
ATOM      9  C   UNL     1     -14.719   1.471  32.627  0.00  0.00    +0.036 C 
ATOM     10  C   UNL     1     -15.543   3.115  30.870  0.00  0.00    -0.037 A 
ATOM     11  C   UNL     1     -15.289   1.790  31.268  0.00  0.00    -0.041 A 
ATOM     14  C   UNL     1     -16.095   3.359  29.603  0.00  0.00    -0.005 A 
ATOM     17  C   UNL     1     -15.625   0.736  30.406  0.00  0.00    -0.044 A 
ATOM     21  C   UNL     1     -16.415   2.304  28.751  0.00  0.00    +0.124 A 
ATOM     22  C   UNL     1     -16.182   0.991  29.153  0.00  0.00    +0.049 A 
ATOM     23  C   UNL     1     -16.343   4.759  29.131  0.00  0.00    +0.048 C 
ATOM     24  C   UNL     1     -15.410  -0.693  30.796  0.00  0.00    +0.044 C 
ENDROOT
BRANCH   5   6
ATOM      6  C   UNL     1     -14.362   5.074  33.997  0.00  0.00    +0.075 C 
ATOM     13  C   UNL     1     -14.224   4.744  35.475  0.00  0.00    +0.017 C 
BRANCH   6  12
ATOM      1  O   UNL     1     -16.470   6.153  33.945  0.00  0.00    -0.275 OA
ATOM      4  N   UNL     1     -14.613   7.485  33.524  0.00  0.00    -0.301 N 
ATOM     12  C   UNL     1     -15.249   6.280  33.822  0.00  0.00    +0.219 C 
ATOM     15  C   UNL     1     -15.408   8.701  33.337  0.00  0.00    +0.108 C 
ATOM     16  C   UNL     1     -13.161   7.676  33.416  0.00  0.00    +0.108 C 
ATOM     18  C   UNL     1     -15.087   9.361  31.999  0.00  0.00    +0.019 C 
ATOM     19  C   UNL     1     -12.798   8.318  32.079  0.00  0.00    +0.019 C 
ATOM     20  C   UNL     1     -13.587   9.605  31.847  0.00  0.00    +0.003 C 
ENDBRANCH   6  12
ENDBRANCH   5   6
BRANCH  21   2
ATOM      2  O   UNL     1     -16.954   2.533  27.521  0.00  0.00    -0.489 OA
BRANCH   2  25
ATOM     25  C   UNL     1     -16.550   1.666  26.464  0.00  0.00    +0.257 C 
BRANCH  25  26
ATOM     26  C   UNL     1     -17.168   2.146  25.166  0.00  0.00    +0.200 C 
BRANCH  26   3
ATOM      3  O   UNL     1     -16.131   2.422  24.232  0.00  0.00    -0.380 OA
ATOM     27  C   UNL     1     -15.490   3.657  24.514  0.00  0.00    +0.194 C 
ENDBRANCH  26   3
ENDBRANCH  25  26
ENDBRANCH   2  25
ENDBRANCH  21   2
TORSDOF 6
ENDMDL
MODEL 7
REMARK VINA RESULT:      -6.1     22.847     27.187
REMARK  Name = 7135447
REMARK  10 active torsions:
REMARK  status: ('A' for Active; 'I' for Inactive)
REMARK    1  A    between atoms: O_2  and  C_21
REMARK    2  A    between atoms: O_2  and  C_25
REMARK    3  A    between atoms: O_3  and  C_26
REMARK    4  A    between atoms: O_3  and  C_27
REMARK    5  A    between atoms: C_5  and  C_6
REMARK    6  A    between atoms: C_6  and  C_12
REMARK    7  A    between atoms: C_6  and  C_13
REMARK    8  A    between atoms: C_14  and  C_23
REMARK    9  A    between atoms: C_17  and  C_24
REMARK   10  A    between atoms: C_25  and  C_26
REMARK                            x       y       z     vdW  Elec       q    Type
REMARK                         _______ _______ _______ _____ _____    ______ ____
ROOT
ATOM      5  C   UNL     1      -6.070 -10.744  17.095  0.00  0.00    +0.005 C 
ATOM      7  C   UNL     1      -4.675 -10.387  17.617  0.00  0.00    +0.009 C 
ATOM      8  C   UNL     1      -6.258 -10.170  15.683  0.00  0.00    +0.040 C 
ATOM      9  C   UNL     1      -3.596 -11.016  16.737  0.00  0.00    +0.036 C 
ATOM     10  C   UNL     1      -5.095 -10.446  14.763  0.00  0.00    -0.037 A 
ATOM     11  C   UNL     1      -3.830 -10.805  15.262  0.00  0.00    -0.041 A 
ATOM     14  C   UNL     1      -5.268 -10.284  13.380  0.00  0.00    -0.005 A 
ATOM     17  C   UNL     1      -2.774 -11.031  14.365  0.00  0.00    -0.044 A 
ATOM     21  C   UNL     1      -4.209 -10.500  12.500  0.00  0.00    +0.124 A 
ATOM     22  C   UNL     1      -2.962 -10.876  12.993  0.00  0.00    +0.049 A 
ATOM     23  C   UNL     1      -6.591  -9.864  12.816  0.00  0.00    +0.048 C 
ATOM     24  C   UNL     1      -1.420 -11.451  14.841  0.00  0.00    +0.044 C 
ENDROOT
BRANCH   5   6
ATOM      6  C   UNL     1      -7.155 -10.226  18.037  0.00  0.00    +0.075 C 
ATOM     13  C   UNL     1      -6.846 -10.574  19.484  0.00  0.00    +0.017 C 
BRANCH   6  12
ATOM      1  O   UNL     1      -8.595 -12.057  17.603  0.00  0.00    -0.275 OA
ATOM      4  N   UNL     1      -9.501  -9.935  17.320  0.00  0.00    -0.301 N 
ATOM     12  C   UNL     1      -8.477 -10.829  17.636  0.00  0.00    +0.219 C 
ATOM     15  C   UNL     1     -10.814 -10.445  16.919  0.00  0.00    +0.108 C 
ATOM     16  C   UNL     1      -9.404  -8.472  17.393  0.00  0.00    +0.108 C 
ATOM     18  C   UNL     1     -11.246  -9.846  15.583  0.00  0.00    +0.019 C 
ATOM     19  C   UNL     1      -9.810  -7.836  16.066  0.00  0.00    +0.019 C 
ATOM     20  C   UNL     1     -11.188  -8.321  15.615  0.00  0.00    +0.003 C 
ENDBRANCH   6  12
ENDBRANCH   5   6
BRANCH  21   2
ATOM      2  O   UNL     1      -4.371 -10.348  11.156  0.00  0.00    -0.489 OA
BRANCH   2  25
ATOM     25  C   UNL     1      -3.423  -9.526  10.477  0.00  0.00    +0.257 C 
BRANCH  25  26
ATOM     26  C   UNL     1      -4.116  -8.811   9.335  0.00  0.00    +0.200 C 
BRANCH  26   3
ATOM      3  O   UNL     1      -5.180  -8.024   9.857  0.00  0.00    -0.380 OA
ATOM     27  C   UNL     1      -6.412  -8.323   9.216  0.00  0.00    +0.194 C 
ENDBRANCH  26   3
ENDBRANCH  25  26
ENDBRANCH   2  25
ENDBRANCH  21   2
TORSDOF 6
ENDMDL
MODEL 8
REMARK VINA RESULT:      -6.0     23.142     26.952
REMARK  Name = 7135447
REMARK  10 active torsions:
REMARK  status: ('A' for Active; 'I' for Inactive)
REMARK    1  A    between atoms: O_2  and  C_21
REMARK    2  A    between atoms: O_2  and  C_25
REMARK    3  A    between atoms: O_3  and  C_26
REMARK    4  A    between atoms: O_3  and  C_27
REMARK    5  A    between atoms: C_5  and  C_6
REMARK    6  A    between atoms: C_6  and  C_12
REMARK    7  A    between atoms: C_6  and  C_13
REMARK    8  A    between atoms: C_14  and  C_23
REMARK    9  A    between atoms: C_17  and  C_24
REMARK   10  A    between atoms: C_25  and  C_26
REMARK                            x       y       z     vdW  Elec       q    Type
REMARK                         _______ _______ _______ _____ _____    ______ ____
ROOT
ATOM      5  C   UNL     1      -4.337 -11.382  16.505  0.00  0.00    +0.005 C 
ATOM      7  C   UNL     1      -2.961 -10.726  16.350  0.00  0.00    +0.009 C 
ATOM      8  C   UNL     1      -5.340 -10.713  15.554  0.00  0.00    +0.040 C 
ATOM      9  C   UNL     1      -2.428 -10.929  14.933  0.00  0.00    +0.036 C 
ATOM     10  C   UNL     1      -4.817 -10.550  14.148  0.00  0.00    -0.037 A 
ATOM     11  C   UNL     1      -3.442 -10.612  13.862  0.00  0.00    -0.041 A 
ATOM     14  C   UNL     1      -5.724 -10.274  13.113  0.00  0.00    -0.005 A 
ATOM     17  C   UNL     1      -3.004 -10.433  12.541  0.00  0.00    -0.044 A 
ATOM     21  C   UNL     1      -5.276 -10.087  11.807  0.00  0.00    +0.124 A 
ATOM     22  C   UNL     1      -3.915 -10.169  11.520  0.00  0.00    +0.049 A 
ATOM     23  C   UNL     1      -7.192 -10.161  13.388  0.00  0.00    +0.048 C 
ATOM     24  C   UNL     1      -1.556 -10.527  12.177  0.00  0.00    +0.044 C 
ENDROOT
BRANCH   5   6
ATOM      6  C   UNL     1      -4.824 -11.294  17.951  0.00  0.00    +0.075 C 
ATOM     13  C   UNL     1      -3.793 -11.852  18.918  0.00  0.00    +0.017 C 
BRANCH   6  12
ATOM      1  O   UNL     1      -6.090 -13.296  18.026  0.00  0.00    -0.275 OA
ATOM      4  N   UNL     1      -7.276 -11.310  18.247  0.00  0.00    -0.301 N 
ATOM     12  C   UNL     1      -6.115 -12.063  18.077  0.00  0.00    +0.219 C 
ATOM     15  C   UNL     1      -8.570 -11.985  18.375  0.00  0.00    +0.108 C 
ATOM     16  C   UNL     1      -7.332  -9.847  18.357  0.00  0.00    +0.108 C 
ATOM     18  C   UNL     1      -9.570 -11.443  17.358  0.00  0.00    +0.019 C 
ATOM     19  C   UNL     1      -8.310  -9.265  17.339  0.00  0.00    +0.019 C 
ATOM     20  C   UNL     1      -9.685  -9.923  17.449  0.00  0.00    +0.003 C 
ENDBRANCH   6  12
ENDBRANCH   5   6
BRANCH  21   2
ATOM      2  O   UNL     1      -6.151  -9.822  10.796  0.00  0.00    -0.489 OA
BRANCH   2  25
ATOM     25  C   UNL     1      -5.926  -8.634  10.039  0.00  0.00    +0.257 C 
BRANCH  25  26
ATOM     26  C   UNL     1      -6.131  -8.939   8.568  0.00  0.00    +0.200 C 
BRANCH  26   3
ATOM      3  O   UNL     1      -4.948  -9.534   8.048  0.00  0.00    -0.380 OA
ATOM     27  C   UNL     1      -5.249 -10.601   7.159  0.00  0.00    +0.194 C 
ENDBRANCH  26   3
ENDBRANCH  25  26
ENDBRANCH   2  25
ENDBRANCH  21   2
TORSDOF 6
ENDMDL
MODEL 9
REMARK VINA RESULT:      -5.9      3.033      7.040
REMARK  Name = 7135447
REMARK  10 active torsions:
REMARK  status: ('A' for Active; 'I' for Inactive)
REMARK    1  A    between atoms: O_2  and  C_21
REMARK    2  A    between atoms: O_2  and  C_25
REMARK    3  A    between atoms: O_3  and  C_26
REMARK    4  A    between atoms: O_3  and  C_27
REMARK    5  A    between atoms: C_5  and  C_6
REMARK    6  A    between atoms: C_6  and  C_12
REMARK    7  A    between atoms: C_6  and  C_13
REMARK    8  A    between atoms: C_14  and  C_23
REMARK    9  A    between atoms: C_17  and  C_24
REMARK   10  A    between atoms: C_25  and  C_26
REMARK                            x       y       z     vdW  Elec       q    Type
REMARK                         _______ _______ _______ _____ _____    ______ ____
ROOT
ATOM      5  C   UNL     1       7.694   8.772   3.643  0.00  0.00    +0.005 C 
ATOM      7  C   UNL     1       8.271   8.683   5.059  0.00  0.00    +0.009 C 
ATOM      8  C   UNL     1       8.719   8.238   2.632  0.00  0.00    +0.040 C 
ATOM      9  C   UNL     1       8.545   7.228   5.436  0.00  0.00    +0.036 C 
ATOM     10  C   UNL     1       9.331   6.919   3.037  0.00  0.00    -0.037 A 
ATOM     11  C   UNL     1       9.284   6.463   4.366  0.00  0.00    -0.041 A 
ATOM     14  C   UNL     1      10.012   6.161   2.072  0.00  0.00    -0.005 A 
ATOM     17  C   UNL     1       9.887   5.240   4.696  0.00  0.00    -0.044 A 
ATOM     21  C   UNL     1      10.617   4.953   2.415  0.00  0.00    +0.124 A 
ATOM     22  C   UNL     1      10.553   4.491   3.727  0.00  0.00    +0.049 A 
ATOM     23  C   UNL     1      10.117   6.636   0.655  0.00  0.00    +0.048 C 
ATOM     24  C   UNL     1       9.833   4.691   6.087  0.00  0.00    +0.044 C 
ENDROOT
BRANCH   5   6
ATOM      6  C   UNL     1       7.299  10.208   3.303  0.00  0.00    +0.075 C 
ATOM     13  C   UNL     1       7.456  11.125   4.505  0.00  0.00    +0.017 C 
BRANCH   6  12
ATOM      1  O   UNL     1       4.958  10.158   3.662  0.00  0.00    -0.275 OA
ATOM      4  N   UNL     1       5.665  10.304   1.453  0.00  0.00    -0.301 N 
ATOM     12  C   UNL     1       5.868  10.221   2.831  0.00  0.00    +0.219 C 
ATOM     15  C   UNL     1       4.302  10.320   0.917  0.00  0.00    +0.108 C 
ATOM     16  C   UNL     1       6.725  10.425   0.445  0.00  0.00    +0.108 C 
ATOM     18  C   UNL     1       4.119   9.230  -0.136  0.00  0.00    +0.019 C 
ATOM     19  C   UNL     1       6.586   9.337  -0.619  0.00  0.00    +0.019 C 
ATOM     20  C   UNL     1       5.184   9.328  -1.226  0.00  0.00    +0.003 C 
ENDBRANCH   6  12
ENDBRANCH   5   6
BRANCH  21   2
ATOM      2  O   UNL     1      11.277   4.209   1.483  0.00  0.00    -0.489 OA
BRANCH   2  25
ATOM     25  C   UNL     1      12.429   3.493   1.923  0.00  0.00    +0.257 C 
BRANCH  25  26
ATOM     26  C   UNL     1      13.479   3.526   0.830  0.00  0.00    +0.200 C 
BRANCH  26   3
ATOM      3  O   UNL     1      13.902   4.870   0.633  0.00  0.00    -0.380 OA
ATOM     27  C   UNL     1      14.613   5.363   1.760  0.00  0.00    +0.194 C 
ENDBRANCH  26   3
ENDBRANCH  25  26
ENDBRANCH   2  25
ENDBRANCH  21   2
TORSDOF 6
ENDMDL
MODEL 10
REMARK VINA RESULT:      -5.7     16.660     20.899
REMARK  Name = 7135447
REMARK  10 active torsions:
REMARK  status: ('A' for Active; 'I' for Inactive)
REMARK    1  A    between atoms: O_2  and  C_21
REMARK    2  A    between atoms: O_2  and  C_25
REMARK    3  A    between atoms: O_3  and  C_26
REMARK    4  A    between atoms: O_3  and  C_27
REMARK    5  A    between atoms: C_5  and  C_6
REMARK    6  A    between atoms: C_6  and  C_12
REMARK    7  A    between atoms: C_6  and  C_13
REMARK    8  A    between atoms: C_14  and  C_23
REMARK    9  A    between atoms: C_17  and  C_24
REMARK   10  A    between atoms: C_25  and  C_26
REMARK                            x       y       z     vdW  Elec       q    Type
REMARK                         _______ _______ _______ _____ _____    ______ ____
ROOT
ATOM      5  C   UNL     1      20.335   7.125  21.015  0.00  0.00    +0.005 C 
ATOM      7  C   UNL     1      19.948   7.788  22.340  0.00  0.00    +0.009 C 
ATOM      8  C   UNL     1      19.119   6.394  20.427  0.00  0.00    +0.040 C 
ATOM      9  C   UNL     1      18.866   8.843  22.115  0.00  0.00    +0.036 C 
ATOM     10  C   UNL     1      17.860   7.225  20.431  0.00  0.00    -0.037 A 
ATOM     11  C   UNL     1      17.726   8.356  21.256  0.00  0.00    -0.041 A 
ATOM     14  C   UNL     1      16.778   6.824  19.632  0.00  0.00    -0.005 A 
ATOM     17  C   UNL     1      16.527   9.084  21.239  0.00  0.00    -0.044 A 
ATOM     21  C   UNL     1      15.587   7.549  19.632  0.00  0.00    +0.124 A 
ATOM     22  C   UNL     1      15.462   8.680  20.434  0.00  0.00    +0.049 A 
ATOM     23  C   UNL     1      16.871   5.602  18.771  0.00  0.00    +0.048 C 
ATOM     24  C   UNL     1      16.347  10.315  22.069  0.00  0.00    +0.044 C 
ENDROOT
BRANCH   5   6
ATOM      6  C   UNL     1      21.503   6.159  21.208  0.00  0.00    +0.075 C 
ATOM     13  C   UNL     1      21.181   4.782  20.651  0.00  0.00    +0.017 C 
BRANCH   6  12
ATOM      1  O   UNL     1      21.165   5.272  23.380  0.00  0.00    -0.275 OA
ATOM      4  N   UNL     1      22.832   6.877  23.163  0.00  0.00    -0.301 N 
ATOM     12  C   UNL     1      21.812   6.056  22.681  0.00  0.00    +0.219 C 
ATOM     15  C   UNL     1      23.189   6.836  24.583  0.00  0.00    +0.108 C 
ATOM     16  C   UNL     1      23.648   7.785  22.349  0.00  0.00    +0.108 C 
ATOM     18  C   UNL     1      23.147   8.233  25.195  0.00  0.00    +0.019 C 
ATOM     19  C   UNL     1      23.615   9.201  22.920  0.00  0.00    +0.019 C 
ATOM     20  C   UNL     1      24.003   9.214  24.398  0.00  0.00    +0.003 C 
ENDBRANCH   6  12
ENDBRANCH   5   6
BRANCH  21   2
ATOM      2  O   UNL     1      14.534   7.167  18.857  0.00  0.00    -0.489 OA
BRANCH   2  25
ATOM     25  C   UNL     1      13.234   7.267  19.435  0.00  0.00    +0.257 C 
BRANCH  25  26
ATOM     26  C   UNL     1      12.376   8.170  18.571  0.00  0.00    +0.200 C 
BRANCH  26   3
ATOM      3  O   UNL     1      11.040   8.146  19.058  0.00  0.00    -0.380 OA
ATOM     27  C   UNL     1      10.979   8.510  20.430  0.00  0.00    +0.194 C 
ENDBRANCH  26   3
ENDBRANCH  25  26
ENDBRANCH   2  25
ENDBRANCH  21   2
TORSDOF 6
ENDMDL
