MODEL 1
REMARK VINA RESULT:      -5.9      0.000      0.000
REMARK  Name = 38027256
REMARK  13 active torsions:
REMARK  status: ('A' for Active; 'I' for Inactive)
REMARK    1  A    between atoms: S_1  and  N_7
REMARK    2  A    between atoms: S_1  and  C_26
REMARK    3  A    between atoms: O_5  and  C_31
REMARK    4  A    between atoms: O_5  and  C_32
REMARK    5  A    between atoms: N_6  and  C_19
REMARK    6  A    between atoms: N_7  and  C_16
REMARK    7  A    between atoms: C_8  and  C_12
REMARK    8  A    between atoms: C_9  and  C_16
REMARK    9  A    between atoms: C_11  and  C_15
REMARK   10  A    between atoms: C_12  and  C_17
REMARK   11  A    between atoms: C_12  and  C_18
REMARK   12  A    between atoms: C_13  and  C_20
REMARK   13  A    between atoms: C_15  and  C_21
REMARK                            x       y       z     vdW  Elec       q    Type
REMARK                         _______ _______ _______ _____ _____    ______ ____
ROOT
ATOM      8  C   UNL     1      12.030   8.194   5.113  0.00  0.00    +0.000 C 
ATOM      9  C   UNL     1      11.954   9.526   4.325  0.00  0.00    +0.030 C 
ATOM     10  C   UNL     1      12.950   7.197   4.394  0.00  0.00    +0.012 C 
ATOM     11  C   UNL     1      12.472   6.891   2.962  0.00  0.00    +0.023 C 
ATOM     13  C   UNL     1      12.120   8.154   2.204  0.00  0.00    -0.073 C 
ATOM     14  C   UNL     1      11.904   9.326   2.829  0.00  0.00    -0.023 C 
ATOM     20  C   UNL     1      12.065   8.051   0.705  0.00  0.00    +0.039 C 
ENDROOT
BRANCH   8  12
ATOM     12  C   UNL     1      12.518   8.410   6.549  0.00  0.00    -0.013 C 
ATOM     17  C   UNL     1      12.822   7.071   7.214  0.00  0.00    +0.007 C 
ATOM     18  C   UNL     1      13.747   9.312   6.562  0.00  0.00    +0.007 C 
ENDBRANCH   8  12
BRANCH  11  15
ATOM     15  C   UNL     1      11.295   5.909   2.971  0.00  0.00    +0.103 C 
BRANCH  15  21
ATOM      2  O   UNL     1      10.907   3.604   2.347  0.00  0.00    -0.276 OA
ATOM      6  N   UNL     1      13.004   4.544   2.007  0.00  0.00    -0.312 N 
ATOM     21  C   UNL     1      11.679   4.556   2.416  0.00  0.00    +0.214 C 
ATOM     33  H   UNL     1      13.548   5.400   2.069  0.00  0.00    +0.149 HD
BRANCH   6  19
ATOM     19  C   UNL     1      13.643   3.383   1.438  0.00  0.00    +0.073 C 
ATOM     22  C   UNL     1      15.161   3.473   1.532  0.00  0.00    +0.022 C 
ATOM     23  C   UNL     1      13.403   3.280  -0.063  0.00  0.00    +0.022 C 
ATOM     24  C   UNL     1      15.567   4.343   0.347  0.00  0.00    +0.002 C 
ATOM     25  C   UNL     1      14.459   4.186  -0.694  0.00  0.00    +0.002 C 
ENDBRANCH   6  19
ENDBRANCH  15  21
ENDBRANCH  11  15
BRANCH   9  16
ATOM     16  C   UNL     1      10.749  10.363   4.768  0.00  0.00    +0.113 C 
BRANCH  16   7
ATOM      7  N   UNL     1       9.575   9.977   3.970  0.00  0.00    -0.189 NA
ATOM     34  H   UNL     1       9.541  10.317   3.002  0.00  0.00    +0.148 HD
BRANCH   7   1
ATOM      1  S   UNL     1       8.096   9.622   4.737  0.00  0.00    +0.058 S 
ATOM      3  O   UNL     1       7.128   9.205   3.741  0.00  0.00    -0.153 OA
ATOM      4  O   UNL     1       7.775  10.688   5.666  0.00  0.00    -0.153 OA
BRANCH   1  26
ATOM     26  C   UNL     1       8.524   8.206   5.707  0.00  0.00    +0.105 A 
ATOM     27  C   UNL     1       8.606   6.950   5.107  0.00  0.00    +0.032 A 
ATOM     28  C   UNL     1       8.776   8.346   7.072  0.00  0.00    +0.032 A 
ATOM     29  C   UNL     1       8.941   5.833   5.872  0.00  0.00    +0.047 A 
ATOM     30  C   UNL     1       9.111   7.229   7.837  0.00  0.00    +0.047 A 
ATOM     31  C   UNL     1       9.194   5.972   7.237  0.00  0.00    +0.120 A 
BRANCH  31   5
ATOM      5  O   UNL     1       9.521   4.882   7.984  0.00  0.00    -0.495 OA
ATOM     32  C   UNL     1       9.409   5.009   9.401  0.00  0.00    +0.277 C 
ENDBRANCH  31   5
ENDBRANCH   1  26
ENDBRANCH   7   1
ENDBRANCH  16   7
ENDBRANCH   9  16
TORSDOF 9
ENDMDL
MODEL 2
REMARK VINA RESULT:      -5.9      1.868      3.396
REMARK  Name = 38027256
REMARK  13 active torsions:
REMARK  status: ('A' for Active; 'I' for Inactive)
REMARK    1  A    between atoms: S_1  and  N_7
REMARK    2  A    between atoms: S_1  and  C_26
REMARK    3  A    between atoms: O_5  and  C_31
REMARK    4  A    between atoms: O_5  and  C_32
REMARK    5  A    between atoms: N_6  and  C_19
REMARK    6  A    between atoms: N_7  and  C_16
REMARK    7  A    between atoms: C_8  and  C_12
REMARK    8  A    between atoms: C_9  and  C_16
REMARK    9  A    between atoms: C_11  and  C_15
REMARK   10  A    between atoms: C_12  and  C_17
REMARK   11  A    between atoms: C_12  and  C_18
REMARK   12  A    between atoms: C_13  and  C_20
REMARK   13  A    between atoms: C_15  and  C_21
REMARK                            x       y       z     vdW  Elec       q    Type
REMARK                         _______ _______ _______ _____ _____    ______ ____
ROOT
ATOM      8  C   UNL     1       9.808   8.716   2.564  0.00  0.00    +0.000 C 
ATOM      9  C   UNL     1       8.782   8.934   3.705  0.00  0.00    +0.030 C 
ATOM     10  C   UNL     1       9.613   7.333   1.926  0.00  0.00    +0.012 C 
ATOM     11  C   UNL     1       9.768   6.191   2.948  0.00  0.00    +0.023 C 
ATOM     13  C   UNL     1       8.991   6.465   4.219  0.00  0.00    -0.073 C 
ATOM     14  C   UNL     1       8.547   7.695   4.535  0.00  0.00    -0.023 C 
ATOM     20  C   UNL     1       8.695   5.282   5.100  0.00  0.00    +0.039 C 
ENDROOT
BRANCH   8  12
ATOM     12  C   UNL     1       9.706   9.803   1.491  0.00  0.00    -0.013 C 
ATOM     17  C   UNL     1      11.065  10.035   0.838  0.00  0.00    +0.007 C 
ATOM     18  C   UNL     1       8.662   9.423   0.447  0.00  0.00    +0.007 C 
ENDBRANCH   8  12
BRANCH  11  15
ATOM     15  C   UNL     1      11.245   5.921   3.254  0.00  0.00    +0.103 C 
BRANCH  15  21
ATOM      2  O   UNL     1      11.027   3.529   2.966  0.00  0.00    -0.276 OA
ATOM      6  N   UNL     1      12.907   4.614   2.139  0.00  0.00    -0.312 N 
ATOM     21  C   UNL     1      11.682   4.551   2.786  0.00  0.00    +0.214 C 
ATOM     33  H   UNL     1      13.350   5.519   2.005  0.00  0.00    +0.149 HD
BRANCH   6  19
ATOM     19  C   UNL     1      13.568   3.457   1.589  0.00  0.00    +0.073 C 
ATOM     22  C   UNL     1      15.082   3.619   1.591  0.00  0.00    +0.022 C 
ATOM     23  C   UNL     1      13.250   3.270   0.110  0.00  0.00    +0.022 C 
ATOM     24  C   UNL     1      15.381   4.448   0.345  0.00  0.00    +0.002 C 
ATOM     25  C   UNL     1      14.226   4.190  -0.622  0.00  0.00    +0.002 C 
ENDBRANCH   6  19
ENDBRANCH  15  21
ENDBRANCH  11  15
BRANCH   9  16
ATOM     16  C   UNL     1       9.210  10.087   4.620  0.00  0.00    +0.113 C 
BRANCH  16   7
ATOM      7  N   UNL     1      10.597   9.866   5.056  0.00  0.00    -0.189 NA
ATOM     34  H   UNL     1      11.174   9.252   4.470  0.00  0.00    +0.148 HD
BRANCH   7   1
ATOM      1  S   UNL     1      11.011  10.008   6.703  0.00  0.00    +0.058 S 
ATOM      3  O   UNL     1      10.154  10.997   7.328  0.00  0.00    -0.153 OA
ATOM      4  O   UNL     1      12.453  10.111   6.823  0.00  0.00    -0.153 OA
BRANCH   1  26
ATOM     26  C   UNL     1      10.554   8.418   7.326  0.00  0.00    +0.105 A 
ATOM     27  C   UNL     1      11.425   7.338   7.184  0.00  0.00    +0.032 A 
ATOM     28  C   UNL     1       9.322   8.244   7.957  0.00  0.00    +0.032 A 
ATOM     29  C   UNL     1      11.063   6.083   7.673  0.00  0.00    +0.047 A 
ATOM     30  C   UNL     1       8.961   6.989   8.446  0.00  0.00    +0.047 A 
ATOM     31  C   UNL     1       9.831   5.908   8.304  0.00  0.00    +0.120 A 
BRANCH  31   5
ATOM      5  O   UNL     1       9.478   4.683   8.782  0.00  0.00    -0.495 OA
ATOM     32  C   UNL     1       9.039   4.616  10.138  0.00  0.00    +0.277 C 
ENDBRANCH  31   5
ENDBRANCH   1  26
ENDBRANCH   7   1
ENDBRANCH  16   7
ENDBRANCH   9  16
TORSDOF 9
ENDMDL
MODEL 3
REMARK VINA RESULT:      -5.9     23.594     26.838
REMARK  Name = 38027256
REMARK  13 active torsions:
REMARK  status: ('A' for Active; 'I' for Inactive)
REMARK    1  A    between atoms: S_1  and  N_7
REMARK    2  A    between atoms: S_1  and  C_26
REMARK    3  A    between atoms: O_5  and  C_31
REMARK    4  A    between atoms: O_5  and  C_32
REMARK    5  A    between atoms: N_6  and  C_19
REMARK    6  A    between atoms: N_7  and  C_16
REMARK    7  A    between atoms: C_8  and  C_12
REMARK    8  A    between atoms: C_9  and  C_16
REMARK    9  A    between atoms: C_11  and  C_15
REMARK   10  A    between atoms: C_12  and  C_17
REMARK   11  A    between atoms: C_12  and  C_18
REMARK   12  A    between atoms: C_13  and  C_20
REMARK   13  A    between atoms: C_15  and  C_21
REMARK                            x       y       z     vdW  Elec       q    Type
REMARK                         _______ _______ _______ _____ _____    ______ ____
ROOT
ATOM      8  C   UNL     1      -4.425 -11.669  12.303  0.00  0.00    +0.000 C 
ATOM      9  C   UNL     1      -3.297 -11.121  11.393  0.00  0.00    +0.030 C 
ATOM     10  C   UNL     1      -5.788 -11.527  11.610  0.00  0.00    +0.012 C 
ATOM     11  C   UNL     1      -6.113 -10.063  11.257  0.00  0.00    +0.023 C 
ATOM     13  C   UNL     1      -4.941  -9.372  10.591  0.00  0.00    -0.073 C 
ATOM     14  C   UNL     1      -3.692  -9.866  10.652  0.00  0.00    -0.023 C 
ATOM     20  C   UNL     1      -5.246  -8.121   9.815  0.00  0.00    +0.039 C 
ENDROOT
BRANCH   8  12
ATOM     12  C   UNL     1      -4.186 -13.133  12.686  0.00  0.00    -0.013 C 
ATOM     17  C   UNL     1      -4.954 -13.481  13.957  0.00  0.00    +0.007 C 
ATOM     18  C   UNL     1      -4.590 -14.054  11.540  0.00  0.00    +0.007 C 
ENDBRANCH   8  12
BRANCH  11  15
ATOM     15  C   UNL     1      -6.579  -9.287  12.494  0.00  0.00    +0.103 C 
BRANCH  15  21
ATOM      2  O   UNL     1      -8.851  -9.986  12.046  0.00  0.00    -0.276 OA
ATOM      6  N   UNL     1      -8.243  -9.391  14.207  0.00  0.00    -0.312 N 
ATOM     21  C   UNL     1      -8.013  -9.600  12.856  0.00  0.00    +0.214 C 
ATOM     33  H   UNL     1      -7.468  -9.110  14.803  0.00  0.00    +0.149 HD
BRANCH   6  19
ATOM     19  C   UNL     1      -9.524  -9.609  14.832  0.00  0.00    +0.073 C 
ATOM     22  C   UNL     1     -10.354  -8.332  14.875  0.00  0.00    +0.022 C 
ATOM     23  C   UNL     1      -9.384  -9.970  16.306  0.00  0.00    +0.022 C 
ATOM     24  C   UNL     1      -9.829  -7.575  16.091  0.00  0.00    +0.002 C 
ATOM     25  C   UNL     1      -9.245  -8.631  17.029  0.00  0.00    +0.002 C 
ENDBRANCH   6  19
ENDBRANCH  15  21
ENDBRANCH  11  15
BRANCH   9  16
ATOM     16  C   UNL     1      -2.017 -10.858  12.195  0.00  0.00    +0.113 C 
BRANCH  16   7
ATOM      7  N   UNL     1      -2.372 -10.215  13.470  0.00  0.00    -0.189 NA
ATOM     34  H   UNL     1      -2.596  -9.214  13.437  0.00  0.00    +0.148 HD
BRANCH   7   1
ATOM      1  S   UNL     1      -1.789 -10.848  14.940  0.00  0.00    +0.058 S 
ATOM      3  O   UNL     1      -0.821  -9.928  15.506  0.00  0.00    -0.153 OA
ATOM      4  O   UNL     1      -1.446 -12.244  14.754  0.00  0.00    -0.153 OA
BRANCH   1  26
ATOM     26  C   UNL     1      -3.239 -10.803  15.951  0.00  0.00    +0.105 A 
ATOM     27  C   UNL     1      -4.412 -10.231  15.461  0.00  0.00    +0.032 A 
ATOM     28  C   UNL     1      -3.208 -11.337  17.239  0.00  0.00    +0.032 A 
ATOM     29  C   UNL     1      -5.555 -10.192  16.259  0.00  0.00    +0.047 A 
ATOM     30  C   UNL     1      -4.351 -11.299  18.038  0.00  0.00    +0.047 A 
ATOM     31  C   UNL     1      -5.525 -10.727  17.548  0.00  0.00    +0.120 A 
BRANCH  31   5
ATOM      5  O   UNL     1      -6.641 -10.690  18.327  0.00  0.00    -0.495 OA
ATOM     32  C   UNL     1      -6.446 -10.538  19.733  0.00  0.00    +0.277 C 
ENDBRANCH  31   5
ENDBRANCH   1  26
ENDBRANCH   7   1
ENDBRANCH  16   7
ENDBRANCH   9  16
TORSDOF 9
ENDMDL
MODEL 4
REMARK VINA RESULT:      -5.7      2.408      4.327
REMARK  Name = 38027256
REMARK  13 active torsions:
REMARK  status: ('A' for Active; 'I' for Inactive)
REMARK    1  A    between atoms: S_1  and  N_7
REMARK    2  A    between atoms: S_1  and  C_26
REMARK    3  A    between atoms: O_5  and  C_31
REMARK    4  A    between atoms: O_5  and  C_32
REMARK    5  A    between atoms: N_6  and  C_19
REMARK    6  A    between atoms: N_7  and  C_16
REMARK    7  A    between atoms: C_8  and  C_12
REMARK    8  A    between atoms: C_9  and  C_16
REMARK    9  A    between atoms: C_11  and  C_15
REMARK   10  A    between atoms: C_12  and  C_17
REMARK   11  A    between atoms: C_12  and  C_18
REMARK   12  A    between atoms: C_13  and  C_20
REMARK   13  A    between atoms: C_15  and  C_21
REMARK                            x       y       z     vdW  Elec       q    Type
REMARK                         _______ _______ _______ _____ _____    ______ ____
ROOT
ATOM      8  C   UNL     1       9.067   8.758   3.362  0.00  0.00    +0.000 C 
ATOM      9  C   UNL     1       8.062   7.975   4.245  0.00  0.00    +0.030 C 
ATOM     10  C   UNL     1       9.794   7.803   2.403  0.00  0.00    +0.012 C 
ATOM     11  C   UNL     1      10.561   6.697   3.152  0.00  0.00    +0.023 C 
ATOM     13  C   UNL     1       9.712   6.055   4.230  0.00  0.00    -0.073 C 
ATOM     14  C   UNL     1       8.592   6.635   4.697  0.00  0.00    -0.023 C 
ATOM     20  C   UNL     1      10.156   4.708   4.729  0.00  0.00    +0.039 C 
ENDROOT
BRANCH   8  12
ATOM     12  C   UNL     1       8.377   9.870   2.565  0.00  0.00    -0.013 C 
ATOM     17  C   UNL     1       9.403  10.660   1.759  0.00  0.00    +0.007 C 
ATOM     18  C   UNL     1       7.306   9.283   1.652  0.00  0.00    +0.007 C 
ENDBRANCH   8  12
BRANCH  11  15
ATOM     15  C   UNL     1      11.875   7.232   3.732  0.00  0.00    +0.103 C 
BRANCH  15  21
ATOM      2  O   UNL     1      13.853   7.808   2.465  0.00  0.00    -0.276 OA
ATOM      6  N   UNL     1      13.095   5.612   2.468  0.00  0.00    -0.312 N 
ATOM     21  C   UNL     1      13.053   6.951   2.827  0.00  0.00    +0.214 C 
ATOM     33  H   UNL     1      12.406   4.973   2.857  0.00  0.00    +0.149 HD
BRANCH   6  19
ATOM     19  C   UNL     1      14.112   5.058   1.608  0.00  0.00    +0.073 C 
ATOM     22  C   UNL     1      13.802   5.307   0.138  0.00  0.00    +0.022 C 
ATOM     23  C   UNL     1      14.160   3.537   1.690  0.00  0.00    +0.022 C 
ATOM     24  C   UNL     1      12.812   4.209  -0.237  0.00  0.00    +0.002 C 
ATOM     25  C   UNL     1      13.071   3.056   0.733  0.00  0.00    +0.002 C 
ENDBRANCH   6  19
ENDBRANCH  15  21
ENDBRANCH  11  15
BRANCH   9  16
ATOM     16  C   UNL     1       7.644   8.797   5.469  0.00  0.00    +0.113 C 
BRANCH  16   7
ATOM      7  N   UNL     1       8.843   9.378   6.091  0.00  0.00    -0.189 NA
ATOM     34  H   UNL     1       9.552   9.765   5.458  0.00  0.00    +0.148 HD
BRANCH   7   1
ATOM      1  S   UNL     1       9.360   8.841   7.623  0.00  0.00    +0.058 S 
ATOM      3  O   UNL     1       8.609   7.657   7.993  0.00  0.00    -0.153 OA
ATOM      4  O   UNL     1       9.428   9.973   8.526  0.00  0.00    -0.153 OA
BRANCH   1  26
ATOM     26  C   UNL     1      11.025   8.348   7.289  0.00  0.00    +0.105 A 
ATOM     27  C   UNL     1      11.959   9.292   6.865  0.00  0.00    +0.032 A 
ATOM     28  C   UNL     1      11.402   7.014   7.446  0.00  0.00    +0.032 A 
ATOM     29  C   UNL     1      13.272   8.903   6.598  0.00  0.00    +0.047 A 
ATOM     30  C   UNL     1      12.715   6.625   7.179  0.00  0.00    +0.047 A 
ATOM     31  C   UNL     1      13.650   7.569   6.755  0.00  0.00    +0.120 A 
BRANCH  31   5
ATOM      5  O   UNL     1      14.931   7.189   6.495  0.00  0.00    -0.495 OA
ATOM     32  C   UNL     1      15.881   8.228   6.258  0.00  0.00    +0.277 C 
ENDBRANCH  31   5
ENDBRANCH   1  26
ENDBRANCH   7   1
ENDBRANCH  16   7
ENDBRANCH   9  16
TORSDOF 9
ENDMDL
MODEL 5
REMARK VINA RESULT:      -5.6     23.799     27.451
REMARK  Name = 38027256
REMARK  13 active torsions:
REMARK  status: ('A' for Active; 'I' for Inactive)
REMARK    1  A    between atoms: S_1  and  N_7
REMARK    2  A    between atoms: S_1  and  C_26
REMARK    3  A    between atoms: O_5  and  C_31
REMARK    4  A    between atoms: O_5  and  C_32
REMARK    5  A    between atoms: N_6  and  C_19
REMARK    6  A    between atoms: N_7  and  C_16
REMARK    7  A    between atoms: C_8  and  C_12
REMARK    8  A    between atoms: C_9  and  C_16
REMARK    9  A    between atoms: C_11  and  C_15
REMARK   10  A    between atoms: C_12  and  C_17
REMARK   11  A    between atoms: C_12  and  C_18
REMARK   12  A    between atoms: C_13  and  C_20
REMARK   13  A    between atoms: C_15  and  C_21
REMARK                            x       y       z     vdW  Elec       q    Type
REMARK                         _______ _______ _______ _____ _____    ______ ____
ROOT
ATOM      8  C   UNL     1      -6.402 -10.323  15.308  0.00  0.00    +0.000 C 
ATOM      9  C   UNL     1      -7.133 -10.403  16.672  0.00  0.00    +0.030 C 
ATOM     10  C   UNL     1      -5.421 -11.495  15.157  0.00  0.00    +0.012 C 
ATOM     11  C   UNL     1      -4.364 -11.520  16.277  0.00  0.00    +0.023 C 
ATOM     13  C   UNL     1      -4.990 -11.333  17.645  0.00  0.00    -0.073 C 
ATOM     14  C   UNL     1      -6.233 -10.845  17.801  0.00  0.00    -0.023 C 
ATOM     20  C   UNL     1      -4.169 -11.764  18.829  0.00  0.00    +0.039 C 
ENDROOT
BRANCH   8  12
ATOM     12  C   UNL     1      -7.386 -10.314  14.134  0.00  0.00    -0.013 C 
ATOM     17  C   UNL     1      -6.632 -10.259  12.810  0.00  0.00    +0.007 C 
ATOM     18  C   UNL     1      -8.292 -11.539  14.191  0.00  0.00    +0.007 C 
ENDBRANCH   8  12
BRANCH  11  15
ATOM     15  C   UNL     1      -3.269 -10.477  16.027  0.00  0.00    +0.103 C 
BRANCH  15  21
ATOM      2  O   UNL     1      -1.180 -11.458  15.304  0.00  0.00    -0.276 OA
ATOM      6  N   UNL     1      -2.709 -10.725  13.716  0.00  0.00    -0.312 N 
ATOM     21  C   UNL     1      -2.257 -10.949  15.008  0.00  0.00    +0.214 C 
ATOM     33  H   UNL     1      -3.637 -10.333  13.578  0.00  0.00    +0.149 HD
BRANCH   6  19
ATOM     19  C   UNL     1      -1.948 -11.074  12.542  0.00  0.00    +0.073 C 
ATOM     22  C   UNL     1      -1.714  -9.868  11.643  0.00  0.00    +0.022 C 
ATOM     23  C   UNL     1      -2.711 -12.030  11.633  0.00  0.00    +0.022 C 
ATOM     24  C   UNL     1      -3.001  -9.737  10.834  0.00  0.00    +0.002 C 
ATOM     25  C   UNL     1      -3.619 -11.134  10.793  0.00  0.00    +0.002 C 
ENDBRANCH   6  19
ENDBRANCH  15  21
ENDBRANCH  11  15
BRANCH   9  16
ATOM     16  C   UNL     1      -7.781  -9.061  17.031  0.00  0.00    +0.113 C 
BRANCH  16   7
ATOM      7  N   UNL     1      -8.759  -9.273  18.110  0.00  0.00    -0.189 NA
ATOM     34  H   UNL     1      -8.386  -9.549  19.025  0.00  0.00    +0.148 HD
BRANCH   7   1
ATOM      1  S   UNL     1     -10.360  -9.722  17.739  0.00  0.00    +0.058 S 
ATOM      3  O   UNL     1     -11.180  -9.596  18.929  0.00  0.00    -0.153 OA
ATOM      4  O   UNL     1     -10.344 -10.964  16.991  0.00  0.00    -0.153 OA
BRANCH   1  26
ATOM     26  C   UNL     1     -10.839  -8.447  16.611  0.00  0.00    +0.105 A 
ATOM     27  C   UNL     1     -11.205  -8.773  15.305  0.00  0.00    +0.032 A 
ATOM     28  C   UNL     1     -10.845  -7.115  17.025  0.00  0.00    +0.032 A 
ATOM     29  C   UNL     1     -11.580  -7.768  14.415  0.00  0.00    +0.047 A 
ATOM     30  C   UNL     1     -11.220  -6.109  16.134  0.00  0.00    +0.047 A 
ATOM     31  C   UNL     1     -11.587  -6.436  14.829  0.00  0.00    +0.120 A 
BRANCH  31   5
ATOM      5  O   UNL     1     -11.952  -5.454  13.959  0.00  0.00    -0.495 OA
ATOM     32  C   UNL     1     -12.564  -5.864  12.737  0.00  0.00    +0.277 C 
ENDBRANCH  31   5
ENDBRANCH   1  26
ENDBRANCH   7   1
ENDBRANCH  16   7
ENDBRANCH   9  16
TORSDOF 9
ENDMDL
MODEL 6
REMARK VINA RESULT:      -5.4      2.636      5.257
REMARK  Name = 38027256
REMARK  13 active torsions:
REMARK  status: ('A' for Active; 'I' for Inactive)
REMARK    1  A    between atoms: S_1  and  N_7
REMARK    2  A    between atoms: S_1  and  C_26
REMARK    3  A    between atoms: O_5  and  C_31
REMARK    4  A    between atoms: O_5  and  C_32
REMARK    5  A    between atoms: N_6  and  C_19
REMARK    6  A    between atoms: N_7  and  C_16
REMARK    7  A    between atoms: C_8  and  C_12
REMARK    8  A    between atoms: C_9  and  C_16
REMARK    9  A    between atoms: C_11  and  C_15
REMARK   10  A    between atoms: C_12  and  C_17
REMARK   11  A    between atoms: C_12  and  C_18
REMARK   12  A    between atoms: C_13  and  C_20
REMARK   13  A    between atoms: C_15  and  C_21
REMARK                            x       y       z     vdW  Elec       q    Type
REMARK                         _______ _______ _______ _____ _____    ______ ____
ROOT
ATOM      8  C   UNL     1       9.002   8.218   5.464  0.00  0.00    +0.000 C 
ATOM      9  C   UNL     1       8.736   8.133   6.988  0.00  0.00    +0.030 C 
ATOM     10  C   UNL     1       8.673   6.879   4.787  0.00  0.00    +0.012 C 
ATOM     11  C   UNL     1       9.501   5.716   5.363  0.00  0.00    +0.023 C 
ATOM     13  C   UNL     1       9.505   5.724   6.878  0.00  0.00    -0.073 C 
ATOM     14  C   UNL     1       9.148   6.809   7.588  0.00  0.00    -0.023 C 
ATOM     20  C   UNL     1       9.887   4.440   7.561  0.00  0.00    +0.039 C 
ENDROOT
BRANCH   8  12
ATOM     12  C   UNL     1       8.197   9.344   4.808  0.00  0.00    -0.013 C 
ATOM     17  C   UNL     1       9.133  10.420   4.266  0.00  0.00    +0.007 C 
ATOM     18  C   UNL     1       7.312   8.788   3.697  0.00  0.00    +0.007 C 
ENDBRANCH   8  12
BRANCH  11  15
ATOM     15  C   UNL     1      10.931   5.727   4.809  0.00  0.00    +0.103 C 
BRANCH  15  21
ATOM      2  O   UNL     1      10.147   4.327   3.000  0.00  0.00    -0.276 OA
ATOM      6  N   UNL     1      12.218   5.365   2.829  0.00  0.00    -0.312 N 
ATOM     21  C   UNL     1      11.023   5.053   3.459  0.00  0.00    +0.214 C 
ATOM     33  H   UNL     1      12.861   6.012   3.278  0.00  0.00    +0.149 HD
BRANCH   6  19
ATOM     19  C   UNL     1      12.578   4.860   1.527  0.00  0.00    +0.073 C 
ATOM     22  C   UNL     1      13.233   3.488   1.616  0.00  0.00    +0.022 C 
ATOM     23  C   UNL     1      13.658   5.707   0.866  0.00  0.00    +0.022 C 
ATOM     24  C   UNL     1      14.690   3.780   1.963  0.00  0.00    +0.002 C 
ATOM     25  C   UNL     1      14.974   5.190   1.443  0.00  0.00    +0.002 C 
ENDBRANCH   6  19
ENDBRANCH  15  21
ENDBRANCH  11  15
BRANCH   9  16
ATOM     16  C   UNL     1       9.436   9.272   7.737  0.00  0.00    +0.113 C 
BRANCH  16   7
ATOM      7  N   UNL     1      10.891   9.140   7.561  0.00  0.00    -0.189 NA
ATOM     34  H   UNL     1      11.312   8.248   7.843  0.00  0.00    +0.148 HD
BRANCH   7   1
ATOM      1  S   UNL     1      11.884  10.525   7.573  0.00  0.00    +0.058 S 
ATOM      3  O   UNL     1      12.091  10.954   8.943  0.00  0.00    -0.153 OA
ATOM      4  O   UNL     1      11.402  11.464   6.579  0.00  0.00    -0.153 OA
BRANCH   1  26
ATOM     26  C   UNL     1      13.414   9.874   6.968  0.00  0.00    +0.105 A 
ATOM     27  C   UNL     1      14.488  10.730   6.729  0.00  0.00    +0.032 A 
ATOM     28  C   UNL     1      13.543   8.506   6.728  0.00  0.00    +0.032 A 
ATOM     29  C   UNL     1      15.694  10.218   6.249  0.00  0.00    +0.047 A 
ATOM     30  C   UNL     1      14.749   7.994   6.249  0.00  0.00    +0.047 A 
ATOM     31  C   UNL     1      15.824   8.850   6.009  0.00  0.00    +0.120 A 
BRANCH  31   5
ATOM      5  O   UNL     1      17.001   8.349   5.541  0.00  0.00    -0.495 OA
ATOM     32  C   UNL     1      17.115   8.174   4.129  0.00  0.00    +0.277 C 
ENDBRANCH  31   5
ENDBRANCH   1  26
ENDBRANCH   7   1
ENDBRANCH  16   7
ENDBRANCH   9  16
TORSDOF 9
ENDMDL
MODEL 7
REMARK VINA RESULT:      -5.4     23.910     27.553
REMARK  Name = 38027256
REMARK  13 active torsions:
REMARK  status: ('A' for Active; 'I' for Inactive)
REMARK    1  A    between atoms: S_1  and  N_7
REMARK    2  A    between atoms: S_1  and  C_26
REMARK    3  A    between atoms: O_5  and  C_31
REMARK    4  A    between atoms: O_5  and  C_32
REMARK    5  A    between atoms: N_6  and  C_19
REMARK    6  A    between atoms: N_7  and  C_16
REMARK    7  A    between atoms: C_8  and  C_12
REMARK    8  A    between atoms: C_9  and  C_16
REMARK    9  A    between atoms: C_11  and  C_15
REMARK   10  A    between atoms: C_12  and  C_17
REMARK   11  A    between atoms: C_12  and  C_18
REMARK   12  A    between atoms: C_13  and  C_20
REMARK   13  A    between atoms: C_15  and  C_21
REMARK                            x       y       z     vdW  Elec       q    Type
REMARK                         _______ _______ _______ _____ _____    ______ ____
ROOT
ATOM      8  C   UNL     1      -6.115 -10.579  15.394  0.00  0.00    +0.000 C 
ATOM      9  C   UNL     1      -6.831 -10.564  16.768  0.00  0.00    +0.030 C 
ATOM     10  C   UNL     1      -5.132 -11.757  15.315  0.00  0.00    +0.012 C 
ATOM     11  C   UNL     1      -4.063 -11.700  16.422  0.00  0.00    +0.023 C 
ATOM     13  C   UNL     1      -4.674 -11.419  17.780  0.00  0.00    -0.073 C 
ATOM     14  C   UNL     1      -5.917 -10.923  17.916  0.00  0.00    -0.023 C 
ATOM     20  C   UNL     1      -3.839 -11.763  18.982  0.00  0.00    +0.039 C 
ENDROOT
BRANCH   8  12
ATOM     12  C   UNL     1      -7.112 -10.655  14.234  0.00  0.00    -0.013 C 
ATOM     17  C   UNL     1      -6.731  -9.662  13.140  0.00  0.00    +0.007 C 
ATOM     18  C   UNL     1      -7.174 -12.074  13.679  0.00  0.00    +0.007 C 
ENDBRANCH   8  12
BRANCH  11  15
ATOM     15  C   UNL     1      -2.974 -10.675  16.086  0.00  0.00    +0.103 C 
BRANCH  15  21
ATOM      2  O   UNL     1      -1.111 -11.786  15.016  0.00  0.00    -0.276 OA
ATOM      6  N   UNL     1      -2.657 -10.636  13.718  0.00  0.00    -0.312 N 
ATOM     21  C   UNL     1      -2.129 -11.109  14.910  0.00  0.00    +0.214 C 
ATOM     33  H   UNL     1      -3.531 -10.117  13.735  0.00  0.00    +0.149 HD
BRANCH   6  19
ATOM     19  C   UNL     1      -2.057 -10.895  12.432  0.00  0.00    +0.073 C 
ATOM     22  C   UNL     1      -2.310  -9.757  11.453  0.00  0.00    +0.022 C 
ATOM     23  C   UNL     1      -2.698 -12.089  11.735  0.00  0.00    +0.022 C 
ATOM     24  C   UNL     1      -3.711 -10.022  10.911  0.00  0.00    +0.002 C 
ATOM     25  C   UNL     1      -3.943 -11.526  11.053  0.00  0.00    +0.002 C 
ENDBRANCH   6  19
ENDBRANCH  15  21
ENDBRANCH  11  15
BRANCH   9  16
ATOM     16  C   UNL     1      -7.478  -9.201  17.039  0.00  0.00    +0.113 C 
BRANCH  16   7
ATOM      7  N   UNL     1      -8.633  -9.386  17.932  0.00  0.00    -0.189 NA
ATOM     34  H   UNL     1      -8.601 -10.189  18.570  0.00  0.00    +0.148 HD
BRANCH   7   1
ATOM      1  S   UNL     1     -10.166  -8.792  17.484  0.00  0.00    +0.058 S 
ATOM      3  O   UNL     1     -10.083  -7.358  17.284  0.00  0.00    -0.153 OA
ATOM      4  O   UNL     1     -11.169  -9.348  18.371  0.00  0.00    -0.153 OA
BRANCH   1  26
ATOM     26  C   UNL     1     -10.398  -9.550  15.904  0.00  0.00    +0.105 A 
ATOM     27  C   UNL     1     -10.430  -8.765  14.752  0.00  0.00    +0.032 A 
ATOM     28  C   UNL     1     -10.553 -10.933  15.810  0.00  0.00    +0.032 A 
ATOM     29  C   UNL     1     -10.617  -9.362  13.506  0.00  0.00    +0.047 A 
ATOM     30  C   UNL     1     -10.739 -11.531  14.564  0.00  0.00    +0.047 A 
ATOM     31  C   UNL     1     -10.771 -10.746  13.411  0.00  0.00    +0.120 A 
BRANCH  31   5
ATOM      5  O   UNL     1     -10.953 -11.329  12.195  0.00  0.00    -0.495 OA
ATOM     32  C   UNL     1      -9.813 -11.416  11.340  0.00  0.00    +0.277 C 
ENDBRANCH  31   5
ENDBRANCH   1  26
ENDBRANCH   7   1
ENDBRANCH  16   7
ENDBRANCH   9  16
TORSDOF 9
ENDMDL
MODEL 8
REMARK VINA RESULT:      -5.4     24.283     27.835
REMARK  Name = 38027256
REMARK  13 active torsions:
REMARK  status: ('A' for Active; 'I' for Inactive)
REMARK    1  A    between atoms: S_1  and  N_7
REMARK    2  A    between atoms: S_1  and  C_26
REMARK    3  A    between atoms: O_5  and  C_31
REMARK    4  A    between atoms: O_5  and  C_32
REMARK    5  A    between atoms: N_6  and  C_19
REMARK    6  A    between atoms: N_7  and  C_16
REMARK    7  A    between atoms: C_8  and  C_12
REMARK    8  A    between atoms: C_9  and  C_16
REMARK    9  A    between atoms: C_11  and  C_15
REMARK   10  A    between atoms: C_12  and  C_17
REMARK   11  A    between atoms: C_12  and  C_18
REMARK   12  A    between atoms: C_13  and  C_20
REMARK   13  A    between atoms: C_15  and  C_21
REMARK                            x       y       z     vdW  Elec       q    Type
REMARK                         _______ _______ _______ _____ _____    ______ ____
ROOT
ATOM      8  C   UNL     1      -5.754 -11.509  17.283  0.00  0.00    +0.000 C 
ATOM      9  C   UNL     1      -7.183 -11.034  16.917  0.00  0.00    +0.030 C 
ATOM     10  C   UNL     1      -4.706 -10.537  16.721  0.00  0.00    +0.012 C 
ATOM     11  C   UNL     1      -4.799 -10.403  15.189  0.00  0.00    +0.023 C 
ATOM     13  C   UNL     1      -6.228 -10.197  14.728  0.00  0.00    -0.073 C 
ATOM     14  C   UNL     1      -7.280 -10.473  15.519  0.00  0.00    -0.023 C 
ATOM     20  C   UNL     1      -6.419  -9.625  13.351  0.00  0.00    +0.039 C 
ENDROOT
BRANCH   8  12
ATOM     12  C   UNL     1      -5.572 -11.651  18.798  0.00  0.00    -0.013 C 
ATOM     17  C   UNL     1      -4.108 -11.908  19.135  0.00  0.00    +0.007 C 
ATOM     18  C   UNL     1      -6.081 -10.403  19.513  0.00  0.00    +0.007 C 
ENDBRANCH   8  12
BRANCH  11  15
ATOM     15  C   UNL     1      -4.163 -11.609  14.489  0.00  0.00    +0.103 C 
BRANCH  15  21
ATOM      2  O   UNL     1      -2.083 -10.724  13.627  0.00  0.00    -0.276 OA
ATOM      6  N   UNL     1      -3.738 -11.405  12.146  0.00  0.00    -0.312 N 
ATOM     21  C   UNL     1      -3.196 -11.191  13.404  0.00  0.00    +0.214 C 
ATOM     33  H   UNL     1      -4.655 -11.837  12.069  0.00  0.00    +0.149 HD
BRANCH   6  19
ATOM     19  C   UNL     1      -3.038 -11.096  10.923  0.00  0.00    +0.073 C 
ATOM     22  C   UNL     1      -2.897  -9.594  10.719  0.00  0.00    +0.022 C 
ATOM     23  C   UNL     1      -3.825 -11.531   9.692  0.00  0.00    +0.022 C 
ATOM     24  C   UNL     1      -4.234  -9.159  10.126  0.00  0.00    +0.002 C 
ATOM     25  C   UNL     1      -4.809 -10.393   9.430  0.00  0.00    +0.002 C 
ENDBRANCH   6  19
ENDBRANCH  15  21
ENDBRANCH  11  15
BRANCH   9  16
ATOM     16  C   UNL     1      -8.203 -12.166  17.085  0.00  0.00    +0.113 C 
BRANCH  16   7
ATOM      7  N   UNL     1      -9.195 -11.774  18.097  0.00  0.00    -0.189 NA
ATOM     34  H   UNL     1      -8.974 -11.999  19.074  0.00  0.00    +0.148 HD
BRANCH   7   1
ATOM      1  S   UNL     1     -10.839 -11.621  17.672  0.00  0.00    +0.058 S 
ATOM      3  O   UNL     1     -11.656 -11.767  18.861  0.00  0.00    -0.153 OA
ATOM      4  O   UNL     1     -11.104 -12.434  16.500  0.00  0.00    -0.153 OA
BRANCH   1  26
ATOM     26  C   UNL     1     -10.921  -9.932  17.157  0.00  0.00    +0.105 A 
ATOM     27  C   UNL     1     -11.848  -9.543  16.190  0.00  0.00    +0.032 A 
ATOM     28  C   UNL     1     -10.058  -8.989  17.716  0.00  0.00    +0.032 A 
ATOM     29  C   UNL     1     -11.911  -8.211  15.782  0.00  0.00    +0.047 A 
ATOM     30  C   UNL     1     -10.121  -7.657  17.307  0.00  0.00    +0.047 A 
ATOM     31  C   UNL     1     -11.048  -7.268  16.341  0.00  0.00    +0.120 A 
BRANCH  31   5
ATOM      5  O   UNL     1     -11.110  -5.967  15.942  0.00  0.00    -0.495 OA
ATOM     32  C   UNL     1     -11.844  -5.688  14.750  0.00  0.00    +0.277 C 
ENDBRANCH  31   5
ENDBRANCH   1  26
ENDBRANCH   7   1
ENDBRANCH  16   7
ENDBRANCH   9  16
TORSDOF 9
ENDMDL
MODEL 9
REMARK VINA RESULT:      -5.3     24.308     28.063
REMARK  Name = 38027256
REMARK  13 active torsions:
REMARK  status: ('A' for Active; 'I' for Inactive)
REMARK    1  A    between atoms: S_1  and  N_7
REMARK    2  A    between atoms: S_1  and  C_26
REMARK    3  A    between atoms: O_5  and  C_31
REMARK    4  A    between atoms: O_5  and  C_32
REMARK    5  A    between atoms: N_6  and  C_19
REMARK    6  A    between atoms: N_7  and  C_16
REMARK    7  A    between atoms: C_8  and  C_12
REMARK    8  A    between atoms: C_9  and  C_16
REMARK    9  A    between atoms: C_11  and  C_15
REMARK   10  A    between atoms: C_12  and  C_17
REMARK   11  A    between atoms: C_12  and  C_18
REMARK   12  A    between atoms: C_13  and  C_20
REMARK   13  A    between atoms: C_15  and  C_21
REMARK                            x       y       z     vdW  Elec       q    Type
REMARK                         _______ _______ _______ _____ _____    ______ ____
ROOT
ATOM      8  C   UNL     1      -6.566 -12.977  14.959  0.00  0.00    +0.000 C 
ATOM      9  C   UNL     1      -5.784 -13.467  16.205  0.00  0.00    +0.030 C 
ATOM     10  C   UNL     1      -5.600 -12.405  13.911  0.00  0.00    +0.012 C 
ATOM     11  C   UNL     1      -4.773 -11.229  14.462  0.00  0.00    +0.023 C 
ATOM     13  C   UNL     1      -4.185 -11.543  15.822  0.00  0.00    -0.073 C 
ATOM     14  C   UNL     1      -4.641 -12.554  16.582  0.00  0.00    -0.023 C 
ATOM     20  C   UNL     1      -3.029 -10.693  16.273  0.00  0.00    +0.039 C 
ENDROOT
BRANCH   8  12
ATOM     12  C   UNL     1      -7.405 -14.099  14.337  0.00  0.00    -0.013 C 
ATOM     17  C   UNL     1      -8.866 -13.676  14.239  0.00  0.00    +0.007 C 
ATOM     18  C   UNL     1      -6.856 -14.473  12.964  0.00  0.00    +0.007 C 
ENDBRANCH   8  12
BRANCH  11  15
ATOM     15  C   UNL     1      -5.603  -9.941  14.505  0.00  0.00    +0.103 C 
BRANCH  15  21
ATOM      2  O   UNL     1      -7.537  -9.606  13.091  0.00  0.00    -0.276 OA
ATOM      6  N   UNL     1      -5.411  -9.545  12.155  0.00  0.00    -0.312 N 
ATOM     21  C   UNL     1      -6.317  -9.681  13.197  0.00  0.00    +0.214 C 
ATOM     33  H   UNL     1      -4.415  -9.583  12.357  0.00  0.00    +0.149 HD
BRANCH   6  19
ATOM     19  C   UNL     1      -5.810  -9.292  10.793  0.00  0.00    +0.073 C 
ATOM     22  C   UNL     1      -5.659 -10.532   9.922  0.00  0.00    +0.022 C 
ATOM     23  C   UNL     1      -4.892  -8.286  10.109  0.00  0.00    +0.022 C 
ATOM     24  C   UNL     1      -4.182 -10.557   9.542  0.00  0.00    +0.002 C 
ATOM     25  C   UNL     1      -3.700  -9.108   9.621  0.00  0.00    +0.002 C 
ENDBRANCH   6  19
ENDBRANCH  15  21
ENDBRANCH  11  15
BRANCH   9  16
ATOM     16  C   UNL     1      -6.716 -13.642  17.409  0.00  0.00    +0.113 C 
BRANCH  16   7
ATOM      7  N   UNL     1      -6.117 -12.984  18.580  0.00  0.00    -0.189 NA
ATOM     34  H   UNL     1      -5.268 -13.412  18.967  0.00  0.00    +0.148 HD
BRANCH   7   1
ATOM      1  S   UNL     1      -7.085 -12.056  19.631  0.00  0.00    +0.058 S 
ATOM      3  O   UNL     1      -6.231 -11.271  20.501  0.00  0.00    -0.153 OA
ATOM      4  O   UNL     1      -8.121 -12.901  20.194  0.00  0.00    -0.153 OA
BRANCH   1  26
ATOM     26  C   UNL     1      -7.880 -10.949  18.504  0.00  0.00    +0.105 A 
ATOM     27  C   UNL     1      -7.136  -9.964  17.854  0.00  0.00    +0.032 A 
ATOM     28  C   UNL     1      -9.250 -11.059  18.268  0.00  0.00    +0.032 A 
ATOM     29  C   UNL     1      -7.763  -9.089  16.968  0.00  0.00    +0.047 A 
ATOM     30  C   UNL     1      -9.877 -10.184  17.381  0.00  0.00    +0.047 A 
ATOM     31  C   UNL     1      -9.134  -9.199  16.731  0.00  0.00    +0.120 A 
BRANCH  31   5
ATOM      5  O   UNL     1      -9.746  -8.344  15.865  0.00  0.00    -0.495 OA
ATOM     32  C   UNL     1     -10.428  -7.226  16.432  0.00  0.00    +0.277 C 
ENDBRANCH  31   5
ENDBRANCH   1  26
ENDBRANCH   7   1
ENDBRANCH  16   7
ENDBRANCH   9  16
TORSDOF 9
ENDMDL
MODEL 10
REMARK VINA RESULT:      -5.2     25.421     29.311
REMARK  Name = 38027256
REMARK  13 active torsions:
REMARK  status: ('A' for Active; 'I' for Inactive)
REMARK    1  A    between atoms: S_1  and  N_7
REMARK    2  A    between atoms: S_1  and  C_26
REMARK    3  A    between atoms: O_5  and  C_31
REMARK    4  A    between atoms: O_5  and  C_32
REMARK    5  A    between atoms: N_6  and  C_19
REMARK    6  A    between atoms: N_7  and  C_16
REMARK    7  A    between atoms: C_8  and  C_12
REMARK    8  A    between atoms: C_9  and  C_16
REMARK    9  A    between atoms: C_11  and  C_15
REMARK   10  A    between atoms: C_12  and  C_17
REMARK   11  A    between atoms: C_12  and  C_18
REMARK   12  A    between atoms: C_13  and  C_20
REMARK   13  A    between atoms: C_15  and  C_21
REMARK                            x       y       z     vdW  Elec       q    Type
REMARK                         _______ _______ _______ _____ _____    ______ ____
ROOT
ATOM      8  C   UNL     1     -12.216   9.920  18.621  0.00  0.00    +0.000 C 
ATOM      9  C   UNL     1     -10.840   9.266  18.906  0.00  0.00    +0.030 C 
ATOM     10  C   UNL     1     -13.113   9.843  19.865  0.00  0.00    +0.012 C 
ATOM     11  C   UNL     1     -13.348   8.392  20.326  0.00  0.00    +0.023 C 
ATOM     13  C   UNL     1     -12.056   7.601  20.374  0.00  0.00    -0.073 C 
ATOM     14  C   UNL     1     -10.942   8.014  19.743  0.00  0.00    -0.023 C 
ATOM     20  C   UNL     1     -12.062   6.346  21.201  0.00  0.00    +0.039 C 
ENDROOT
BRANCH   8  12
ATOM     12  C   UNL     1     -12.072  11.378  18.173  0.00  0.00    -0.013 C 
ATOM     17  C   UNL     1     -13.206  11.758  17.227  0.00  0.00    +0.007 C 
ATOM     18  C   UNL     1     -12.044  12.305  19.384  0.00  0.00    +0.007 C 
ENDBRANCH   8  12
BRANCH  11  15
ATOM     15  C   UNL     1     -14.388   7.693  19.444  0.00  0.00    +0.103 C 
BRANCH  15  21
ATOM      2  O   UNL     1     -15.737   7.408  21.431  0.00  0.00    -0.276 OA
ATOM      6  N   UNL     1     -16.307   6.268  19.489  0.00  0.00    -0.312 N 
ATOM     21  C   UNL     1     -15.534   7.130  20.253  0.00  0.00    +0.214 C 
ATOM     33  H   UNL     1     -16.077   6.137  18.507  0.00  0.00    +0.149 HD
BRANCH   6  19
ATOM     19  C   UNL     1     -17.467   5.583  20.003  0.00  0.00    +0.073 C 
ATOM     22  C   UNL     1     -17.820   4.364  19.161  0.00  0.00    +0.022 C 
ATOM     23  C   UNL     1     -18.723   6.439  19.903  0.00  0.00    +0.022 C 
ATOM     24  C   UNL     1     -18.609   4.928  17.983  0.00  0.00    +0.002 C 
ATOM     25  C   UNL     1     -19.224   6.239  18.473  0.00  0.00    +0.002 C 
ENDBRANCH   6  19
ENDBRANCH  15  21
ENDBRANCH  11  15
BRANCH   9  16
ATOM     16  C   UNL     1     -10.099   8.949  17.602  0.00  0.00    +0.113 C 
BRANCH  16   7
ATOM      7  N   UNL     1     -10.977   8.153  16.731  0.00  0.00    -0.189 NA
ATOM     34  H   UNL     1     -11.128   7.173  16.997  0.00  0.00    +0.148 HD
BRANCH   7   1
ATOM      1  S   UNL     1     -11.153   8.563  15.086  0.00  0.00    +0.058 S 
ATOM      3  O   UNL     1     -10.245   7.758  14.292  0.00  0.00    -0.153 OA
ATOM      4  O   UNL     1     -11.152  10.007  14.954  0.00  0.00    -0.153 OA
BRANCH   1  26
ATOM     26  C   UNL     1     -12.801   8.015  14.754  0.00  0.00    +0.105 A 
ATOM     27  C   UNL     1     -13.789   8.147  15.729  0.00  0.00    +0.032 A 
ATOM     28  C   UNL     1     -13.111   7.448  13.518  0.00  0.00    +0.032 A 
ATOM     29  C   UNL     1     -15.088   7.713  15.468  0.00  0.00    +0.047 A 
ATOM     30  C   UNL     1     -14.410   7.013  13.257  0.00  0.00    +0.047 A 
ATOM     31  C   UNL     1     -15.399   7.146  14.231  0.00  0.00    +0.120 A 
BRANCH  31   5
ATOM      5  O   UNL     1     -16.667   6.721  13.977  0.00  0.00    -0.495 OA
ATOM     32  C   UNL     1     -17.191   5.697  14.822  0.00  0.00    +0.277 C 
ENDBRANCH  31   5
ENDBRANCH   1  26
ENDBRANCH   7   1
ENDBRANCH  16   7
ENDBRANCH   9  16
TORSDOF 9
ENDMDL
