MODEL 1
REMARK VINA RESULT:      -7.3      0.000      0.000
REMARK  Name = 75536599
REMARK  7 active torsions:
REMARK  status: ('A' for Active; 'I' for Inactive)
REMARK    1  A    between atoms: O_4  and  C_9
REMARK    2  A    between atoms: N_6  and  C_8
REMARK    3  A    between atoms: N_6  and  C_13
REMARK    4  A    between atoms: N_7  and  C_12
REMARK    5  A    between atoms: C_10  and  C_12
REMARK    6  A    between atoms: C_13  and  C_14
REMARK    7  A    between atoms: C_15  and  C_18
REMARK                            x       y       z     vdW  Elec       q    Type
REMARK                         _______ _______ _______ _____ _____    ______ ____
ROOT
ATOM      3  O   UNL     1      10.553   8.538  20.030  0.00  0.00    -0.371 OA
ATOM      8  C   UNL     1      12.405   7.246  19.293  0.00  0.00    +0.111 C 
ATOM      9  C   UNL     1      12.292   7.133  20.801  0.00  0.00    +0.164 C 
ATOM     10  C   UNL     1      10.839   7.535  21.018  0.00  0.00    +0.165 C 
ATOM     11  C   UNL     1      11.578   8.492  19.021  0.00  0.00    +0.181 C 
ENDROOT
BRANCH   9   4
ATOM      4  O   UNL     1      12.554   5.825  21.272  0.00  0.00    -0.388 OA
ATOM     26  H   UNL     1      13.048   5.895  22.106  0.00  0.00    +0.210 HD
ENDBRANCH   9   4
BRANCH   8   6
ATOM      6  N   UNL     1      13.774   7.360  18.817  0.00  0.00    -0.305 NA
ATOM     25  H   UNL     1      13.785   7.920  17.964  0.00  0.00    +0.123 HD
BRANCH   6  13
ATOM     13  C   UNL     1      14.626   8.000  19.813  0.00  0.00    +0.116 C 
BRANCH  13  14
ATOM      2  F   UNL     1      19.626   5.441  20.254  0.00  0.00    -0.205 F 
ATOM     14  C   UNL     1      15.961   7.316  19.931  0.00  0.00    -0.033 A 
ATOM     16  C   UNL     1      16.839   7.672  20.955  0.00  0.00    +0.008 A 
ATOM     17  C   UNL     1      16.322   6.326  19.016  0.00  0.00    +0.008 A 
ATOM     19  C   UNL     1      18.077   7.039  21.064  0.00  0.00    +0.038 A 
ATOM     20  C   UNL     1      17.560   5.693  19.125  0.00  0.00    +0.038 A 
ATOM     21  C   UNL     1      18.437   6.050  20.149  0.00  0.00    +0.123 A 
ENDBRANCH  13  14
ENDBRANCH   6  13
ENDBRANCH   8   6
BRANCH  10  12
ATOM     12  C   UNL     1      10.571   8.090  22.406  0.00  0.00    +0.138 C 
BRANCH  12   7
ATOM      5  O   UNL     1      12.630  10.059  22.758  0.00  0.00    -0.270 OA
ATOM      7  N   UNL     1      10.407   9.515  22.375  0.00  0.00    -0.308 N 
ATOM     15  C   UNL     1      11.467  10.398  22.556  0.00  0.00    +0.251 C 
ATOM     27  H   UNL     1       9.469   9.867  22.226  0.00  0.00    +0.149 HD
BRANCH  15  18
ATOM      1  S   UNL     1      10.553  12.599  23.948  0.00  0.00    -0.092 S 
ATOM     18  C   UNL     1      11.128  11.844  22.522  0.00  0.00    +0.074 A 
ATOM     22  C   UNL     1      11.206  12.725  21.466  0.00  0.00    +0.021 A 
ATOM     23  C   UNL     1      10.789  14.038  21.833  0.00  0.00    +0.008 A 
ATOM     24  C   UNL     1      10.408  14.110  23.155  0.00  0.00    +0.046 A 
ENDBRANCH  15  18
ENDBRANCH  12   7
ENDBRANCH  10  12
TORSDOF 7
ENDMDL
MODEL 2
REMARK VINA RESULT:      -7.0      1.683      2.138
REMARK  Name = 75536599
REMARK  7 active torsions:
REMARK  status: ('A' for Active; 'I' for Inactive)
REMARK    1  A    between atoms: O_4  and  C_9
REMARK    2  A    between atoms: N_6  and  C_8
REMARK    3  A    between atoms: N_6  and  C_13
REMARK    4  A    between atoms: N_7  and  C_12
REMARK    5  A    between atoms: C_10  and  C_12
REMARK    6  A    between atoms: C_13  and  C_14
REMARK    7  A    between atoms: C_15  and  C_18
REMARK                            x       y       z     vdW  Elec       q    Type
REMARK                         _______ _______ _______ _____ _____    ______ ____
ROOT
ATOM      3  O   UNL     1      10.727   8.808  20.161  0.00  0.00    -0.371 OA
ATOM      8  C   UNL     1      12.336   7.207  19.463  0.00  0.00    +0.111 C 
ATOM      9  C   UNL     1      12.258   7.201  20.978  0.00  0.00    +0.164 C 
ATOM     10  C   UNL     1      10.890   7.833  21.204  0.00  0.00    +0.165 C 
ATOM     11  C   UNL     1      11.699   8.546  19.133  0.00  0.00    +0.181 C 
ENDROOT
BRANCH   9   4
ATOM      4  O   UNL     1      12.334   5.899  21.525  0.00  0.00    -0.388 OA
ATOM     26  H   UNL     1      11.506   5.433  21.320  0.00  0.00    +0.210 HD
ENDBRANCH   9   4
BRANCH   8   6
ATOM      6  N   UNL     1      13.690   7.081  18.949  0.00  0.00    -0.305 NA
ATOM     25  H   UNL     1      13.704   7.376  17.972  0.00  0.00    +0.123 HD
BRANCH   6  13
ATOM     13  C   UNL     1      14.619   7.913  19.706  0.00  0.00    +0.116 C 
BRANCH  13  14
ATOM      2  F   UNL     1      19.641   5.430  20.304  0.00  0.00    -0.205 F 
ATOM     14  C   UNL     1      15.961   7.250  19.866  0.00  0.00    -0.033 A 
ATOM     16  C   UNL     1      16.376   6.284  18.948  0.00  0.00    +0.008 A 
ATOM     17  C   UNL     1      16.790   7.600  20.932  0.00  0.00    +0.008 A 
ATOM     19  C   UNL     1      17.619   5.670  19.097  0.00  0.00    +0.038 A 
ATOM     20  C   UNL     1      18.033   6.985  21.080  0.00  0.00    +0.038 A 
ATOM     21  C   UNL     1      18.447   6.020  20.163  0.00  0.00    +0.123 A 
ENDBRANCH  13  14
ENDBRANCH   6  13
ENDBRANCH   8   6
BRANCH  10  12
ATOM     12  C   UNL     1      10.754   8.503  22.560  0.00  0.00    +0.138 C 
BRANCH  12   7
ATOM      5  O   UNL     1      10.544  11.153  23.644  0.00  0.00    -0.270 OA
ATOM      7  N   UNL     1      11.832   9.419  22.799  0.00  0.00    -0.308 N 
ATOM     15  C   UNL     1      11.637  10.690  23.330  0.00  0.00    +0.251 C 
ATOM     27  H   UNL     1      12.764   9.108  22.549  0.00  0.00    +0.149 HD
BRANCH  15  18
ATOM      1  S   UNL     1      13.436  12.418  22.151  0.00  0.00    -0.092 S 
ATOM     18  C   UNL     1      12.853  11.527  23.492  0.00  0.00    +0.074 A 
ATOM     22  C   UNL     1      13.632  11.711  24.613  0.00  0.00    +0.021 A 
ATOM     23  C   UNL     1      14.722  12.597  24.367  0.00  0.00    +0.008 A 
ATOM     24  C   UNL     1      14.734  13.054  23.068  0.00  0.00    +0.046 A 
ENDBRANCH  15  18
ENDBRANCH  12   7
ENDBRANCH  10  12
TORSDOF 7
ENDMDL
MODEL 3
REMARK VINA RESULT:      -6.7      3.578      4.941
REMARK  Name = 75536599
REMARK  7 active torsions:
REMARK  status: ('A' for Active; 'I' for Inactive)
REMARK    1  A    between atoms: O_4  and  C_9
REMARK    2  A    between atoms: N_6  and  C_8
REMARK    3  A    between atoms: N_6  and  C_13
REMARK    4  A    between atoms: N_7  and  C_12
REMARK    5  A    between atoms: C_10  and  C_12
REMARK    6  A    between atoms: C_13  and  C_14
REMARK    7  A    between atoms: C_15  and  C_18
REMARK                            x       y       z     vdW  Elec       q    Type
REMARK                         _______ _______ _______ _____ _____    ______ ____
ROOT
ATOM      3  O   UNL     1      11.752   7.093  19.500  0.00  0.00    -0.371 OA
ATOM      8  C   UNL     1      13.050   8.353  21.039  0.00  0.00    +0.111 C 
ATOM      9  C   UNL     1      12.915   9.137  19.747  0.00  0.00    +0.164 C 
ATOM     10  C   UNL     1      11.686   8.480  19.132  0.00  0.00    +0.165 C 
ATOM     11  C   UNL     1      12.694   6.950  20.578  0.00  0.00    +0.181 C 
ENDROOT
BRANCH   9   4
ATOM      4  O   UNL     1      12.720  10.521  19.966  0.00  0.00    -0.388 OA
ATOM     26  H   UNL     1      13.520  10.991  19.678  0.00  0.00    +0.210 HD
ENDBRANCH   9   4
BRANCH   8   6
ATOM      6  N   UNL     1      14.373   8.435  21.636  0.00  0.00    -0.305 NA
ATOM     25  H   UNL     1      14.632   7.517  22.000  0.00  0.00    +0.123 HD
BRANCH   6  13
ATOM     13  C   UNL     1      15.368   8.851  20.654  0.00  0.00    +0.116 C 
BRANCH  13  14
ATOM      2  F   UNL     1      19.197   4.826  19.717  0.00  0.00    -0.205 F 
ATOM     14  C   UNL     1      16.391   7.776  20.403  0.00  0.00    -0.033 A 
ATOM     16  C   UNL     1      16.191   6.847  19.382  0.00  0.00    +0.008 A 
ATOM     17  C   UNL     1      17.539   7.708  21.193  0.00  0.00    +0.008 A 
ATOM     19  C   UNL     1      17.139   5.850  19.151  0.00  0.00    +0.038 A 
ATOM     20  C   UNL     1      18.487   6.711  20.961  0.00  0.00    +0.038 A 
ATOM     21  C   UNL     1      18.286   5.782  19.940  0.00  0.00    +0.123 A 
ENDBRANCH  13  14
ENDBRANCH   6  13
ENDBRANCH   8   6
BRANCH  10  12
ATOM     12  C   UNL     1      11.631   8.609  17.620  0.00  0.00    +0.138 C 
BRANCH  12   7
ATOM      5  O   UNL     1      13.116   8.749  15.167  0.00  0.00    -0.270 OA
ATOM      7  N   UNL     1      12.424   9.712  17.161  0.00  0.00    -0.308 N 
ATOM     15  C   UNL     1      13.114   9.693  15.952  0.00  0.00    +0.251 C 
ATOM     27  H   UNL     1      12.479  10.523  17.767  0.00  0.00    +0.149 HD
BRANCH  15  18
ATOM      1  S   UNL     1      15.071  11.461  16.765  0.00  0.00    -0.092 S 
ATOM     18  C   UNL     1      13.911  10.905  15.633  0.00  0.00    +0.074 A 
ATOM     22  C   UNL     1      13.865  11.699  14.509  0.00  0.00    +0.021 A 
ATOM     23  C   UNL     1      14.794  12.778  14.577  0.00  0.00    +0.008 A 
ATOM     24  C   UNL     1      15.514  12.768  15.751  0.00  0.00    +0.046 A 
ENDBRANCH  15  18
ENDBRANCH  12   7
ENDBRANCH  10  12
TORSDOF 7
ENDMDL
MODEL 4
REMARK VINA RESULT:      -6.5      2.976      4.698
REMARK  Name = 75536599
REMARK  7 active torsions:
REMARK  status: ('A' for Active; 'I' for Inactive)
REMARK    1  A    between atoms: O_4  and  C_9
REMARK    2  A    between atoms: N_6  and  C_8
REMARK    3  A    between atoms: N_6  and  C_13
REMARK    4  A    between atoms: N_7  and  C_12
REMARK    5  A    between atoms: C_10  and  C_12
REMARK    6  A    between atoms: C_13  and  C_14
REMARK    7  A    between atoms: C_15  and  C_18
REMARK                            x       y       z     vdW  Elec       q    Type
REMARK                         _______ _______ _______ _____ _____    ______ ____
ROOT
ATOM      3  O   UNL     1      16.357   6.023  18.827  0.00  0.00    -0.371 OA
ATOM      8  C   UNL     1      17.344   6.253  20.974  0.00  0.00    +0.111 C 
ATOM      9  C   UNL     1      16.071   7.077  20.925  0.00  0.00    +0.164 C 
ATOM     10  C   UNL     1      15.340   6.418  19.762  0.00  0.00    +0.165 C 
ATOM     11  C   UNL     1      17.630   6.050  19.496  0.00  0.00    +0.181 C 
ENDROOT
BRANCH   9   4
ATOM      4  O   UNL     1      15.327   7.005  22.125  0.00  0.00    -0.388 OA
ATOM     26  H   UNL     1      15.326   7.886  22.537  0.00  0.00    +0.210 HD
ENDBRANCH   9   4
BRANCH   8   6
ATOM      6  N   UNL     1      18.435   6.906  21.679  0.00  0.00    -0.305 NA
ATOM     25  H   UNL     1      18.587   6.434  22.571  0.00  0.00    +0.123 HD
BRANCH   6  13
ATOM     13  C   UNL     1      19.669   6.853  20.902  0.00  0.00    +0.116 C 
BRANCH  13  14
ATOM      2  F   UNL     1      23.120   2.788  22.719  0.00  0.00    -0.205 F 
ATOM     14  C   UNL     1      20.590   5.767  21.387  0.00  0.00    -0.033 A 
ATOM     16  C   UNL     1      21.247   5.904  22.610  0.00  0.00    +0.008 A 
ATOM     17  C   UNL     1      20.789   4.623  20.614  0.00  0.00    +0.008 A 
ATOM     19  C   UNL     1      22.102   4.898  23.060  0.00  0.00    +0.038 A 
ATOM     20  C   UNL     1      21.644   3.617  21.064  0.00  0.00    +0.038 A 
ATOM     21  C   UNL     1      22.300   3.755  22.287  0.00  0.00    +0.123 A 
ENDBRANCH  13  14
ENDBRANCH   6  13
ENDBRANCH   8   6
BRANCH  10  12
ATOM     12  C   UNL     1      14.344   7.339  19.081  0.00  0.00    +0.138 C 
BRANCH  12   7
ATOM      5  O   UNL     1      11.670   7.163  20.112  0.00  0.00    -0.270 OA
ATOM      7  N   UNL     1      13.728   8.229  20.022  0.00  0.00    -0.308 N 
ATOM     15  C   UNL     1      12.420   8.067  20.469  0.00  0.00    +0.251 C 
ATOM     27  H   UNL     1      14.287   9.009  20.351  0.00  0.00    +0.149 HD
BRANCH  15  18
ATOM      1  S   UNL     1      12.834  10.519  21.665  0.00  0.00    -0.092 S 
ATOM     18  C   UNL     1      11.922   9.090  21.424  0.00  0.00    +0.074 A 
ATOM     22  C   UNL     1      10.778   9.071  22.191  0.00  0.00    +0.021 A 
ATOM     23  C   UNL     1      10.649  10.247  22.987  0.00  0.00    +0.008 A 
ATOM     24  C   UNL     1      11.698  11.118  22.798  0.00  0.00    +0.046 A 
ENDBRANCH  15  18
ENDBRANCH  12   7
ENDBRANCH  10  12
TORSDOF 7
ENDMDL
MODEL 5
REMARK VINA RESULT:      -6.3      4.237      7.222
REMARK  Name = 75536599
REMARK  7 active torsions:
REMARK  status: ('A' for Active; 'I' for Inactive)
REMARK    1  A    between atoms: O_4  and  C_9
REMARK    2  A    between atoms: N_6  and  C_8
REMARK    3  A    between atoms: N_6  and  C_13
REMARK    4  A    between atoms: N_7  and  C_12
REMARK    5  A    between atoms: C_10  and  C_12
REMARK    6  A    between atoms: C_13  and  C_14
REMARK    7  A    between atoms: C_15  and  C_18
REMARK                            x       y       z     vdW  Elec       q    Type
REMARK                         _______ _______ _______ _____ _____    ______ ____
ROOT
ATOM      3  O   UNL     1      13.815   7.064  20.111  0.00  0.00    -0.371 OA
ATOM      8  C   UNL     1      12.326   7.932  21.745  0.00  0.00    +0.111 C 
ATOM      9  C   UNL     1      11.701   8.093  20.372  0.00  0.00    +0.164 C 
ATOM     10  C   UNL     1      12.483   7.061  19.571  0.00  0.00    +0.165 C 
ATOM     11  C   UNL     1      13.788   7.724  21.389  0.00  0.00    +0.181 C 
ENDROOT
BRANCH   9   4
ATOM      4  O   UNL     1      10.313   7.824  20.367  0.00  0.00    -0.388 OA
ATOM     26  H   UNL     1       9.861   8.546  20.836  0.00  0.00    +0.210 HD
ENDBRANCH   9   4
BRANCH   8   6
ATOM      6  N   UNL     1      12.112   9.073  22.621  0.00  0.00    -0.305 NA
ATOM     25  H   UNL     1      12.784   9.035  23.388  0.00  0.00    +0.123 HD
BRANCH   6  13
ATOM     13  C   UNL     1      12.287  10.329  21.901  0.00  0.00    +0.116 C 
BRANCH  13  14
ATOM      2  F   UNL     1       9.567  14.581  24.403  0.00  0.00    -0.205 F 
ATOM     14  C   UNL     1      11.560  11.464  22.569  0.00  0.00    -0.033 A 
ATOM     16  C   UNL     1      11.208  12.596  21.834  0.00  0.00    +0.008 A 
ATOM     17  C   UNL     1      11.240  11.386  23.925  0.00  0.00    +0.008 A 
ATOM     19  C   UNL     1      10.535  13.649  22.453  0.00  0.00    +0.038 A 
ATOM     20  C   UNL     1      10.567  12.439  24.544  0.00  0.00    +0.038 A 
ATOM     21  C   UNL     1      10.215  13.570  23.808  0.00  0.00    +0.123 A 
ENDBRANCH  13  14
ENDBRANCH   6  13
ENDBRANCH   8   6
BRANCH  10  12
ATOM     12  C   UNL     1      12.532   7.365  18.084  0.00  0.00    +0.138 C 
BRANCH  12   7
ATOM      5  O   UNL     1      13.633   8.272  15.592  0.00  0.00    -0.270 OA
ATOM      7  N   UNL     1      13.148   8.636  17.832  0.00  0.00    -0.308 N 
ATOM     15  C   UNL     1      13.657   8.992  16.586  0.00  0.00    +0.251 C 
ATOM     27  H   UNL     1      13.214   9.278  18.613  0.00  0.00    +0.149 HD
BRANCH  15  18
ATOM      1  S   UNL     1      14.214  11.383  17.848  0.00  0.00    -0.092 S 
ATOM     18  C   UNL     1      14.287  10.334  16.496  0.00  0.00    +0.074 A 
ATOM     22  C   UNL     1      14.959  10.903  15.437  0.00  0.00    +0.021 A 
ATOM     23  C   UNL     1      15.421  12.217  15.740  0.00  0.00    +0.008 A 
ATOM     24  C   UNL     1      15.084  12.602  17.019  0.00  0.00    +0.046 A 
ENDBRANCH  15  18
ENDBRANCH  12   7
ENDBRANCH  10  12
TORSDOF 7
ENDMDL
MODEL 6
REMARK VINA RESULT:      -6.1     26.379     27.839
REMARK  Name = 75536599
REMARK  7 active torsions:
REMARK  status: ('A' for Active; 'I' for Inactive)
REMARK    1  A    between atoms: O_4  and  C_9
REMARK    2  A    between atoms: N_6  and  C_8
REMARK    3  A    between atoms: N_6  and  C_13
REMARK    4  A    between atoms: N_7  and  C_12
REMARK    5  A    between atoms: C_10  and  C_12
REMARK    6  A    between atoms: C_13  and  C_14
REMARK    7  A    between atoms: C_15  and  C_18
REMARK                            x       y       z     vdW  Elec       q    Type
REMARK                         _______ _______ _______ _____ _____    ______ ____
ROOT
ATOM      3  O   UNL     1      -5.005 -11.647  15.716  0.00  0.00    -0.371 OA
ATOM      8  C   UNL     1      -2.929 -11.238  14.639  0.00  0.00    +0.111 C 
ATOM      9  C   UNL     1      -2.839 -10.769  16.079  0.00  0.00    +0.164 C 
ATOM     10  C   UNL     1      -3.976 -11.557  16.716  0.00  0.00    +0.165 C 
ATOM     11  C   UNL     1      -4.433 -11.314  14.439  0.00  0.00    +0.181 C 
ENDROOT
BRANCH   9   4
ATOM      4  O   UNL     1      -1.592 -11.067  16.675  0.00  0.00    -0.388 OA
ATOM     26  H   UNL     1      -1.058 -11.564  16.033  0.00  0.00    +0.210 HD
ENDBRANCH   9   4
BRANCH   8   6
ATOM      6  N   UNL     1      -2.275 -10.348  13.693  0.00  0.00    -0.305 NA
ATOM     25  H   UNL     1      -1.462  -9.924  14.142  0.00  0.00    +0.123 HD
BRANCH   6  13
ATOM     13  C   UNL     1      -1.835 -11.073  12.507  0.00  0.00    +0.116 C 
BRANCH  13  14
ATOM      2  F   UNL     1      -5.051  -9.905   8.030  0.00  0.00    -0.205 F 
ATOM     14  C   UNL     1      -2.694 -10.761  11.310  0.00  0.00    -0.033 A 
ATOM     16  C   UNL     1      -2.727  -9.466  10.793  0.00  0.00    +0.008 A 
ATOM     17  C   UNL     1      -3.459 -11.767  10.719  0.00  0.00    +0.008 A 
ATOM     19  C   UNL     1      -3.523  -9.177   9.685  0.00  0.00    +0.038 A 
ATOM     20  C   UNL     1      -4.255 -11.478   9.611  0.00  0.00    +0.038 A 
ATOM     21  C   UNL     1      -4.287 -10.182   9.095  0.00  0.00    +0.123 A 
ENDBRANCH  13  14
ENDBRANCH   6  13
ENDBRANCH   8   6
BRANCH  10  12
ATOM     12  C   UNL     1      -4.532 -10.903  17.968  0.00  0.00    +0.138 C 
BRANCH  12   7
ATOM      5  O   UNL     1      -6.492 -10.930  20.067  0.00  0.00    -0.270 OA
ATOM      7  N   UNL     1      -5.935 -10.630  17.835  0.00  0.00    -0.308 N 
ATOM     15  C   UNL     1      -6.815 -10.666  18.912  0.00  0.00    +0.251 C 
ATOM     27  H   UNL     1      -6.276 -10.417  16.904  0.00  0.00    +0.149 HD
BRANCH  15  18
ATOM      1  S   UNL     1      -9.459 -11.106  19.567  0.00  0.00    -0.092 S 
ATOM     18  C   UNL     1      -8.240 -10.385  18.603  0.00  0.00    +0.074 A 
ATOM     22  C   UNL     1      -8.769  -9.592  17.609  0.00  0.00    +0.021 A 
ATOM     23  C   UNL     1     -10.194  -9.575  17.639  0.00  0.00    +0.008 A 
ATOM     24  C   UNL     1     -10.700 -10.357  18.654  0.00  0.00    +0.046 A 
ENDBRANCH  15  18
ENDBRANCH  12   7
ENDBRANCH  10  12
TORSDOF 7
ENDMDL
MODEL 7
REMARK VINA RESULT:      -6.1     26.403     28.345
REMARK  Name = 75536599
REMARK  7 active torsions:
REMARK  status: ('A' for Active; 'I' for Inactive)
REMARK    1  A    between atoms: O_4  and  C_9
REMARK    2  A    between atoms: N_6  and  C_8
REMARK    3  A    between atoms: N_6  and  C_13
REMARK    4  A    between atoms: N_7  and  C_12
REMARK    5  A    between atoms: C_10  and  C_12
REMARK    6  A    between atoms: C_13  and  C_14
REMARK    7  A    between atoms: C_15  and  C_18
REMARK                            x       y       z     vdW  Elec       q    Type
REMARK                         _______ _______ _______ _____ _____    ______ ____
ROOT
ATOM      3  O   UNL     1      -8.440 -12.625  18.463  0.00  0.00    -0.371 OA
ATOM      8  C   UNL     1      -6.351 -11.521  18.233  0.00  0.00    +0.111 C 
ATOM      9  C   UNL     1      -7.294 -10.634  19.023  0.00  0.00    +0.164 C 
ATOM     10  C   UNL     1      -8.314 -11.653  19.514  0.00  0.00    +0.165 C 
ATOM     11  C   UNL     1      -7.323 -12.480  17.568  0.00  0.00    +0.181 C 
ENDROOT
BRANCH   9   4
ATOM      4  O   UNL     1      -6.653  -9.971  20.095  0.00  0.00    -0.388 OA
ATOM     26  H   UNL     1      -6.851 -10.453  20.915  0.00  0.00    +0.210 HD
ENDBRANCH   9   4
BRANCH   8   6
ATOM      6  N   UNL     1      -5.528 -10.795  17.279  0.00  0.00    -0.305 NA
ATOM     25  H   UNL     1      -5.552  -9.801  17.507  0.00  0.00    +0.123 HD
BRANCH   6  13
ATOM     13  C   UNL     1      -4.145 -11.256  17.320  0.00  0.00    +0.116 C 
BRANCH  13  14
ATOM      2  F   UNL     1      -1.374  -9.993  12.579  0.00  0.00    -0.205 F 
ATOM     14  C   UNL     1      -3.405 -10.918  16.054  0.00  0.00    -0.033 A 
ATOM     16  C   UNL     1      -4.066 -10.962  14.826  0.00  0.00    +0.008 A 
ATOM     17  C   UNL     1      -2.057 -10.561  16.107  0.00  0.00    +0.008 A 
ATOM     19  C   UNL     1      -3.380 -10.650  13.653  0.00  0.00    +0.038 A 
ATOM     20  C   UNL     1      -1.371 -10.249  14.934  0.00  0.00    +0.038 A 
ATOM     21  C   UNL     1      -2.033 -10.294  13.706  0.00  0.00    +0.123 A 
ENDBRANCH  13  14
ENDBRANCH   6  13
ENDBRANCH   8   6
BRANCH  10  12
ATOM     12  C   UNL     1      -9.671 -11.045  19.818  0.00  0.00    +0.138 C 
BRANCH  12   7
ATOM      5  O   UNL     1     -11.964 -10.690  18.126  0.00  0.00    -0.270 OA
ATOM      7  N   UNL     1      -9.942  -9.923  18.967  0.00  0.00    -0.308 N 
ATOM     15  C   UNL     1     -11.085  -9.834  18.177  0.00  0.00    +0.251 C 
ATOM     27  H   UNL     1      -9.251  -9.182  18.948  0.00  0.00    +0.149 HD
BRANCH  15  18
ATOM      1  S   UNL     1     -12.663  -8.337  16.479  0.00  0.00    -0.092 S 
ATOM     18  C   UNL     1     -11.205  -8.619  17.332  0.00  0.00    +0.074 A 
ATOM     22  C   UNL     1     -10.277  -7.625  17.112  0.00  0.00    +0.021 A 
ATOM     23  C   UNL     1     -10.771  -6.618  16.231  0.00  0.00    +0.008 A 
ATOM     24  C   UNL     1     -12.056  -6.882  15.812  0.00  0.00    +0.046 A 
ENDBRANCH  15  18
ENDBRANCH  12   7
ENDBRANCH  10  12
TORSDOF 7
ENDMDL
MODEL 8
REMARK VINA RESULT:      -6.1      4.854      6.959
REMARK  Name = 75536599
REMARK  7 active torsions:
REMARK  status: ('A' for Active; 'I' for Inactive)
REMARK    1  A    between atoms: O_4  and  C_9
REMARK    2  A    between atoms: N_6  and  C_8
REMARK    3  A    between atoms: N_6  and  C_13
REMARK    4  A    between atoms: N_7  and  C_12
REMARK    5  A    between atoms: C_10  and  C_12
REMARK    6  A    between atoms: C_13  and  C_14
REMARK    7  A    between atoms: C_15  and  C_18
REMARK                            x       y       z     vdW  Elec       q    Type
REMARK                         _______ _______ _______ _____ _____    ______ ____
ROOT
ATOM      3  O   UNL     1      12.365   9.233  20.174  0.00  0.00    -0.371 OA
ATOM      8  C   UNL     1      12.451   9.265  17.801  0.00  0.00    +0.111 C 
ATOM      9  C   UNL     1      12.587   7.833  18.280  0.00  0.00    +0.164 C 
ATOM     10  C   UNL     1      11.996   7.934  19.680  0.00  0.00    +0.165 C 
ATOM     11  C   UNL     1      12.793  10.040  19.062  0.00  0.00    +0.181 C 
ENDROOT
BRANCH   9   4
ATOM      4  O   UNL     1      11.875   6.916  17.472  0.00  0.00    -0.388 OA
ATOM     26  H   UNL     1      11.042   6.696  17.922  0.00  0.00    +0.210 HD
ENDBRANCH   9   4
BRANCH   8   6
ATOM      6  N   UNL     1      13.321   9.591  16.682  0.00  0.00    -0.305 NA
ATOM     25  H   UNL     1      12.749   9.887  15.890  0.00  0.00    +0.123 HD
BRANCH   6  13
ATOM     13  C   UNL     1      14.240  10.669  17.028  0.00  0.00    +0.116 C 
BRANCH  13  14
ATOM      2  F   UNL     1      16.056  13.426  12.462  0.00  0.00    -0.205 F 
ATOM     14  C   UNL     1      14.725  11.405  15.808  0.00  0.00    -0.033 A 
ATOM     16  C   UNL     1      16.029  11.900  15.764  0.00  0.00    +0.008 A 
ATOM     17  C   UNL     1      13.871  11.594  14.721  0.00  0.00    +0.008 A 
ATOM     19  C   UNL     1      16.478  12.582  14.634  0.00  0.00    +0.038 A 
ATOM     20  C   UNL     1      14.320  12.277  13.591  0.00  0.00    +0.038 A 
ATOM     21  C   UNL     1      15.624  12.771  13.548  0.00  0.00    +0.123 A 
ENDBRANCH  13  14
ENDBRANCH   6  13
ENDBRANCH   8   6
BRANCH  10  12
ATOM     12  C   UNL     1      12.504   6.861  20.626  0.00  0.00    +0.138 C 
BRANCH  12   7
ATOM      5  O   UNL     1      14.799   7.816  22.064  0.00  0.00    -0.270 OA
ATOM      7  N   UNL     1      13.877   6.540  20.360  0.00  0.00    -0.308 N 
ATOM     15  C   UNL     1      14.930   7.051  21.113  0.00  0.00    +0.251 C 
ATOM     27  H   UNL     1      14.062   5.922  19.578  0.00  0.00    +0.149 HD
BRANCH  15  18
ATOM      1  S   UNL     1      16.546   6.101  19.087  0.00  0.00    -0.092 S 
ATOM     18  C   UNL     1      16.295   6.643  20.693  0.00  0.00    +0.074 A 
ATOM     22  C   UNL     1      17.458   6.629  21.430  0.00  0.00    +0.021 A 
ATOM     23  C   UNL     1      18.570   6.168  20.667  0.00  0.00    +0.008 A 
ATOM     24  C   UNL     1      18.214   5.847  19.376  0.00  0.00    +0.046 A 
ENDBRANCH  15  18
ENDBRANCH  12   7
ENDBRANCH  10  12
TORSDOF 7
ENDMDL
MODEL 9
REMARK VINA RESULT:      -6.0     26.689     27.861
REMARK  Name = 75536599
REMARK  7 active torsions:
REMARK  status: ('A' for Active; 'I' for Inactive)
REMARK    1  A    between atoms: O_4  and  C_9
REMARK    2  A    between atoms: N_6  and  C_8
REMARK    3  A    between atoms: N_6  and  C_13
REMARK    4  A    between atoms: N_7  and  C_12
REMARK    5  A    between atoms: C_10  and  C_12
REMARK    6  A    between atoms: C_13  and  C_14
REMARK    7  A    between atoms: C_15  and  C_18
REMARK                            x       y       z     vdW  Elec       q    Type
REMARK                         _______ _______ _______ _____ _____    ______ ____
ROOT
ATOM      3  O   UNL     1      -4.412 -11.308  18.460  0.00  0.00    -0.371 OA
ATOM      8  C   UNL     1      -4.213 -10.774  16.155  0.00  0.00    +0.111 C 
ATOM      9  C   UNL     1      -5.614 -10.431  16.622  0.00  0.00    +0.164 C 
ATOM     10  C   UNL     1      -5.404 -10.323  18.127  0.00  0.00    +0.165 C 
ATOM     11  C   UNL     1      -3.753 -11.721  17.250  0.00  0.00    +0.181 C 
ENDROOT
BRANCH   9   4
ATOM      4  O   UNL     1      -6.094  -9.222  16.068  0.00  0.00    -0.388 OA
ATOM     26  H   UNL     1      -6.944  -9.008  16.490  0.00  0.00    +0.210 HD
ENDBRANCH   9   4
BRANCH   8   6
ATOM      6  N   UNL     1      -4.170 -11.375  14.831  0.00  0.00    -0.305 NA
ATOM     25  H   UNL     1      -4.925 -10.989  14.265  0.00  0.00    +0.123 HD
BRANCH   6  13
ATOM     13  C   UNL     1      -2.898 -11.102  14.171  0.00  0.00    +0.116 C 
BRANCH  13  14
ATOM      2  F   UNL     1      -3.627  -8.721   9.117  0.00  0.00    -0.205 F 
ATOM     14  C   UNL     1      -3.093 -10.467  12.821  0.00  0.00    -0.033 A 
ATOM     16  C   UNL     1      -1.987 -10.165  12.025  0.00  0.00    +0.008 A 
ATOM     17  C   UNL     1      -4.379 -10.177  12.365  0.00  0.00    +0.008 A 
ATOM     19  C   UNL     1      -2.168  -9.576  10.775  0.00  0.00    +0.038 A 
ATOM     20  C   UNL     1      -4.560  -9.587  11.114  0.00  0.00    +0.038 A 
ATOM     21  C   UNL     1      -3.454  -9.286  10.319  0.00  0.00    +0.123 A 
ENDBRANCH  13  14
ENDBRANCH   6  13
ENDBRANCH   8   6
BRANCH  10  12
ATOM     12  C   UNL     1      -6.668 -10.574  18.929  0.00  0.00    +0.138 C 
BRANCH  12   7
ATOM      5  O   UNL     1      -9.193 -11.470  17.896  0.00  0.00    -0.270 OA
ATOM      7  N   UNL     1      -7.749  -9.748  18.472  0.00  0.00    -0.308 N 
ATOM     15  C   UNL     1      -8.943 -10.271  17.985  0.00  0.00    +0.251 C 
ATOM     27  H   UNL     1      -7.606  -8.745  18.504  0.00  0.00    +0.149 HD
BRANCH  15  18
ATOM      1  S   UNL     1     -11.571  -9.792  17.295  0.00  0.00    -0.092 S 
ATOM     18  C   UNL     1      -9.952  -9.283  17.526  0.00  0.00    +0.074 A 
ATOM     22  C   UNL     1      -9.785  -7.946  17.241  0.00  0.00    +0.021 A 
ATOM     23  C   UNL     1     -11.003  -7.331  16.827  0.00  0.00    +0.008 A 
ATOM     24  C   UNL     1     -12.053  -8.221  16.812  0.00  0.00    +0.046 A 
ENDBRANCH  15  18
ENDBRANCH  12   7
ENDBRANCH  10  12
TORSDOF 7
ENDMDL
MODEL 10
REMARK VINA RESULT:      -6.0      5.811     10.067
REMARK  Name = 75536599
REMARK  7 active torsions:
REMARK  status: ('A' for Active; 'I' for Inactive)
REMARK    1  A    between atoms: O_4  and  C_9
REMARK    2  A    between atoms: N_6  and  C_8
REMARK    3  A    between atoms: N_6  and  C_13
REMARK    4  A    between atoms: N_7  and  C_12
REMARK    5  A    between atoms: C_10  and  C_12
REMARK    6  A    between atoms: C_13  and  C_14
REMARK    7  A    between atoms: C_15  and  C_18
REMARK                            x       y       z     vdW  Elec       q    Type
REMARK                         _______ _______ _______ _____ _____    ______ ____
ROOT
ATOM      3  O   UNL     1      18.944   6.008  20.095  0.00  0.00    -0.371 OA
ATOM      8  C   UNL     1      17.147   7.512  20.476  0.00  0.00    +0.111 C 
ATOM      9  C   UNL     1      18.038   7.485  21.704  0.00  0.00    +0.164 C 
ATOM     10  C   UNL     1      19.333   6.943  21.115  0.00  0.00    +0.165 C 
ATOM     11  C   UNL     1      17.559   6.229  19.776  0.00  0.00    +0.181 C 
ENDROOT
BRANCH   9   4
ATOM      4  O   UNL     1      18.215   8.765  22.279  0.00  0.00    -0.388 OA
ATOM     26  H   UNL     1      18.656   8.655  23.138  0.00  0.00    +0.210 HD
ENDBRANCH   9   4
BRANCH   8   6
ATOM      6  N   UNL     1      15.727   7.559  20.786  0.00  0.00    -0.305 NA
ATOM     25  H   UNL     1      15.383   8.507  20.631  0.00  0.00    +0.123 HD
BRANCH   6  13
ATOM     13  C   UNL     1      14.975   6.639  19.941  0.00  0.00    +0.116 C 
BRANCH  13  14
ATOM      2  F   UNL     1      11.410   9.362  16.532  0.00  0.00    -0.205 F 
ATOM     14  C   UNL     1      14.023   7.367  19.030  0.00  0.00    -0.033 A 
ATOM     16  C   UNL     1      12.736   7.679  19.471  0.00  0.00    +0.008 A 
ATOM     17  C   UNL     1      14.425   7.728  17.744  0.00  0.00    +0.008 A 
ATOM     19  C   UNL     1      11.854   8.352  18.627  0.00  0.00    +0.038 A 
ATOM     20  C   UNL     1      13.543   8.402  16.900  0.00  0.00    +0.038 A 
ATOM     21  C   UNL     1      12.257   8.714  17.342  0.00  0.00    +0.123 A 
ENDBRANCH  13  14
ENDBRANCH   6  13
ENDBRANCH   8   6
BRANCH  10  12
ATOM     12  C   UNL     1      20.214   6.249  22.139  0.00  0.00    +0.138 C 
BRANCH  12   7
ATOM      5  O   UNL     1      21.885   4.277  23.389  0.00  0.00    -0.270 OA
ATOM      7  N   UNL     1      21.230   5.460  21.503  0.00  0.00    -0.308 N 
ATOM     15  C   UNL     1      21.995   4.522  22.191  0.00  0.00    +0.251 C 
ATOM     27  H   UNL     1      21.385   5.619  20.515  0.00  0.00    +0.149 HD
BRANCH  15  18
ATOM      1  S   UNL     1      23.995   4.691  20.297  0.00  0.00    -0.092 S 
ATOM     18  C   UNL     1      23.023   3.805  21.394  0.00  0.00    +0.074 A 
ATOM     22  C   UNL     1      23.338   2.464  21.397  0.00  0.00    +0.021 A 
ATOM     23  C   UNL     1      24.393   2.160  20.487  0.00  0.00    +0.008 A 
ATOM     24  C   UNL     1      24.842   3.280  19.823  0.00  0.00    +0.046 A 
ENDBRANCH  15  18
ENDBRANCH  12   7
ENDBRANCH  10  12
TORSDOF 7
ENDMDL
