MODEL 1
REMARK VINA RESULT:      -6.7      0.000      0.000
REMARK  Name = 45360808
REMARK  10 active torsions:
REMARK  status: ('A' for Active; 'I' for Inactive)
REMARK    1  A    between atoms: O_3  and  C_28
REMARK    2  A    between atoms: N_5  and  C_16
REMARK    3  A    between atoms: N_6  and  C_18
REMARK    4  A    between atoms: N_8  and  C_27
REMARK    5  A    between atoms: C_13  and  C_17
REMARK    6  A    between atoms: C_16  and  C_20
REMARK    7  A    between atoms: C_17  and  C_19
REMARK    8  A    between atoms: C_19  and  C_21
REMARK    9  A    between atoms: C_26  and  C_28
REMARK   10  A    between atoms: C_27  and  C_29
REMARK                            x       y       z     vdW  Elec       q    Type
REMARK                         _______ _______ _______ _____ _____    ______ ____
ROOT
ATOM      1  O   UNL     1      18.422   5.895  19.418  0.00  0.00    -0.274 OA
ATOM      5  N   UNL     1      19.212   7.451  21.479  0.00  0.00    -0.286 NA
ATOM      6  N   UNL     1      16.102   8.895  20.198  0.00  0.00    -0.296 NA
ATOM      7  N   UNL     1      16.191   6.026  19.909  0.00  0.00    -0.312 N 
ATOM      9  C   UNL     1      17.112   8.647  21.251  0.00  0.00    +0.084 C 
ATOM     10  C   UNL     1      17.760   7.234  21.339  0.00  0.00    +0.161 C 
ATOM     11  C   UNL     1      18.348   9.561  21.161  0.00  0.00    +0.036 C 
ATOM     12  C   UNL     1      19.396   8.816  21.960  0.00  0.00    +0.087 C 
ATOM     13  C   UNL     1      14.865   8.076  20.325  0.00  0.00    +0.074 C 
ATOM     14  C   UNL     1      17.520   6.337  20.127  0.00  0.00    +0.232 C 
ATOM     15  C   UNL     1      15.101   6.594  20.676  0.00  0.00    +0.123 C 
ATOM     18  C   UNL     1      15.762  10.327  20.126  0.00  0.00    +0.105 C 
ATOM     31  H   UNL     1      15.968   5.384  19.155  0.00  0.00    +0.149 HD
ENDROOT
BRANCH   5  16
ATOM     16  C   UNL     1      19.862   6.473  22.342  0.00  0.00    +0.120 C 
BRANCH  16  20
ATOM     20  C   UNL     1      21.051   5.838  21.672  0.00  0.00    -0.033 A 
ATOM     22  C   UNL     1      22.151   6.618  21.319  0.00  0.00    +0.006 A 
ATOM     23  C   UNL     1      21.050   4.469  21.404  0.00  0.00    +0.006 A 
ATOM     24  C   UNL     1      23.253   6.029  20.697  0.00  0.00    +0.015 A 
ATOM     25  C   UNL     1      22.152   3.880  20.783  0.00  0.00    +0.015 A 
ATOM     26  C   UNL     1      23.254   4.660  20.429  0.00  0.00    +0.059 A 
BRANCH  26  28
ATOM      4  O   UNL     1      25.409   4.645  19.392  0.00  0.00    -0.245 OA
ATOM     28  C   UNL     1      24.401   4.046  19.783  0.00  0.00    +0.337 C 
BRANCH  28   3
ATOM      3  O   UNL     1      24.260   2.698  19.640  0.00  0.00    -0.477 OA
ATOM     33  H   UNL     1      23.884   2.285  20.446  0.00  0.00    +0.295 HD
ENDBRANCH  28   3
ENDBRANCH  26  28
ENDBRANCH  16  20
ENDBRANCH   5  16
BRANCH  13  17
ATOM     17  C   UNL     1      14.054   8.119  19.013  0.00  0.00    +0.029 C 
BRANCH  17  19
ATOM     19  C   UNL     1      12.908   7.126  19.059  0.00  0.00    +0.097 C 
BRANCH  19  21
ATOM      2  O   UNL     1      10.880   8.447  19.120  0.00  0.00    -0.276 OA
ATOM      8  N   UNL     1      11.569   7.348  21.044  0.00  0.00    -0.304 N 
ATOM     21  C   UNL     1      11.675   7.722  19.713  0.00  0.00    +0.214 C 
ATOM     32  H   UNL     1      12.267   6.730  21.448  0.00  0.00    +0.150 HD
BRANCH   8  27
ATOM     27  C   UNL     1      10.482   7.787  21.886  0.00  0.00    +0.193 C 
BRANCH  27  29
ATOM     29  C   UNL     1      10.730   9.132  22.407  0.00  0.00    -0.087 C 
ATOM     30  C   UNL     1      10.932  10.237  22.830  0.00  0.00    +0.005 C 
ENDBRANCH  27  29
ENDBRANCH   8  27
ENDBRANCH  19  21
ENDBRANCH  17  19
ENDBRANCH  13  17
TORSDOF 9
ENDMDL
MODEL 2
REMARK VINA RESULT:      -6.7     29.111     33.091
REMARK  Name = 45360808
REMARK  10 active torsions:
REMARK  status: ('A' for Active; 'I' for Inactive)
REMARK    1  A    between atoms: O_3  and  C_28
REMARK    2  A    between atoms: N_5  and  C_16
REMARK    3  A    between atoms: N_6  and  C_18
REMARK    4  A    between atoms: N_8  and  C_27
REMARK    5  A    between atoms: C_13  and  C_17
REMARK    6  A    between atoms: C_16  and  C_20
REMARK    7  A    between atoms: C_17  and  C_19
REMARK    8  A    between atoms: C_19  and  C_21
REMARK    9  A    between atoms: C_26  and  C_28
REMARK   10  A    between atoms: C_27  and  C_29
REMARK                            x       y       z     vdW  Elec       q    Type
REMARK                         _______ _______ _______ _____ _____    ______ ____
ROOT
ATOM      1  O   UNL     1     -13.336   4.703  22.613  0.00  0.00    -0.274 OA
ATOM      5  N   UNL     1     -15.099   6.190  21.208  0.00  0.00    -0.286 NA
ATOM      6  N   UNL     1     -17.004   3.468  22.743  0.00  0.00    -0.296 NA
ATOM      7  N   UNL     1     -14.761   4.297  24.357  0.00  0.00    -0.312 N 
ATOM      9  C   UNL     1     -16.862   4.821  22.161  0.00  0.00    +0.084 C 
ATOM     10  C   UNL     1     -15.579   5.640  22.489  0.00  0.00    +0.161 C 
ATOM     11  C   UNL     1     -16.871   4.843  20.621  0.00  0.00    +0.036 C 
ATOM     12  C   UNL     1     -16.228   6.172  20.284  0.00  0.00    +0.087 C 
ATOM     13  C   UNL     1     -17.082   3.442  24.229  0.00  0.00    +0.074 C 
ATOM     14  C   UNL     1     -14.447   4.837  23.125  0.00  0.00    +0.232 C 
ATOM     15  C   UNL     1     -16.082   4.368  24.949  0.00  0.00    +0.123 C 
ATOM     18  C   UNL     1     -18.159   2.764  22.158  0.00  0.00    +0.105 C 
ATOM     31  H   UNL     1     -14.032   3.802  24.862  0.00  0.00    +0.149 HD
ENDROOT
BRANCH   5  16
ATOM     16  C   UNL     1     -14.514   7.519  21.333  0.00  0.00    +0.120 C 
BRANCH  16  20
ATOM     20  C   UNL     1     -13.452   7.764  20.296  0.00  0.00    -0.033 A 
ATOM     22  C   UNL     1     -12.184   7.206  20.452  0.00  0.00    +0.006 A 
ATOM     23  C   UNL     1     -13.736   8.549  19.178  0.00  0.00    +0.006 A 
ATOM     24  C   UNL     1     -11.198   7.434  19.491  0.00  0.00    +0.015 A 
ATOM     25  C   UNL     1     -12.751   8.776  18.216  0.00  0.00    +0.015 A 
ATOM     26  C   UNL     1     -11.482   8.218  18.372  0.00  0.00    +0.059 A 
BRANCH  26  28
ATOM      4  O   UNL     1     -10.480   8.033  16.208  0.00  0.00    -0.245 OA
ATOM     28  C   UNL     1     -10.457   8.454  17.370  0.00  0.00    +0.337 C 
BRANCH  28   3
ATOM      3  O   UNL     1      -9.428   9.210  17.845  0.00  0.00    -0.477 OA
ATOM     33  H   UNL     1      -8.558   8.869  17.548  0.00  0.00    +0.295 HD
ENDBRANCH  28   3
ENDBRANCH  26  28
ENDBRANCH  16  20
ENDBRANCH   5  16
BRANCH  13  17
ATOM     17  C   UNL     1     -16.851   2.011  24.757  0.00  0.00    +0.029 C 
BRANCH  17  19
ATOM     19  C   UNL     1     -18.091   1.490  25.459  0.00  0.00    +0.097 C 
BRANCH  19  21
ATOM      2  O   UNL     1     -18.264  -0.171  27.212  0.00  0.00    -0.276 OA
ATOM      8  N   UNL     1     -16.815   1.621  27.494  0.00  0.00    -0.304 N 
ATOM     21  C   UNL     1     -17.754   0.870  26.804  0.00  0.00    +0.214 C 
ATOM     32  H   UNL     1     -16.436   2.462  27.070  0.00  0.00    +0.150 HD
BRANCH   8  27
ATOM     27  C   UNL     1     -16.332   1.240  28.800  0.00  0.00    +0.193 C 
BRANCH  27  29
ATOM     29  C   UNL     1     -15.373   2.219  29.313  0.00  0.00    -0.087 C 
ATOM     30  C   UNL     1     -14.590   3.024  29.736  0.00  0.00    +0.005 C 
ENDBRANCH  27  29
ENDBRANCH   8  27
ENDBRANCH  19  21
ENDBRANCH  17  19
ENDBRANCH  13  17
TORSDOF 9
ENDMDL
MODEL 3
REMARK VINA RESULT:      -6.6      3.410      5.809
REMARK  Name = 45360808
REMARK  10 active torsions:
REMARK  status: ('A' for Active; 'I' for Inactive)
REMARK    1  A    between atoms: O_3  and  C_28
REMARK    2  A    between atoms: N_5  and  C_16
REMARK    3  A    between atoms: N_6  and  C_18
REMARK    4  A    between atoms: N_8  and  C_27
REMARK    5  A    between atoms: C_13  and  C_17
REMARK    6  A    between atoms: C_16  and  C_20
REMARK    7  A    between atoms: C_17  and  C_19
REMARK    8  A    between atoms: C_19  and  C_21
REMARK    9  A    between atoms: C_26  and  C_28
REMARK   10  A    between atoms: C_27  and  C_29
REMARK                            x       y       z     vdW  Elec       q    Type
REMARK                         _______ _______ _______ _____ _____    ______ ____
ROOT
ATOM      1  O   UNL     1      15.384   9.114  22.528  0.00  0.00    -0.274 OA
ATOM      5  N   UNL     1      14.444   7.636  20.472  0.00  0.00    -0.286 NA
ATOM      6  N   UNL     1      11.526   8.868  22.306  0.00  0.00    -0.296 NA
ATOM      7  N   UNL     1      13.746  10.707  22.396  0.00  0.00    -0.312 N 
ATOM      9  C   UNL     1      12.214   8.366  21.096  0.00  0.00    +0.084 C 
ATOM     10  C   UNL     1      13.671   8.843  20.820  0.00  0.00    +0.161 C 
ATOM     11  C   UNL     1      12.365   6.834  21.052  0.00  0.00    +0.036 C 
ATOM     12  C   UNL     1      13.485   6.619  20.056  0.00  0.00    +0.087 C 
ATOM     13  C   UNL     1      11.298  10.339  22.320  0.00  0.00    +0.074 C 
ATOM     14  C   UNL     1      14.357   9.534  21.996  0.00  0.00    +0.232 C 
ATOM     15  C   UNL     1      12.494  11.186  21.844  0.00  0.00    +0.123 C 
ATOM     18  C   UNL     1      10.256   8.153  22.520  0.00  0.00    +0.105 C 
ATOM     31  H   UNL     1      14.187  11.248  23.133  0.00  0.00    +0.149 HD
ENDROOT
BRANCH   5  16
ATOM     16  C   UNL     1      15.464   7.876  19.459  0.00  0.00    +0.120 C 
BRANCH  16  20
ATOM     20  C   UNL     1      16.775   7.233  19.822  0.00  0.00    -0.033 A 
ATOM     22  C   UNL     1      17.183   6.067  19.174  0.00  0.00    +0.006 A 
ATOM     23  C   UNL     1      17.582   7.802  20.808  0.00  0.00    +0.006 A 
ATOM     24  C   UNL     1      18.398   5.470  19.511  0.00  0.00    +0.015 A 
ATOM     25  C   UNL     1      18.797   7.206  21.145  0.00  0.00    +0.015 A 
ATOM     26  C   UNL     1      19.206   6.040  20.496  0.00  0.00    +0.059 A 
BRANCH  26  28
ATOM      4  O   UNL     1      21.017   5.478  21.955  0.00  0.00    -0.245 OA
ATOM     28  C   UNL     1      20.473   5.419  20.847  0.00  0.00    +0.337 C 
BRANCH  28   3
ATOM      3  O   UNL     1      21.027   4.741  19.804  0.00  0.00    -0.477 OA
ATOM     33  H   UNL     1      20.353   4.476  19.142  0.00  0.00    +0.295 HD
ENDBRANCH  28   3
ENDBRANCH  26  28
ENDBRANCH  16  20
ENDBRANCH   5  16
BRANCH  13  17
ATOM     17  C   UNL     1      10.930  10.814  23.741  0.00  0.00    +0.029 C 
BRANCH  17  19
ATOM     19  C   UNL     1      10.623  12.300  23.748  0.00  0.00    +0.097 C 
BRANCH  19  21
ATOM      2  O   UNL     1      10.274  13.036  26.028  0.00  0.00    -0.276 OA
ATOM      8  N   UNL     1      12.328  13.423  25.018  0.00  0.00    -0.304 N 
ATOM     21  C   UNL     1      11.025  12.950  25.059  0.00  0.00    +0.214 C 
ATOM     32  H   UNL     1      12.882  13.292  24.177  0.00  0.00    +0.150 HD
BRANCH   8  27
ATOM     27  C   UNL     1      12.945  14.085  26.143  0.00  0.00    +0.193 C 
BRANCH  27  29
ATOM     29  C   UNL     1      13.945  13.225  26.776  0.00  0.00    -0.087 C 
ATOM     30  C   UNL     1      14.761  12.517  27.298  0.00  0.00    +0.005 C 
ENDBRANCH  27  29
ENDBRANCH   8  27
ENDBRANCH  19  21
ENDBRANCH  17  19
ENDBRANCH  13  17
TORSDOF 9
ENDMDL
MODEL 4
REMARK VINA RESULT:      -6.4     27.520     32.388
REMARK  Name = 45360808
REMARK  10 active torsions:
REMARK  status: ('A' for Active; 'I' for Inactive)
REMARK    1  A    between atoms: O_3  and  C_28
REMARK    2  A    between atoms: N_5  and  C_16
REMARK    3  A    between atoms: N_6  and  C_18
REMARK    4  A    between atoms: N_8  and  C_27
REMARK    5  A    between atoms: C_13  and  C_17
REMARK    6  A    between atoms: C_16  and  C_20
REMARK    7  A    between atoms: C_17  and  C_19
REMARK    8  A    between atoms: C_19  and  C_21
REMARK    9  A    between atoms: C_26  and  C_28
REMARK   10  A    between atoms: C_27  and  C_29
REMARK                            x       y       z     vdW  Elec       q    Type
REMARK                         _______ _______ _______ _____ _____    ______ ____
ROOT
ATOM      1  O   UNL     1      -7.944  -8.840  17.020  0.00  0.00    -0.274 OA
ATOM      5  N   UNL     1     -10.260 -10.171  17.414  0.00  0.00    -0.286 NA
ATOM      6  N   UNL     1      -7.560 -12.609  17.823  0.00  0.00    -0.296 NA
ATOM      7  N   UNL     1      -6.791  -9.955  18.652  0.00  0.00    -0.312 N 
ATOM      9  C   UNL     1      -8.929 -12.097  18.057  0.00  0.00    +0.084 C 
ATOM     10  C   UNL     1      -9.123 -10.566  18.266  0.00  0.00    +0.161 C 
ATOM     11  C   UNL     1      -9.911 -12.390  16.907  0.00  0.00    +0.036 C 
ATOM     12  C   UNL     1     -11.021 -11.382  17.126  0.00  0.00    +0.087 C 
ATOM     13  C   UNL     1      -6.624 -12.406  18.963  0.00  0.00    +0.074 C 
ATOM     14  C   UNL     1      -7.918  -9.706  17.894  0.00  0.00    +0.232 C 
ATOM     15  C   UNL     1      -6.705 -11.020  19.632  0.00  0.00    +0.123 C 
ATOM     18  C   UNL     1      -7.592 -14.029  17.433  0.00  0.00    +0.105 C 
ATOM     31  H   UNL     1      -5.972  -9.375  18.497  0.00  0.00    +0.149 HD
ENDROOT
BRANCH   5  16
ATOM     16  C   UNL     1     -11.091  -9.129  18.004  0.00  0.00    +0.120 C 
BRANCH  16  20
ATOM     20  C   UNL     1     -11.541  -8.124  16.979  0.00  0.00    -0.033 A 
ATOM     22  C   UNL     1     -12.770  -8.283  16.340  0.00  0.00    +0.006 A 
ATOM     23  C   UNL     1     -10.729  -7.033  16.668  0.00  0.00    +0.006 A 
ATOM     24  C   UNL     1     -13.187  -7.352  15.388  0.00  0.00    +0.015 A 
ATOM     25  C   UNL     1     -11.146  -6.101  15.718  0.00  0.00    +0.015 A 
ATOM     26  C   UNL     1     -12.376  -6.260  15.078  0.00  0.00    +0.059 A 
BRANCH  26  28
ATOM      4  O   UNL     1     -13.973  -5.135  13.698  0.00  0.00    -0.245 OA
ATOM     28  C   UNL     1     -12.810  -5.289  14.088  0.00  0.00    +0.337 C 
BRANCH  28   3
ATOM      3  O   UNL     1     -11.781  -4.534  13.611  0.00  0.00    -0.477 OA
ATOM     33  H   UNL     1     -10.937  -4.741  14.066  0.00  0.00    +0.295 HD
ENDBRANCH  28   3
ENDBRANCH  26  28
ENDBRANCH  16  20
ENDBRANCH   5  16
BRANCH  13  17
ATOM     17  C   UNL     1      -5.165 -12.618  18.506  0.00  0.00    +0.029 C 
BRANCH  17  19
ATOM     19  C   UNL     1      -5.031 -12.384  17.013  0.00  0.00    +0.097 C 
BRANCH  19  21
ATOM      2  O   UNL     1      -4.431 -10.043  16.871  0.00  0.00    -0.276 OA
ATOM      8  N   UNL     1      -2.879 -11.647  16.234  0.00  0.00    -0.304 N 
ATOM     21  C   UNL     1      -4.109 -11.217  16.709  0.00  0.00    +0.214 C 
ATOM     32  H   UNL     1      -2.694 -12.642  16.149  0.00  0.00    +0.150 HD
BRANCH   8  27
ATOM     27  C   UNL     1      -1.827 -10.726  15.872  0.00  0.00    +0.193 C 
BRANCH  27  29
ATOM     29  C   UNL     1      -1.843 -10.449  14.435  0.00  0.00    -0.087 C 
ATOM     30  C   UNL     1      -1.857 -10.217  13.258  0.00  0.00    +0.005 C 
ENDBRANCH  27  29
ENDBRANCH   8  27
ENDBRANCH  19  21
ENDBRANCH  17  19
ENDBRANCH  13  17
TORSDOF 9
ENDMDL
MODEL 5
REMARK VINA RESULT:      -6.4     14.373     18.001
REMARK  Name = 45360808
REMARK  10 active torsions:
REMARK  status: ('A' for Active; 'I' for Inactive)
REMARK    1  A    between atoms: O_3  and  C_28
REMARK    2  A    between atoms: N_5  and  C_16
REMARK    3  A    between atoms: N_6  and  C_18
REMARK    4  A    between atoms: N_8  and  C_27
REMARK    5  A    between atoms: C_13  and  C_17
REMARK    6  A    between atoms: C_16  and  C_20
REMARK    7  A    between atoms: C_17  and  C_19
REMARK    8  A    between atoms: C_19  and  C_21
REMARK    9  A    between atoms: C_26  and  C_28
REMARK   10  A    between atoms: C_27  and  C_29
REMARK                            x       y       z     vdW  Elec       q    Type
REMARK                         _______ _______ _______ _____ _____    ______ ____
ROOT
ATOM      1  O   UNL     1      12.727   7.179   6.358  0.00  0.00    -0.274 OA
ATOM      5  N   UNL     1      10.625   7.990   4.868  0.00  0.00    -0.286 NA
ATOM      6  N   UNL     1      13.592   9.626   3.484  0.00  0.00    -0.296 NA
ATOM      7  N   UNL     1      14.177   7.028   4.594  0.00  0.00    -0.312 N 
ATOM      9  C   UNL     1      12.216   9.088   3.400  0.00  0.00    +0.084 C 
ATOM     10  C   UNL     1      11.891   7.761   4.147  0.00  0.00    +0.161 C 
ATOM     11  C   UNL     1      11.138  10.039   3.953  0.00  0.00    +0.036 C 
ATOM     12  C   UNL     1       9.965   9.122   4.226  0.00  0.00    +0.087 C 
ATOM     13  C   UNL     1      14.633   8.753   2.875  0.00  0.00    +0.074 C 
ATOM     14  C   UNL     1      12.947   7.313   5.155  0.00  0.00    +0.232 C 
ATOM     15  C   UNL     1      14.491   7.252   3.197  0.00  0.00    +0.123 C 
ATOM     18  C   UNL     1      13.662  10.980   2.908  0.00  0.00    +0.105 C 
ATOM     31  H   UNL     1      14.907   6.666   5.201  0.00  0.00    +0.149 HD
ENDROOT
BRANCH   5  16
ATOM     16  C   UNL     1       9.768   6.812   4.919  0.00  0.00    +0.120 C 
BRANCH  16  20
ATOM     20  C   UNL     1       9.654   6.263   6.316  0.00  0.00    -0.033 A 
ATOM     22  C   UNL     1       9.968   4.928   6.568  0.00  0.00    +0.006 A 
ATOM     23  C   UNL     1       9.234   7.090   7.358  0.00  0.00    +0.006 A 
ATOM     24  C   UNL     1       9.861   4.418   7.862  0.00  0.00    +0.015 A 
ATOM     25  C   UNL     1       9.128   6.580   8.652  0.00  0.00    +0.015 A 
ATOM     26  C   UNL     1       9.442   5.245   8.905  0.00  0.00    +0.059 A 
BRANCH  26  28
ATOM      4  O   UNL     1      10.258   4.223  10.908  0.00  0.00    -0.245 OA
ATOM     28  C   UNL     1       9.332   4.715  10.254  0.00  0.00    +0.337 C 
BRANCH  28   3
ATOM      3  O   UNL     1       8.067   4.812  10.750  0.00  0.00    -0.477 OA
ATOM     33  H   UNL     1       7.842   5.735  10.995  0.00  0.00    +0.295 HD
ENDBRANCH  28   3
ENDBRANCH  26  28
ENDBRANCH  16  20
ENDBRANCH   5  16
BRANCH  13  17
ATOM     17  C   UNL     1      16.040   9.193   3.330  0.00  0.00    +0.029 C 
BRANCH  17  19
ATOM     19  C   UNL     1      17.093   8.220   2.835  0.00  0.00    +0.097 C 
BRANCH  19  21
ATOM      2  O   UNL     1      18.980   9.681   3.248  0.00  0.00    -0.276 OA
ATOM      8  N   UNL     1      19.069   7.483   3.990  0.00  0.00    -0.304 N 
ATOM     21  C   UNL     1      18.472   8.568   3.367  0.00  0.00    +0.214 C 
ATOM     32  H   UNL     1      18.566   6.603   4.056  0.00  0.00    +0.150 HD
BRANCH   8  27
ATOM     27  C   UNL     1      20.386   7.560   4.578  0.00  0.00    +0.193 C 
BRANCH  27  29
ATOM     29  C   UNL     1      20.320   8.040   5.958  0.00  0.00    -0.087 C 
ATOM     30  C   UNL     1      20.266   8.429   7.092  0.00  0.00    +0.005 C 
ENDBRANCH  27  29
ENDBRANCH   8  27
ENDBRANCH  19  21
ENDBRANCH  17  19
ENDBRANCH  13  17
TORSDOF 9
ENDMDL
MODEL 6
REMARK VINA RESULT:      -6.4     28.702     30.583
REMARK  Name = 45360808
REMARK  10 active torsions:
REMARK  status: ('A' for Active; 'I' for Inactive)
REMARK    1  A    between atoms: O_3  and  C_28
REMARK    2  A    between atoms: N_5  and  C_16
REMARK    3  A    between atoms: N_6  and  C_18
REMARK    4  A    between atoms: N_8  and  C_27
REMARK    5  A    between atoms: C_13  and  C_17
REMARK    6  A    between atoms: C_16  and  C_20
REMARK    7  A    between atoms: C_17  and  C_19
REMARK    8  A    between atoms: C_19  and  C_21
REMARK    9  A    between atoms: C_26  and  C_28
REMARK   10  A    between atoms: C_27  and  C_29
REMARK                            x       y       z     vdW  Elec       q    Type
REMARK                         _______ _______ _______ _____ _____    ______ ____
ROOT
ATOM      1  O   UNL     1      -6.116 -10.097  13.347  0.00  0.00    -0.274 OA
ATOM      5  N   UNL     1      -3.838 -11.410  13.964  0.00  0.00    -0.286 NA
ATOM      6  N   UNL     1      -4.456 -11.986  10.402  0.00  0.00    -0.296 NA
ATOM      7  N   UNL     1      -5.399  -9.407  11.286  0.00  0.00    -0.312 N 
ATOM      9  C   UNL     1      -3.587 -11.883  11.596  0.00  0.00    +0.084 C 
ATOM     10  C   UNL     1      -3.886 -10.765  12.638  0.00  0.00    +0.161 C 
ATOM     11  C   UNL     1      -3.582 -13.148  12.476  0.00  0.00    +0.036 C 
ATOM     12  C   UNL     1      -3.078 -12.645  13.812  0.00  0.00    +0.087 C 
ATOM     13  C   UNL     1      -4.403 -10.803   9.500  0.00  0.00    +0.074 C 
ATOM     14  C   UNL     1      -5.243 -10.083  12.481  0.00  0.00    +0.232 C 
ATOM     15  C   UNL     1      -4.423  -9.438  10.215  0.00  0.00    +0.123 C 
ATOM     18  C   UNL     1      -4.167 -13.217   9.648  0.00  0.00    +0.105 C 
ATOM     31  H   UNL     1      -6.256  -8.880  11.144  0.00  0.00    +0.149 HD
ENDROOT
BRANCH   5  16
ATOM     16  C   UNL     1      -3.287 -10.550  15.004  0.00  0.00    +0.120 C 
BRANCH  16  20
ATOM     20  C   UNL     1      -4.078 -10.639  16.281  0.00  0.00    -0.033 A 
ATOM     22  C   UNL     1      -3.640 -11.461  17.318  0.00  0.00    +0.006 A 
ATOM     23  C   UNL     1      -5.252  -9.898  16.426  0.00  0.00    +0.006 A 
ATOM     24  C   UNL     1      -4.374 -11.544  18.501  0.00  0.00    +0.015 A 
ATOM     25  C   UNL     1      -5.986  -9.980  17.609  0.00  0.00    +0.015 A 
ATOM     26  C   UNL     1      -5.547 -10.802  18.648  0.00  0.00    +0.059 A 
BRANCH  26  28
ATOM      4  O   UNL     1      -5.879 -11.292  20.965  0.00  0.00    -0.245 OA
ATOM     28  C   UNL     1      -6.312 -10.887  19.880  0.00  0.00    +0.337 C 
BRANCH  28   3
ATOM      3  O   UNL     1      -7.597 -10.463  19.727  0.00  0.00    -0.477 OA
ATOM     33  H   UNL     1      -7.822  -9.745  20.356  0.00  0.00    +0.295 HD
ENDBRANCH  28   3
ENDBRANCH  26  28
ENDBRANCH  16  20
ENDBRANCH   5  16
BRANCH  13  17
ATOM     17  C   UNL     1      -5.588 -10.826   8.511  0.00  0.00    +0.029 C 
BRANCH  17  19
ATOM     19  C   UNL     1      -5.169 -10.280   7.159  0.00  0.00    +0.097 C 
BRANCH  19  21
ATOM      2  O   UNL     1      -6.812 -10.193   5.382  0.00  0.00    -0.276 OA
ATOM      8  N   UNL     1      -6.816  -8.535   7.006  0.00  0.00    -0.304 N 
ATOM     21  C   UNL     1      -6.347  -9.692   6.403  0.00  0.00    +0.214 C 
ATOM     32  H   UNL     1      -6.378  -8.202   7.860  0.00  0.00    +0.150 HD
BRANCH   8  27
ATOM     27  C   UNL     1      -7.931  -7.786   6.476  0.00  0.00    +0.193 C 
BRANCH  27  29
ATOM     29  C   UNL     1      -8.414  -6.802   7.446  0.00  0.00    -0.087 C 
ATOM     30  C   UNL     1      -8.808  -5.992   8.238  0.00  0.00    +0.005 C 
ENDBRANCH  27  29
ENDBRANCH   8  27
ENDBRANCH  19  21
ENDBRANCH  17  19
ENDBRANCH  13  17
TORSDOF 9
ENDMDL
MODEL 7
REMARK VINA RESULT:      -6.4      2.611      9.904
REMARK  Name = 45360808
REMARK  10 active torsions:
REMARK  status: ('A' for Active; 'I' for Inactive)
REMARK    1  A    between atoms: O_3  and  C_28
REMARK    2  A    between atoms: N_5  and  C_16
REMARK    3  A    between atoms: N_6  and  C_18
REMARK    4  A    between atoms: N_8  and  C_27
REMARK    5  A    between atoms: C_13  and  C_17
REMARK    6  A    between atoms: C_16  and  C_20
REMARK    7  A    between atoms: C_17  and  C_19
REMARK    8  A    between atoms: C_19  and  C_21
REMARK    9  A    between atoms: C_26  and  C_28
REMARK   10  A    between atoms: C_27  and  C_29
REMARK                            x       y       z     vdW  Elec       q    Type
REMARK                         _______ _______ _______ _____ _____    ______ ____
ROOT
ATOM      1  O   UNL     1      18.097   9.486  20.871  0.00  0.00    -0.274 OA
ATOM      5  N   UNL     1      16.611   7.392  20.034  0.00  0.00    -0.286 NA
ATOM      6  N   UNL     1      19.915   6.068  20.889  0.00  0.00    -0.296 NA
ATOM      7  N   UNL     1      19.170   8.324  22.524  0.00  0.00    -0.312 N 
ATOM      9  C   UNL     1      18.453   5.952  20.688  0.00  0.00    +0.084 C 
ATOM     10  C   UNL     1      17.546   7.132  21.145  0.00  0.00    +0.161 C 
ATOM     11  C   UNL     1      18.036   5.780  19.215  0.00  0.00    +0.036 C 
ATOM     12  C   UNL     1      16.578   6.187  19.212  0.00  0.00    +0.087 C 
ATOM     13  C   UNL     1      20.336   6.149  22.315  0.00  0.00    +0.074 C 
ATOM     14  C   UNL     1      18.286   8.427  21.468  0.00  0.00    +0.232 C 
ATOM     15  C   UNL     1      19.474   7.075  23.194  0.00  0.00    +0.123 C 
ATOM     18  C   UNL     1      20.625   4.971  20.208  0.00  0.00    +0.105 C 
ATOM     31  H   UNL     1      19.650   9.165  22.830  0.00  0.00    +0.149 HD
ENDROOT
BRANCH   5  16
ATOM     16  C   UNL     1      15.281   7.790  20.479  0.00  0.00    +0.120 C 
BRANCH  16  20
ATOM     20  C   UNL     1      14.387   8.145  19.322  0.00  0.00    -0.033 A 
ATOM     22  C   UNL     1      13.274   7.357  19.033  0.00  0.00    +0.006 A 
ATOM     23  C   UNL     1      14.673   9.263  18.537  0.00  0.00    +0.006 A 
ATOM     24  C   UNL     1      12.445   7.685  17.960  0.00  0.00    +0.015 A 
ATOM     25  C   UNL     1      13.845   9.592  17.464  0.00  0.00    +0.015 A 
ATOM     26  C   UNL     1      12.730   8.804  17.175  0.00  0.00    +0.059 A 
BRANCH  26  28
ATOM      4  O   UNL     1      10.744   8.675  15.849  0.00  0.00    -0.245 OA
ATOM     28  C   UNL     1      11.867   9.147  16.058  0.00  0.00    +0.337 C 
BRANCH  28   3
ATOM      3  O   UNL     1      12.429  10.071  15.230  0.00  0.00    -0.477 OA
ATOM     33  H   UNL     1      12.156  10.984  15.464  0.00  0.00    +0.295 HD
ENDBRANCH  28   3
ENDBRANCH  26  28
ENDBRANCH  16  20
ENDBRANCH   5  16
BRANCH  13  17
ATOM     17  C   UNL     1      21.796   6.637  22.418  0.00  0.00    +0.029 C 
BRANCH  17  19
ATOM     19  C   UNL     1      22.494   5.994  23.602  0.00  0.00    +0.097 C 
BRANCH  19  21
ATOM      2  O   UNL     1      24.706   5.062  23.916  0.00  0.00    -0.276 OA
ATOM      8  N   UNL     1      23.651   4.798  21.866  0.00  0.00    -0.304 N 
ATOM     21  C   UNL     1      23.743   5.243  23.176  0.00  0.00    +0.214 C 
ATOM     32  H   UNL     1      22.806   4.980  21.333  0.00  0.00    +0.150 HD
BRANCH   8  27
ATOM     27  C   UNL     1      24.713   4.058  21.226  0.00  0.00    +0.193 C 
BRANCH  27  29
ATOM     29  C   UNL     1      24.389   2.633  21.149  0.00  0.00    -0.087 C 
ATOM     30  C   UNL     1      24.125   1.464  21.080  0.00  0.00    +0.005 C 
ENDBRANCH  27  29
ENDBRANCH   8  27
ENDBRANCH  19  21
ENDBRANCH  17  19
ENDBRANCH  13  17
TORSDOF 9
ENDMDL
MODEL 8
REMARK VINA RESULT:      -6.3     27.111     30.685
REMARK  Name = 45360808
REMARK  10 active torsions:
REMARK  status: ('A' for Active; 'I' for Inactive)
REMARK    1  A    between atoms: O_3  and  C_28
REMARK    2  A    between atoms: N_5  and  C_16
REMARK    3  A    between atoms: N_6  and  C_18
REMARK    4  A    between atoms: N_8  and  C_27
REMARK    5  A    between atoms: C_13  and  C_17
REMARK    6  A    between atoms: C_16  and  C_20
REMARK    7  A    between atoms: C_17  and  C_19
REMARK    8  A    between atoms: C_19  and  C_21
REMARK    9  A    between atoms: C_26  and  C_28
REMARK   10  A    between atoms: C_27  and  C_29
REMARK                            x       y       z     vdW  Elec       q    Type
REMARK                         _______ _______ _______ _____ _____    ______ ____
ROOT
ATOM      1  O   UNL     1      -6.481  -9.243  16.608  0.00  0.00    -0.274 OA
ATOM      5  N   UNL     1      -7.286 -11.705  17.374  0.00  0.00    -0.286 NA
ATOM      6  N   UNL     1     -10.142  -9.465  17.851  0.00  0.00    -0.296 NA
ATOM      7  N   UNL     1      -8.473  -8.674  15.635  0.00  0.00    -0.312 N 
ATOM      9  C   UNL     1      -9.521 -10.789  17.621  0.00  0.00    +0.084 C 
ATOM     10  C   UNL     1      -8.286 -10.875  16.676  0.00  0.00    +0.161 C 
ATOM     11  C   UNL     1      -8.992 -11.462  18.901  0.00  0.00    +0.036 C 
ATOM     12  C   UNL     1      -8.002 -12.482  18.379  0.00  0.00    +0.087 C 
ATOM     13  C   UNL     1     -10.733  -8.843  16.634  0.00  0.00    +0.074 C 
ATOM     14  C   UNL     1      -7.644  -9.534  16.330  0.00  0.00    +0.232 C 
ATOM     15  C   UNL     1      -9.869  -8.954  15.363  0.00  0.00    +0.123 C 
ATOM     18  C   UNL     1     -11.146  -9.538  18.926  0.00  0.00    +0.105 C 
ATOM     31  H   UNL     1      -8.087  -7.789  15.320  0.00  0.00    +0.149 HD
ENDROOT
BRANCH   5  16
ATOM     16  C   UNL     1      -6.509 -12.550  16.477  0.00  0.00    +0.120 C 
BRANCH  16  20
ATOM     20  C   UNL     1      -5.169 -11.945  16.157  0.00  0.00    -0.033 A 
ATOM     22  C   UNL     1      -4.781 -11.773  14.829  0.00  0.00    +0.006 A 
ATOM     23  C   UNL     1      -4.315 -11.556  17.189  0.00  0.00    +0.006 A 
ATOM     24  C   UNL     1      -3.538 -11.213  14.532  0.00  0.00    +0.015 A 
ATOM     25  C   UNL     1      -3.073 -10.995  16.893  0.00  0.00    +0.015 A 
ATOM     26  C   UNL     1      -2.684 -10.823  15.564  0.00  0.00    +0.059 A 
BRANCH  26  28
ATOM      4  O   UNL     1      -1.144  -9.517  14.282  0.00  0.00    -0.245 OA
ATOM     28  C   UNL     1      -1.390 -10.238  15.255  0.00  0.00    +0.337 C 
BRANCH  28   3
ATOM      3  O   UNL     1      -0.437 -10.570  16.170  0.00  0.00    -0.477 OA
ATOM     33  H   UNL     1      -0.201 -11.520  16.122  0.00  0.00    +0.295 HD
ENDBRANCH  28   3
ENDBRANCH  26  28
ENDBRANCH  16  20
ENDBRANCH   5  16
BRANCH  13  17
ATOM     17  C   UNL     1     -11.012  -7.345  16.876  0.00  0.00    +0.029 C 
BRANCH  17  19
ATOM     19  C   UNL     1     -10.756  -6.540  15.616  0.00  0.00    +0.097 C 
BRANCH  19  21
ATOM      2  O   UNL     1     -13.145  -6.158  15.538  0.00  0.00    -0.276 OA
ATOM      8  N   UNL     1     -11.774  -5.038  14.038  0.00  0.00    -0.304 N 
ATOM     21  C   UNL     1     -12.031  -5.911  15.084  0.00  0.00    +0.214 C 
ATOM     32  H   UNL     1     -10.815  -4.883  13.739  0.00  0.00    +0.150 HD
BRANCH   8  27
ATOM     27  C   UNL     1     -12.824  -4.315  13.360  0.00  0.00    +0.193 C 
BRANCH  27  29
ATOM     29  C   UNL     1     -12.415  -3.939  12.006  0.00  0.00    -0.087 C 
ATOM     30  C   UNL     1     -12.083  -3.626  10.897  0.00  0.00    +0.005 C 
ENDBRANCH  27  29
ENDBRANCH   8  27
ENDBRANCH  19  21
ENDBRANCH  17  19
ENDBRANCH  13  17
TORSDOF 9
ENDMDL
MODEL 9
REMARK VINA RESULT:      -6.1      2.115      2.938
REMARK  Name = 45360808
REMARK  10 active torsions:
REMARK  status: ('A' for Active; 'I' for Inactive)
REMARK    1  A    between atoms: O_3  and  C_28
REMARK    2  A    between atoms: N_5  and  C_16
REMARK    3  A    between atoms: N_6  and  C_18
REMARK    4  A    between atoms: N_8  and  C_27
REMARK    5  A    between atoms: C_13  and  C_17
REMARK    6  A    between atoms: C_16  and  C_20
REMARK    7  A    between atoms: C_17  and  C_19
REMARK    8  A    between atoms: C_19  and  C_21
REMARK    9  A    between atoms: C_26  and  C_28
REMARK   10  A    between atoms: C_27  and  C_29
REMARK                            x       y       z     vdW  Elec       q    Type
REMARK                         _______ _______ _______ _____ _____    ______ ____
ROOT
ATOM      1  O   UNL     1      19.550   5.784  19.994  0.00  0.00    -0.274 OA
ATOM      5  N   UNL     1      20.417   7.260  22.084  0.00  0.00    -0.286 NA
ATOM      6  N   UNL     1      17.450   8.946  20.760  0.00  0.00    -0.296 NA
ATOM      7  N   UNL     1      17.326   6.080  20.447  0.00  0.00    -0.312 N 
ATOM      9  C   UNL     1      18.418   8.613  21.829  0.00  0.00    +0.084 C 
ATOM     10  C   UNL     1      18.955   7.154  21.916  0.00  0.00    +0.161 C 
ATOM     11  C   UNL     1      19.721   9.432  21.770  0.00  0.00    +0.036 C 
ATOM     12  C   UNL     1      20.695   8.603  22.580  0.00  0.00    +0.087 C 
ATOM     13  C   UNL     1      16.152   8.222  20.858  0.00  0.00    +0.074 C 
ATOM     14  C   UNL     1      18.670   6.288  20.692  0.00  0.00    +0.232 C 
ATOM     15  C   UNL     1      16.268   6.724  21.200  0.00  0.00    +0.123 C 
ATOM     18  C   UNL     1      17.220  10.400  20.695  0.00  0.00    +0.105 C 
ATOM     31  H   UNL     1      17.069   5.463  19.684  0.00  0.00    +0.149 HD
ENDROOT
BRANCH   5  16
ATOM     16  C   UNL     1      20.975   6.228  22.949  0.00  0.00    +0.120 C 
BRANCH  16  20
ATOM     20  C   UNL     1      21.924   5.328  22.206  0.00  0.00    -0.033 A 
ATOM     22  C   UNL     1      21.985   3.970  22.517  0.00  0.00    +0.006 A 
ATOM     23  C   UNL     1      22.745   5.852  21.206  0.00  0.00    +0.006 A 
ATOM     24  C   UNL     1      22.866   3.135  21.829  0.00  0.00    +0.015 A 
ATOM     25  C   UNL     1      23.625   5.017  20.518  0.00  0.00    +0.015 A 
ATOM     26  C   UNL     1      23.686   3.658  20.829  0.00  0.00    +0.059 A 
BRANCH  26  28
ATOM      4  O   UNL     1      25.383   1.984  20.632  0.00  0.00    -0.245 OA
ATOM     28  C   UNL     1      24.603   2.789  20.111  0.00  0.00    +0.337 C 
BRANCH  28   3
ATOM      3  O   UNL     1      24.522   2.947  18.760  0.00  0.00    -0.477 OA
ATOM     33  H   UNL     1      24.398   3.888  18.511  0.00  0.00    +0.295 HD
ENDBRANCH  28   3
ENDBRANCH  26  28
ENDBRANCH  16  20
ENDBRANCH   5  16
BRANCH  13  17
ATOM     17  C   UNL     1      15.370   8.337  19.533  0.00  0.00    +0.029 C 
BRANCH  17  19
ATOM     19  C   UNL     1      14.137   7.453  19.559  0.00  0.00    +0.097 C 
BRANCH  19  21
ATOM      2  O   UNL     1      12.176   7.122  18.178  0.00  0.00    -0.276 OA
ATOM      8  N   UNL     1      13.815   8.607  17.473  0.00  0.00    -0.304 N 
ATOM     21  C   UNL     1      13.254   7.687  18.347  0.00  0.00    +0.214 C 
ATOM     32  H   UNL     1      14.706   9.038  17.704  0.00  0.00    +0.150 HD
BRANCH   8  27
ATOM     27  C   UNL     1      13.168   8.998  16.244  0.00  0.00    +0.193 C 
BRANCH  27  29
ATOM     29  C   UNL     1      13.682  10.281  15.763  0.00  0.00    -0.087 C 
ATOM     30  C   UNL     1      14.101  11.335  15.371  0.00  0.00    +0.005 C 
ENDBRANCH  27  29
ENDBRANCH   8  27
ENDBRANCH  19  21
ENDBRANCH  17  19
ENDBRANCH  13  17
TORSDOF 9
ENDMDL
MODEL 10
REMARK VINA RESULT:      -6.1     27.643     30.648
REMARK  Name = 45360808
REMARK  10 active torsions:
REMARK  status: ('A' for Active; 'I' for Inactive)
REMARK    1  A    between atoms: O_3  and  C_28
REMARK    2  A    between atoms: N_5  and  C_16
REMARK    3  A    between atoms: N_6  and  C_18
REMARK    4  A    between atoms: N_8  and  C_27
REMARK    5  A    between atoms: C_13  and  C_17
REMARK    6  A    between atoms: C_16  and  C_20
REMARK    7  A    between atoms: C_17  and  C_19
REMARK    8  A    between atoms: C_19  and  C_21
REMARK    9  A    between atoms: C_26  and  C_28
REMARK   10  A    between atoms: C_27  and  C_29
REMARK                            x       y       z     vdW  Elec       q    Type
REMARK                         _______ _______ _______ _____ _____    ______ ____
ROOT
ATOM      1  O   UNL     1      -5.962  -9.525  13.385  0.00  0.00    -0.274 OA
ATOM      5  N   UNL     1      -3.851 -10.582  12.075  0.00  0.00    -0.286 NA
ATOM      6  N   UNL     1      -3.124 -10.867  15.651  0.00  0.00    -0.296 NA
ATOM      7  N   UNL     1      -5.944 -11.067  15.075  0.00  0.00    -0.312 N 
ATOM      9  C   UNL     1      -2.983 -11.272  14.234  0.00  0.00    +0.084 C 
ATOM     10  C   UNL     1      -4.248 -11.252  13.327  0.00  0.00    +0.161 C 
ATOM     11  C   UNL     1      -1.998 -10.403  13.430  0.00  0.00    +0.036 C 
ATOM     12  C   UNL     1      -2.396 -10.658  11.991  0.00  0.00    +0.087 C 
ATOM     13  C   UNL     1      -4.007 -11.751  16.459  0.00  0.00    +0.074 C 
ATOM     14  C   UNL     1      -5.449 -10.511  13.911  0.00  0.00    +0.232 C 
ATOM     15  C   UNL     1      -5.314 -12.177  15.762  0.00  0.00    +0.123 C 
ATOM     18  C   UNL     1      -1.804 -10.738  16.292  0.00  0.00    +0.105 C 
ATOM     31  H   UNL     1      -6.779 -10.658  15.482  0.00  0.00    +0.149 HD
ENDROOT
BRANCH   5  16
ATOM     16  C   UNL     1      -4.498 -11.137  10.892  0.00  0.00    +0.120 C 
BRANCH  16  20
ATOM     20  C   UNL     1      -5.446 -10.154  10.260  0.00  0.00    -0.033 A 
ATOM     22  C   UNL     1      -6.761 -10.530   9.989  0.00  0.00    +0.006 A 
ATOM     23  C   UNL     1      -5.008  -8.868   9.944  0.00  0.00    +0.006 A 
ATOM     24  C   UNL     1      -7.640  -9.620   9.401  0.00  0.00    +0.015 A 
ATOM     25  C   UNL     1      -5.887  -7.957   9.357  0.00  0.00    +0.015 A 
ATOM     26  C   UNL     1      -7.203  -8.332   9.086  0.00  0.00    +0.059 A 
BRANCH  26  28
ATOM      4  O   UNL     1      -9.297  -7.210   8.805  0.00  0.00    -0.245 OA
ATOM     28  C   UNL     1      -8.118  -7.383   8.475  0.00  0.00    +0.337 C 
BRANCH  28   3
ATOM      3  O   UNL     1      -7.538  -6.674   7.467  0.00  0.00    -0.477 OA
ATOM     33  H   UNL     1      -8.091  -6.673   6.657  0.00  0.00    +0.295 HD
ENDBRANCH  28   3
ENDBRANCH  26  28
ENDBRANCH  16  20
ENDBRANCH   5  16
BRANCH  13  17
ATOM     17  C   UNL     1      -4.391 -11.062  17.785  0.00  0.00    +0.029 C 
BRANCH  17  19
ATOM     19  C   UNL     1      -4.935 -12.073  18.777  0.00  0.00    +0.097 C 
BRANCH  19  21
ATOM      2  O   UNL     1      -6.058 -11.152  20.714  0.00  0.00    -0.276 OA
ATOM      8  N   UNL     1      -7.269 -11.494  18.764  0.00  0.00    -0.304 N 
ATOM     21  C   UNL     1      -6.124 -11.522  19.545  0.00  0.00    +0.214 C 
ATOM     32  H   UNL     1      -7.225 -11.806  17.798  0.00  0.00    +0.150 HD
BRANCH   8  27
ATOM     27  C   UNL     1      -8.534 -11.013  19.267  0.00  0.00    +0.193 C 
BRANCH  27  29
ATOM     29  C   UNL     1      -9.335 -12.109  19.813  0.00  0.00    -0.087 C 
ATOM     30  C   UNL     1      -9.995 -13.006  20.260  0.00  0.00    +0.005 C 
ENDBRANCH  27  29
ENDBRANCH   8  27
ENDBRANCH  19  21
ENDBRANCH  17  19
ENDBRANCH  13  17
TORSDOF 9
ENDMDL
