MODEL 1
REMARK VINA RESULT:      -7.3      0.000      0.000
REMARK  Name = 7144237
REMARK  7 active torsions:
REMARK  status: ('A' for Active; 'I' for Inactive)
REMARK    1  A    between atoms: S_1  and  N_7
REMARK    2  A    between atoms: S_1  and  C_21
REMARK    3  A    between atoms: S_2  and  C_32
REMARK    4  A    between atoms: S_2  and  C_34
REMARK    5  A    between atoms: N_9  and  C_31
REMARK    6  A    between atoms: C_17  and  C_22
REMARK    7  A    between atoms: C_33  and  C_35
REMARK                            x       y       z     vdW  Elec       q    Type
REMARK                         _______ _______ _______ _____ _____    ______ ____
ROOT
ATOM      5  O   UNL     1      13.593   3.032   1.761  0.00  0.00    -0.268 OA
ATOM      7  N   UNL     1      14.392   7.836   2.666  0.00  0.00    -0.176 NA
ATOM      8  N   UNL     1      13.085   5.284   1.364  0.00  0.00    -0.311 N 
ATOM     10  C   UNL     1      14.822   6.903   0.397  0.00  0.00    +0.025 C 
ATOM     11  C   UNL     1      12.576   7.714   0.970  0.00  0.00    +0.053 C 
ATOM     12  C   UNL     1      13.612   7.644  -0.151  0.00  0.00    +0.017 C 
ATOM     13  C   UNL     1      15.418   7.646   1.602  0.00  0.00    +0.114 C 
ATOM     14  C   UNL     1      13.160   8.505   2.157  0.00  0.00    +0.119 C 
ATOM     15  C   UNL     1      14.403   5.474   0.744  0.00  0.00    +0.130 C 
ATOM     16  C   UNL     1      12.130   6.319   1.413  0.00  0.00    +0.034 A 
ATOM     17  C   UNL     1      10.873   6.059   1.861  0.00  0.00    +0.002 A 
ATOM     18  C   UNL     1      12.802   3.976   1.795  0.00  0.00    +0.252 A 
ATOM     19  C   UNL     1      10.546   4.721   2.318  0.00  0.00    +0.015 A 
ATOM     20  C   UNL     1      11.436   3.729   2.311  0.00  0.00    +0.071 A 
ENDROOT
BRANCH  17  22
ATOM     22  C   UNL     1       9.831   7.107   1.911  0.00  0.00    -0.016 A 
ATOM     25  C   UNL     1       9.178   7.375   3.111  0.00  0.00    +0.009 A 
ATOM     26  C   UNL     1       9.510   7.818   0.759  0.00  0.00    +0.009 A 
ATOM     29  C   UNL     1       8.194   8.362   3.158  0.00  0.00    +0.015 A 
ATOM     30  C   UNL     1       8.526   8.805   0.806  0.00  0.00    +0.015 A 
ATOM     32  C   UNL     1       7.868   9.078   2.005  0.00  0.00    +0.008 A 
BRANCH  32   2
ATOM      2  S   UNL     1       6.611  10.340   2.065  0.00  0.00    -0.129 S 
ATOM     34  C   UNL     1       6.024  10.195   3.776  0.00  0.00    +0.090 C 
ENDBRANCH  32   2
ENDBRANCH  17  22
BRANCH   7   1
ATOM      1  S   UNL     1      14.979   8.407   4.168  0.00  0.00    +0.061 S 
ATOM      3  O   UNL     1      14.703   9.824   4.277  0.00  0.00    -0.153 OA
ATOM      4  O   UNL     1      16.315   7.890   4.380  0.00  0.00    -0.153 OA
BRANCH   1  21
ATOM     21  C   UNL     1      13.888   7.559   5.268  0.00  0.00    +0.106 A 
ATOM     23  C   UNL     1      12.611   7.234   4.840  0.00  0.00    +0.030 A 
ATOM     24  C   UNL     1      14.327   7.234   6.541  0.00  0.00    +0.030 A 
ATOM     27  C   UNL     1      11.750   6.565   5.709  0.00  0.00    +0.025 A 
ATOM     28  C   UNL     1      13.465   6.564   7.410  0.00  0.00    +0.025 A 
ATOM     31  C   UNL     1      12.177   6.230   6.993  0.00  0.00    +0.033 A 
BRANCH  31   9
ATOM      6  O   UNL     1       9.532   7.075   8.158  0.00  0.00    -0.276 OA
ATOM      9  N   UNL     1      11.314   5.561   7.863  0.00  0.00    -0.286 N 
ATOM     33  C   UNL     1      10.088   6.005   8.376  0.00  0.00    +0.214 C 
ATOM     35  C   UNL     1       9.460   4.980   9.286  0.00  0.00    +0.109 C 
ATOM     36  H   UNL     1      11.622   4.635   8.152  0.00  0.00    +0.155 HD
ENDBRANCH  31   9
ENDBRANCH   1  21
ENDBRANCH   7   1
TORSDOF 5
ENDMDL
MODEL 2
REMARK VINA RESULT:      -6.9      3.128      5.796
REMARK  Name = 7144237
REMARK  7 active torsions:
REMARK  status: ('A' for Active; 'I' for Inactive)
REMARK    1  A    between atoms: S_1  and  N_7
REMARK    2  A    between atoms: S_1  and  C_21
REMARK    3  A    between atoms: S_2  and  C_32
REMARK    4  A    between atoms: S_2  and  C_34
REMARK    5  A    between atoms: N_9  and  C_31
REMARK    6  A    between atoms: C_17  and  C_22
REMARK    7  A    between atoms: C_33  and  C_35
REMARK                            x       y       z     vdW  Elec       q    Type
REMARK                         _______ _______ _______ _____ _____    ______ ____
ROOT
ATOM      5  O   UNL     1      10.907   5.599   8.709  0.00  0.00    -0.268 OA
ATOM      7  N   UNL     1      12.129   9.427   5.813  0.00  0.00    -0.176 NA
ATOM      8  N   UNL     1      11.747   6.425   6.684  0.00  0.00    -0.311 N 
ATOM     10  C   UNL     1      13.883   7.840   6.594  0.00  0.00    +0.025 C 
ATOM     11  C   UNL     1      12.644   7.359   4.530  0.00  0.00    +0.053 C 
ATOM     12  C   UNL     1      14.021   7.280   5.188  0.00  0.00    +0.017 C 
ATOM     13  C   UNL     1      13.415   9.303   6.556  0.00  0.00    +0.114 C 
ATOM     14  C   UNL     1      12.201   8.832   4.447  0.00  0.00    +0.119 C 
ATOM     15  C   UNL     1      12.929   6.945   7.385  0.00  0.00    +0.130 C 
ATOM     16  C   UNL     1      11.610   6.521   5.285  0.00  0.00    +0.034 A 
ATOM     17  C   UNL     1      10.574   5.898   4.663  0.00  0.00    +0.002 A 
ATOM     18  C   UNL     1      10.828   5.726   7.486  0.00  0.00    +0.252 A 
ATOM     19  C   UNL     1       9.603   5.172   5.459  0.00  0.00    +0.015 A 
ATOM     20  C   UNL     1       9.690   5.087   6.786  0.00  0.00    +0.071 A 
ENDROOT
BRANCH  17  22
ATOM     22  C   UNL     1      10.400   5.953   3.195  0.00  0.00    -0.016 A 
ATOM     25  C   UNL     1       9.769   7.050   2.616  0.00  0.00    +0.009 A 
ATOM     26  C   UNL     1      10.867   4.908   2.404  0.00  0.00    +0.009 A 
ATOM     29  C   UNL     1       9.603   7.101   1.232  0.00  0.00    +0.015 A 
ATOM     30  C   UNL     1      10.701   4.959   1.021  0.00  0.00    +0.015 A 
ATOM     32  C   UNL     1      10.069   6.056   0.434  0.00  0.00    +0.008 A 
BRANCH  32   2
ATOM      2  S   UNL     1       9.857   6.121  -1.334  0.00  0.00    -0.129 S 
ATOM     34  C   UNL     1      10.627   4.563  -1.856  0.00  0.00    +0.090 C 
ENDBRANCH  32   2
ENDBRANCH  17  22
BRANCH   7   1
ATOM      1  S   UNL     1      11.355  10.949   5.920  0.00  0.00    +0.061 S 
ATOM      3  O   UNL     1      12.128  11.926   5.182  0.00  0.00    -0.153 OA
ATOM      4  O   UNL     1      10.971  11.187   7.295  0.00  0.00    -0.153 OA
BRANCH   1  21
ATOM     21  C   UNL     1       9.888  10.614   4.996  0.00  0.00    +0.106 A 
ATOM     23  C   UNL     1       8.980   9.685   5.479  0.00  0.00    +0.030 A 
ATOM     24  C   UNL     1       9.670  11.285   3.805  0.00  0.00    +0.030 A 
ATOM     27  C   UNL     1       7.821   9.420   4.749  0.00  0.00    +0.025 A 
ATOM     28  C   UNL     1       8.509  11.021   3.075  0.00  0.00    +0.025 A 
ATOM     31  C   UNL     1       7.586  10.088   3.547  0.00  0.00    +0.033 A 
BRANCH  31   9
ATOM      6  O   UNL     1       4.829  11.281   3.756  0.00  0.00    -0.276 OA
ATOM      9  N   UNL     1       6.427   9.823   2.817  0.00  0.00    -0.286 N 
ATOM     33  C   UNL     1       5.163  10.411   2.958  0.00  0.00    +0.214 C 
ATOM     35  C   UNL     1       4.171   9.846   1.972  0.00  0.00    +0.109 C 
ATOM     36  H   UNL     1       6.522   9.113   2.094  0.00  0.00    +0.155 HD
ENDBRANCH  31   9
ENDBRANCH   1  21
ENDBRANCH   7   1
TORSDOF 5
ENDMDL
MODEL 3
REMARK VINA RESULT:      -6.8     24.812     27.755
REMARK  Name = 7144237
REMARK  7 active torsions:
REMARK  status: ('A' for Active; 'I' for Inactive)
REMARK    1  A    between atoms: S_1  and  N_7
REMARK    2  A    between atoms: S_1  and  C_21
REMARK    3  A    between atoms: S_2  and  C_32
REMARK    4  A    between atoms: S_2  and  C_34
REMARK    5  A    between atoms: N_9  and  C_31
REMARK    6  A    between atoms: C_17  and  C_22
REMARK    7  A    between atoms: C_33  and  C_35
REMARK                            x       y       z     vdW  Elec       q    Type
REMARK                         _______ _______ _______ _____ _____    ______ ____
ROOT
ATOM      5  O   UNL     1      -4.903 -15.016  10.713  0.00  0.00    -0.268 OA
ATOM      7  N   UNL     1      -3.089 -11.121  13.176  0.00  0.00    -0.176 NA
ATOM      8  N   UNL     1      -5.068 -12.773  11.368  0.00  0.00    -0.311 N 
ATOM     10  C   UNL     1      -3.300 -11.043  10.695  0.00  0.00    +0.025 C 
ATOM     11  C   UNL     1      -5.201 -10.371  12.096  0.00  0.00    +0.053 C 
ATOM     12  C   UNL     1      -4.442 -10.046  10.811  0.00  0.00    +0.017 C 
ATOM     13  C   UNL     1      -2.349 -10.927  11.896  0.00  0.00    +0.114 C 
ATOM     14  C   UNL     1      -4.258 -10.203  13.303  0.00  0.00    +0.119 C 
ATOM     15  C   UNL     1      -3.890 -12.447  10.554  0.00  0.00    +0.130 C 
ATOM     16  C   UNL     1      -5.792 -11.782  12.060  0.00  0.00    +0.034 A 
ATOM     17  C   UNL     1      -6.959 -12.104  12.679  0.00  0.00    +0.002 A 
ATOM     18  C   UNL     1      -5.489 -14.114  11.313  0.00  0.00    +0.252 A 
ATOM     19  C   UNL     1      -7.422 -13.479  12.647  0.00  0.00    +0.015 A 
ATOM     20  C   UNL     1      -6.745 -14.444  12.026  0.00  0.00    +0.071 A 
ENDROOT
BRANCH  17  22
ATOM     22  C   UNL     1      -7.764 -11.094  13.400  0.00  0.00    -0.016 A 
ATOM     25  C   UNL     1      -8.802 -10.441  12.743  0.00  0.00    +0.009 A 
ATOM     26  C   UNL     1      -7.477 -10.804  14.730  0.00  0.00    +0.009 A 
ATOM     29  C   UNL     1      -9.560  -9.487  13.422  0.00  0.00    +0.015 A 
ATOM     30  C   UNL     1      -8.235  -9.850  15.410  0.00  0.00    +0.015 A 
ATOM     32  C   UNL     1      -9.276  -9.192  14.756  0.00  0.00    +0.008 A 
BRANCH  32   2
ATOM      2  S   UNL     1     -10.245  -7.974  15.625  0.00  0.00    -0.129 S 
ATOM     34  C   UNL     1      -9.754  -8.271  17.346  0.00  0.00    +0.090 C 
ENDBRANCH  32   2
ENDBRANCH  17  22
BRANCH   7   1
ATOM      1  S   UNL     1      -2.118 -11.284  14.575  0.00  0.00    +0.061 S 
ATOM      3  O   UNL     1      -1.628  -9.979  14.967  0.00  0.00    -0.153 OA
ATOM      4  O   UNL     1      -1.211 -12.396  14.392  0.00  0.00    -0.153 OA
BRANCH   1  21
ATOM     21  C   UNL     1      -3.346 -11.772  15.747  0.00  0.00    +0.106 A 
ATOM     23  C   UNL     1      -4.149 -12.867  15.471  0.00  0.00    +0.030 A 
ATOM     24  C   UNL     1      -3.487 -11.051  16.921  0.00  0.00    +0.030 A 
ATOM     27  C   UNL     1      -5.119 -13.252  16.397  0.00  0.00    +0.025 A 
ATOM     28  C   UNL     1      -4.457 -11.436  17.847  0.00  0.00    +0.025 A 
ATOM     31  C   UNL     1      -5.273 -12.537  17.584  0.00  0.00    +0.033 A 
BRANCH  31   9
ATOM      6  O   UNL     1      -7.642 -11.031  18.673  0.00  0.00    -0.276 OA
ATOM      9  N   UNL     1      -6.244 -12.922  18.510  0.00  0.00    -0.286 N 
ATOM     33  C   UNL     1      -7.331 -12.175  18.984  0.00  0.00    +0.214 C 
ATOM     35  C   UNL     1      -8.151 -12.955  19.981  0.00  0.00    +0.109 C 
ATOM     36  H   UNL     1      -6.142 -13.865  18.879  0.00  0.00    +0.155 HD
ENDBRANCH  31   9
ENDBRANCH   1  21
ENDBRANCH   7   1
TORSDOF 5
ENDMDL
MODEL 4
REMARK VINA RESULT:      -6.7      2.686      6.494
REMARK  Name = 7144237
REMARK  7 active torsions:
REMARK  status: ('A' for Active; 'I' for Inactive)
REMARK    1  A    between atoms: S_1  and  N_7
REMARK    2  A    between atoms: S_1  and  C_21
REMARK    3  A    between atoms: S_2  and  C_32
REMARK    4  A    between atoms: S_2  and  C_34
REMARK    5  A    between atoms: N_9  and  C_31
REMARK    6  A    between atoms: C_17  and  C_22
REMARK    7  A    between atoms: C_33  and  C_35
REMARK                            x       y       z     vdW  Elec       q    Type
REMARK                         _______ _______ _______ _____ _____    ______ ____
ROOT
ATOM      5  O   UNL     1       7.345   9.364   4.688  0.00  0.00    -0.268 OA
ATOM      7  N   UNL     1      11.367   6.825   6.068  0.00  0.00    -0.176 NA
ATOM      8  N   UNL     1       8.703   7.463   4.516  0.00  0.00    -0.311 N 
ATOM     10  C   UNL     1       9.095   5.907   6.516  0.00  0.00    +0.025 C 
ATOM     11  C   UNL     1      10.190   5.442   4.367  0.00  0.00    +0.053 C 
ATOM     12  C   UNL     1       9.305   4.838   5.456  0.00  0.00    +0.017 C 
ATOM     13  C   UNL     1      10.436   6.341   7.127  0.00  0.00    +0.114 C 
ATOM     14  C   UNL     1      11.553   5.828   4.974  0.00  0.00    +0.119 C 
ATOM     15  C   UNL     1       8.338   7.077   5.886  0.00  0.00    +0.130 C 
ATOM     16  C   UNL     1       9.525   6.653   3.708  0.00  0.00    +0.034 A 
ATOM     17  C   UNL     1       9.717   6.974   2.401  0.00  0.00    +0.002 A 
ATOM     18  C   UNL     1       8.083   8.629   4.031  0.00  0.00    +0.252 A 
ATOM     19  C   UNL     1       9.097   8.172   1.868  0.00  0.00    +0.015 A 
ATOM     20  C   UNL     1       8.337   8.974   2.613  0.00  0.00    +0.071 A 
ENDROOT
BRANCH  17  22
ATOM     22  C   UNL     1      10.555   6.143   1.509  0.00  0.00    -0.016 A 
ATOM     25  C   UNL     1      10.001   5.033   0.877  0.00  0.00    +0.009 A 
ATOM     26  C   UNL     1      11.891   6.476   1.310  0.00  0.00    +0.009 A 
ATOM     29  C   UNL     1      10.792   4.249   0.038  0.00  0.00    +0.015 A 
ATOM     30  C   UNL     1      12.682   5.691   0.470  0.00  0.00    +0.015 A 
ATOM     32  C   UNL     1      12.132   4.578  -0.166  0.00  0.00    +0.008 A 
BRANCH  32   2
ATOM      2  S   UNL     1      13.143   3.576  -1.239  0.00  0.00    -0.129 S 
ATOM     34  C   UNL     1      11.895   2.802  -2.304  0.00  0.00    +0.090 C 
ENDBRANCH  32   2
ENDBRANCH  17  22
BRANCH   7   1
ATOM      1  S   UNL     1      12.793   7.587   6.627  0.00  0.00    +0.061 S 
ATOM      3  O   UNL     1      13.600   6.618   7.339  0.00  0.00    -0.153 OA
ATOM      4  O   UNL     1      12.444   8.854   7.233  0.00  0.00    -0.153 OA
BRANCH   1  21
ATOM     21  C   UNL     1      13.588   7.922   5.087  0.00  0.00    +0.106 A 
ATOM     23  C   UNL     1      14.810   7.329   4.811  0.00  0.00    +0.030 A 
ATOM     24  C   UNL     1      12.978   8.773   4.181  0.00  0.00    +0.030 A 
ATOM     27  C   UNL     1      15.438   7.595   3.594  0.00  0.00    +0.025 A 
ATOM     28  C   UNL     1      13.607   9.038   2.963  0.00  0.00    +0.025 A 
ATOM     31  C   UNL     1      14.836   8.448   2.671  0.00  0.00    +0.033 A 
BRANCH  31   9
ATOM      6  O   UNL     1      16.008   6.573   0.627  0.00  0.00    -0.276 OA
ATOM      9  N   UNL     1      15.466   8.713   1.453  0.00  0.00    -0.286 N 
ATOM     33  C   UNL     1      15.996   7.796   0.537  0.00  0.00    +0.214 C 
ATOM     35  C   UNL     1      16.593   8.488  -0.663  0.00  0.00    +0.109 C 
ATOM     36  H   UNL     1      15.542   9.699   1.210  0.00  0.00    +0.155 HD
ENDBRANCH  31   9
ENDBRANCH   1  21
ENDBRANCH   7   1
TORSDOF 5
ENDMDL
MODEL 5
REMARK VINA RESULT:      -6.7     22.981     26.354
REMARK  Name = 7144237
REMARK  7 active torsions:
REMARK  status: ('A' for Active; 'I' for Inactive)
REMARK    1  A    between atoms: S_1  and  N_7
REMARK    2  A    between atoms: S_1  and  C_21
REMARK    3  A    between atoms: S_2  and  C_32
REMARK    4  A    between atoms: S_2  and  C_34
REMARK    5  A    between atoms: N_9  and  C_31
REMARK    6  A    between atoms: C_17  and  C_22
REMARK    7  A    between atoms: C_33  and  C_35
REMARK                            x       y       z     vdW  Elec       q    Type
REMARK                         _______ _______ _______ _____ _____    ______ ____
ROOT
ATOM      5  O   UNL     1      19.508  -5.013  21.278  0.00  0.00    -0.268 OA
ATOM      7  N   UNL     1      18.911  -2.024  25.183  0.00  0.00    -0.176 NA
ATOM      8  N   UNL     1      18.226  -4.283  23.098  0.00  0.00    -0.311 N 
ATOM     10  C   UNL     1      17.352  -1.877  23.246  0.00  0.00    +0.025 C 
ATOM     11  C   UNL     1      16.886  -3.464  25.061  0.00  0.00    +0.053 C 
ATOM     12  C   UNL     1      16.238  -2.488  24.081  0.00  0.00    +0.017 C 
ATOM     13  C   UNL     1      18.351  -1.123  24.137  0.00  0.00    +0.114 C 
ATOM     14  C   UNL     1      17.848  -2.695  25.987  0.00  0.00    +0.119 C 
ATOM     15  C   UNL     1      18.020  -2.988  22.435  0.00  0.00    +0.130 C 
ATOM     16  C   UNL     1      17.619  -4.592  24.331  0.00  0.00    +0.034 A 
ATOM     17  C   UNL     1      17.716  -5.851  24.836  0.00  0.00    +0.002 A 
ATOM     18  C   UNL     1      18.969  -5.225  22.366  0.00  0.00    +0.252 A 
ATOM     19  C   UNL     1      18.478  -6.849  24.109  0.00  0.00    +0.015 A 
ATOM     20  C   UNL     1      19.088  -6.579  22.956  0.00  0.00    +0.071 A 
ENDROOT
BRANCH  17  22
ATOM     22  C   UNL     1      17.078  -6.229  26.116  0.00  0.00    -0.016 A 
ATOM     25  C   UNL     1      15.793  -6.764  26.117  0.00  0.00    +0.009 A 
ATOM     26  C   UNL     1      17.767  -6.045  27.311  0.00  0.00    +0.009 A 
ATOM     29  C   UNL     1      15.192  -7.118  27.324  0.00  0.00    +0.015 A 
ATOM     30  C   UNL     1      17.165  -6.400  28.518  0.00  0.00    +0.015 A 
ATOM     32  C   UNL     1      15.878  -6.936  28.525  0.00  0.00    +0.008 A 
BRANCH  32   2
ATOM      2  S   UNL     1      15.110  -7.390  30.068  0.00  0.00    -0.129 S 
ATOM     34  C   UNL     1      14.197  -5.878  30.484  0.00  0.00    +0.090 C 
ENDBRANCH  32   2
ENDBRANCH  17  22
BRANCH   7   1
ATOM      1  S   UNL     1      20.230  -1.396  26.074  0.00  0.00    +0.061 S 
ATOM      3  O   UNL     1      19.909  -1.435  27.485  0.00  0.00    -0.153 OA
ATOM      4  O   UNL     1      20.682  -0.173  25.446  0.00  0.00    -0.153 OA
BRANCH   1  21
ATOM     21  C   UNL     1      21.437  -2.646  25.761  0.00  0.00    +0.106 A 
ATOM     23  C   UNL     1      22.744  -2.444  26.174  0.00  0.00    +0.030 A 
ATOM     24  C   UNL     1      21.057  -3.806  25.109  0.00  0.00    +0.030 A 
ATOM     27  C   UNL     1      23.698  -3.431  25.926  0.00  0.00    +0.025 A 
ATOM     28  C   UNL     1      22.012  -4.794  24.862  0.00  0.00    +0.025 A 
ATOM     31  C   UNL     1      23.332  -4.606  25.271  0.00  0.00    +0.033 A 
BRANCH  31   9
ATOM      6  O   UNL     1      25.831  -4.532  23.594  0.00  0.00    -0.276 OA
ATOM      9  N   UNL     1      24.286  -5.594  25.024  0.00  0.00    -0.286 N 
ATOM     33  C   UNL     1      25.437  -5.504  24.229  0.00  0.00    +0.214 C 
ATOM     35  C   UNL     1      26.211  -6.798  24.220  0.00  0.00    +0.109 C 
ATOM     36  H   UNL     1      24.117  -6.486  25.484  0.00  0.00    +0.155 HD
ENDBRANCH  31   9
ENDBRANCH   1  21
ENDBRANCH   7   1
TORSDOF 5
ENDMDL
MODEL 6
REMARK VINA RESULT:      -6.7     28.313     31.662
REMARK  Name = 7144237
REMARK  7 active torsions:
REMARK  status: ('A' for Active; 'I' for Inactive)
REMARK    1  A    between atoms: S_1  and  N_7
REMARK    2  A    between atoms: S_1  and  C_21
REMARK    3  A    between atoms: S_2  and  C_32
REMARK    4  A    between atoms: S_2  and  C_34
REMARK    5  A    between atoms: N_9  and  C_31
REMARK    6  A    between atoms: C_17  and  C_22
REMARK    7  A    between atoms: C_33  and  C_35
REMARK                            x       y       z     vdW  Elec       q    Type
REMARK                         _______ _______ _______ _____ _____    ______ ____
ROOT
ATOM      5  O   UNL     1     -10.607   8.080  17.936  0.00  0.00    -0.268 OA
ATOM      7  N   UNL     1     -14.857  10.486  18.761  0.00  0.00    -0.176 NA
ATOM      8  N   UNL     1     -12.895   8.044  18.439  0.00  0.00    -0.311 N 
ATOM     10  C   UNL     1     -14.644   8.960  16.804  0.00  0.00    +0.025 C 
ATOM     11  C   UNL     1     -15.350   8.057  18.975  0.00  0.00    +0.053 C 
ATOM     12  C   UNL     1     -15.576   7.959  17.467  0.00  0.00    +0.017 C 
ATOM     13  C   UNL     1     -14.951  10.389  17.277  0.00  0.00    +0.114 C 
ATOM     14  C   UNL     1     -15.710   9.477  19.454  0.00  0.00    +0.119 C 
ATOM     15  C   UNL     1     -13.200   8.550  17.094  0.00  0.00    +0.130 C 
ATOM     16  C   UNL     1     -13.910   7.703  19.354  0.00  0.00    +0.034 A 
ATOM     17  C   UNL     1     -13.588   7.102  20.529  0.00  0.00    +0.002 A 
ATOM     18  C   UNL     1     -11.533   7.815  18.704  0.00  0.00    +0.252 A 
ATOM     19  C   UNL     1     -12.192   6.853  20.839  0.00  0.00    +0.015 A 
ATOM     20  C   UNL     1     -11.207   7.190  20.007  0.00  0.00    +0.071 A 
ENDROOT
BRANCH  17  22
ATOM     22  C   UNL     1     -14.620   6.707  21.512  0.00  0.00    -0.016 A 
ATOM     25  C   UNL     1     -14.965   7.579  22.540  0.00  0.00    +0.009 A 
ATOM     26  C   UNL     1     -15.239   5.465  21.402  0.00  0.00    +0.009 A 
ATOM     29  C   UNL     1     -15.938   7.206  23.468  0.00  0.00    +0.015 A 
ATOM     30  C   UNL     1     -16.211   5.092  22.330  0.00  0.00    +0.015 A 
ATOM     32  C   UNL     1     -16.561   5.962  23.362  0.00  0.00    +0.008 A 
BRANCH  32   2
ATOM      2  S   UNL     1     -17.804   5.485  24.547  0.00  0.00    -0.129 S 
ATOM     34  C   UNL     1     -16.832   4.514  25.732  0.00  0.00    +0.090 C 
ENDBRANCH  32   2
ENDBRANCH  17  22
BRANCH   7   1
ATOM      1  S   UNL     1     -14.910  12.070  19.405  0.00  0.00    +0.061 S 
ATOM      3  O   UNL     1     -16.266  12.370  19.814  0.00  0.00    -0.153 OA
ATOM      4  O   UNL     1     -14.183  12.961  18.527  0.00  0.00    -0.153 OA
BRANCH   1  21
ATOM     21  C   UNL     1     -13.946  11.842  20.867  0.00  0.00    +0.106 A 
ATOM     23  C   UNL     1     -12.938  10.892  20.872  0.00  0.00    +0.030 A 
ATOM     24  C   UNL     1     -14.215  12.615  21.983  0.00  0.00    +0.030 A 
ATOM     27  C   UNL     1     -12.176  10.710  22.027  0.00  0.00    +0.025 A 
ATOM     28  C   UNL     1     -13.452  12.434  23.139  0.00  0.00    +0.025 A 
ATOM     31  C   UNL     1     -12.434  11.482  23.160  0.00  0.00    +0.033 A 
BRANCH  31   9
ATOM      6  O   UNL     1     -13.152  10.219  25.796  0.00  0.00    -0.276 OA
ATOM      9  N   UNL     1     -11.672  11.301  24.315  0.00  0.00    -0.286 N 
ATOM     33  C   UNL     1     -12.060  10.703  25.521  0.00  0.00    +0.214 C 
ATOM     35  C   UNL     1     -10.938  10.702  26.529  0.00  0.00    +0.109 C 
ATOM     36  H   UNL     1     -10.716  11.648  24.264  0.00  0.00    +0.155 HD
ENDBRANCH  31   9
ENDBRANCH   1  21
ENDBRANCH   7   1
TORSDOF 5
ENDMDL
MODEL 7
REMARK VINA RESULT:      -6.7      4.050      5.618
REMARK  Name = 7144237
REMARK  7 active torsions:
REMARK  status: ('A' for Active; 'I' for Inactive)
REMARK    1  A    between atoms: S_1  and  N_7
REMARK    2  A    between atoms: S_1  and  C_21
REMARK    3  A    between atoms: S_2  and  C_32
REMARK    4  A    between atoms: S_2  and  C_34
REMARK    5  A    between atoms: N_9  and  C_31
REMARK    6  A    between atoms: C_17  and  C_22
REMARK    7  A    between atoms: C_33  and  C_35
REMARK                            x       y       z     vdW  Elec       q    Type
REMARK                         _______ _______ _______ _____ _____    ______ ____
ROOT
ATOM      5  O   UNL     1      10.750   5.713   8.666  0.00  0.00    -0.268 OA
ATOM      7  N   UNL     1      11.786   9.272   5.382  0.00  0.00    -0.176 NA
ATOM      8  N   UNL     1      11.677   6.379   6.621  0.00  0.00    -0.311 N 
ATOM     10  C   UNL     1      13.632   8.036   6.508  0.00  0.00    +0.025 C 
ATOM     11  C   UNL     1      12.661   7.143   4.437  0.00  0.00    +0.053 C 
ATOM     12  C   UNL     1      13.968   7.326   5.207  0.00  0.00    +0.017 C 
ATOM     13  C   UNL     1      13.001   9.409   6.234  0.00  0.00    +0.114 C 
ATOM     14  C   UNL     1      12.058   8.525   4.119  0.00  0.00    +0.119 C 
ATOM     15  C   UNL     1      12.718   7.131   7.336  0.00  0.00    +0.130 C 
ATOM     16  C   UNL     1      11.664   6.281   5.216  0.00  0.00    +0.034 A 
ATOM     17  C   UNL     1      10.773   5.456   4.604  0.00  0.00    +0.002 A 
ATOM     18  C   UNL     1      10.773   5.675   7.435  0.00  0.00    +0.252 A 
ATOM     19  C   UNL     1       9.822   4.717   5.412  0.00  0.00    +0.015 A 
ATOM     20  C   UNL     1       9.791   4.811   6.740  0.00  0.00    +0.071 A 
ENDROOT
BRANCH  17  22
ATOM     22  C   UNL     1      10.735   5.304   3.133  0.00  0.00    -0.016 A 
ATOM     25  C   UNL     1      11.508   4.324   2.519  0.00  0.00    +0.009 A 
ATOM     26  C   UNL     1       9.925   6.144   2.373  0.00  0.00    +0.009 A 
ATOM     29  C   UNL     1      11.473   4.181   1.132  0.00  0.00    +0.015 A 
ATOM     30  C   UNL     1       9.890   6.001   0.986  0.00  0.00    +0.015 A 
ATOM     32  C   UNL     1      10.664   5.021   0.366  0.00  0.00    +0.008 A 
BRANCH  32   2
ATOM      2  S   UNL     1      10.618   4.839  -1.407  0.00  0.00    -0.129 S 
ATOM     34  C   UNL     1       9.138   5.795  -1.838  0.00  0.00    +0.090 C 
ENDBRANCH  32   2
ENDBRANCH  17  22
BRANCH   7   1
ATOM      1  S   UNL     1      10.833  10.683   5.218  0.00  0.00    +0.061 S 
ATOM      3  O   UNL     1       9.581  10.337   4.578  0.00  0.00    -0.153 OA
ATOM      4  O   UNL     1      11.660  11.755   4.706  0.00  0.00    -0.153 OA
BRANCH   1  21
ATOM     21  C   UNL     1      10.492  11.024   6.917  0.00  0.00    +0.106 A 
ATOM     23  C   UNL     1      10.998  12.179   7.491  0.00  0.00    +0.030 A 
ATOM     24  C   UNL     1       9.726  10.131   7.646  0.00  0.00    +0.030 A 
ATOM     27  C   UNL     1      10.729  12.448   8.834  0.00  0.00    +0.025 A 
ATOM     28  C   UNL     1       9.456  10.400   8.989  0.00  0.00    +0.025 A 
ATOM     31  C   UNL     1       9.958  11.559   9.582  0.00  0.00    +0.033 A 
BRANCH  31   9
ATOM      6  O   UNL     1       7.633  12.978  10.864  0.00  0.00    -0.276 OA
ATOM      9  N   UNL     1       9.689  11.828  10.925  0.00  0.00    -0.286 N 
ATOM     33  C   UNL     1       8.585  12.497  11.468  0.00  0.00    +0.214 C 
ATOM     35  C   UNL     1       8.668  12.582  12.971  0.00  0.00    +0.109 C 
ATOM     36  H   UNL     1      10.389  11.490  11.583  0.00  0.00    +0.155 HD
ENDBRANCH  31   9
ENDBRANCH   1  21
ENDBRANCH   7   1
TORSDOF 5
ENDMDL
MODEL 8
REMARK VINA RESULT:      -6.6      2.777      7.339
REMARK  Name = 7144237
REMARK  7 active torsions:
REMARK  status: ('A' for Active; 'I' for Inactive)
REMARK    1  A    between atoms: S_1  and  N_7
REMARK    2  A    between atoms: S_1  and  C_21
REMARK    3  A    between atoms: S_2  and  C_32
REMARK    4  A    between atoms: S_2  and  C_34
REMARK    5  A    between atoms: N_9  and  C_31
REMARK    6  A    between atoms: C_17  and  C_22
REMARK    7  A    between atoms: C_33  and  C_35
REMARK                            x       y       z     vdW  Elec       q    Type
REMARK                         _______ _______ _______ _____ _____    ______ ____
ROOT
ATOM      5  O   UNL     1       8.832   6.732   8.694  0.00  0.00    -0.268 OA
ATOM      7  N   UNL     1       9.349   9.777   4.822  0.00  0.00    -0.176 NA
ATOM      8  N   UNL     1      10.120   8.261   7.472  0.00  0.00    -0.311 N 
ATOM     10  C   UNL     1       9.366  10.689   7.140  0.00  0.00    +0.025 C 
ATOM     11  C   UNL     1      11.463   9.907   6.129  0.00  0.00    +0.053 C 
ATOM     12  C   UNL     1      10.854  10.982   7.028  0.00  0.00    +0.017 C 
ATOM     13  C   UNL     1       8.695  10.733   5.759  0.00  0.00    +0.114 C 
ATOM     14  C   UNL     1      10.823   9.989   4.729  0.00  0.00    +0.119 C 
ATOM     15  C   UNL     1       9.186   9.336   7.830  0.00  0.00    +0.130 C 
ATOM     16  C   UNL     1      11.288   8.508   6.725  0.00  0.00    +0.034 A 
ATOM     17  C   UNL     1      12.198   7.515   6.542  0.00  0.00    +0.002 A 
ATOM     18  C   UNL     1       9.830   7.000   8.022  0.00  0.00    +0.252 A 
ATOM     19  C   UNL     1      11.930   6.199   7.092  0.00  0.00    +0.015 A 
ATOM     20  C   UNL     1      10.821   5.926   7.778  0.00  0.00    +0.071 A 
ENDROOT
BRANCH  17  22
ATOM     22  C   UNL     1      13.449   7.732   5.783  0.00  0.00    -0.016 A 
ATOM     25  C   UNL     1      13.497   7.423   4.427  0.00  0.00    +0.009 A 
ATOM     26  C   UNL     1      14.569   8.244   6.430  0.00  0.00    +0.009 A 
ATOM     29  C   UNL     1      14.676   7.626   3.712  0.00  0.00    +0.015 A 
ATOM     30  C   UNL     1      15.749   8.448   5.715  0.00  0.00    +0.015 A 
ATOM     32  C   UNL     1      15.803   8.139   4.356  0.00  0.00    +0.008 A 
BRANCH  32   2
ATOM      2  S   UNL     1      17.311   8.400   3.442  0.00  0.00    -0.129 S 
ATOM     34  C   UNL     1      18.544   8.451   4.772  0.00  0.00    +0.090 C 
ENDBRANCH  32   2
ENDBRANCH  17  22
BRANCH   7   1
ATOM      1  S   UNL     1       8.541   9.525   3.335  0.00  0.00    +0.061 S 
ATOM      3  O   UNL     1       8.897  10.587   2.417  0.00  0.00    -0.153 OA
ATOM      4  O   UNL     1       7.155   9.203   3.601  0.00  0.00    -0.153 OA
BRANCH   1  21
ATOM     21  C   UNL     1       9.347   8.051   2.791  0.00  0.00    +0.106 A 
ATOM     23  C   UNL     1       9.618   7.049   3.709  0.00  0.00    +0.030 A 
ATOM     24  C   UNL     1       9.696   7.922   1.458  0.00  0.00    +0.030 A 
ATOM     27  C   UNL     1      10.255   5.885   3.280  0.00  0.00    +0.025 A 
ATOM     28  C   UNL     1      10.333   6.757   1.028  0.00  0.00    +0.025 A 
ATOM     31  C   UNL     1      10.612   5.739   1.940  0.00  0.00    +0.033 A 
BRANCH  31   9
ATOM      6  O   UNL     1      13.542   5.076   1.735  0.00  0.00    -0.276 OA
ATOM      9  N   UNL     1      11.250   4.574   1.511  0.00  0.00    -0.286 N 
ATOM     33  C   UNL     1      12.625   4.319   1.435  0.00  0.00    +0.214 C 
ATOM     35  C   UNL     1      12.909   2.931   0.917  0.00  0.00    +0.109 C 
ATOM     36  H   UNL     1      10.629   3.821   1.220  0.00  0.00    +0.155 HD
ENDBRANCH  31   9
ENDBRANCH   1  21
ENDBRANCH   7   1
TORSDOF 5
ENDMDL
MODEL 9
REMARK VINA RESULT:      -6.5      3.714      7.089
REMARK  Name = 7144237
REMARK  7 active torsions:
REMARK  status: ('A' for Active; 'I' for Inactive)
REMARK    1  A    between atoms: S_1  and  N_7
REMARK    2  A    between atoms: S_1  and  C_21
REMARK    3  A    between atoms: S_2  and  C_32
REMARK    4  A    between atoms: S_2  and  C_34
REMARK    5  A    between atoms: N_9  and  C_31
REMARK    6  A    between atoms: C_17  and  C_22
REMARK    7  A    between atoms: C_33  and  C_35
REMARK                            x       y       z     vdW  Elec       q    Type
REMARK                         _______ _______ _______ _____ _____    ______ ____
ROOT
ATOM      5  O   UNL     1      10.351   9.207  -0.376  0.00  0.00    -0.268 OA
ATOM      7  N   UNL     1      13.256   5.476   1.098  0.00  0.00    -0.176 NA
ATOM      8  N   UNL     1      11.499   8.080   1.327  0.00  0.00    -0.311 N 
ATOM     10  C   UNL     1      14.051   7.829   1.289  0.00  0.00    +0.025 C 
ATOM     11  C   UNL     1      12.749   6.836   3.119  0.00  0.00    +0.053 C 
ATOM     12  C   UNL     1      13.921   7.764   2.802  0.00  0.00    +0.017 C 
ATOM     13  C   UNL     1      14.326   6.436   0.703  0.00  0.00    +0.114 C 
ATOM     14  C   UNL     1      13.052   5.427   2.575  0.00  0.00    +0.119 C 
ATOM     15  C   UNL     1      12.781   8.460   0.716  0.00  0.00    +0.130 C 
ATOM     16  C   UNL     1      11.436   7.371   2.543  0.00  0.00    +0.034 A 
ATOM     17  C   UNL     1      10.234   7.169   3.146  0.00  0.00    +0.002 A 
ATOM     18  C   UNL     1      10.352   8.571   0.679  0.00  0.00    +0.252 A 
ATOM     19  C   UNL     1       9.028   7.658   2.505  0.00  0.00    +0.015 A 
ATOM     20  C   UNL     1       9.053   8.306   1.341  0.00  0.00    +0.071 A 
ENDROOT
BRANCH  17  22
ATOM     22  C   UNL     1      10.120   6.449   4.433  0.00  0.00    -0.016 A 
ATOM     25  C   UNL     1      10.198   7.156   5.629  0.00  0.00    +0.009 A 
ATOM     26  C   UNL     1       9.935   5.070   4.438  0.00  0.00    +0.009 A 
ATOM     29  C   UNL     1      10.092   6.477   6.843  0.00  0.00    +0.015 A 
ATOM     30  C   UNL     1       9.828   4.391   5.652  0.00  0.00    +0.015 A 
ATOM     32  C   UNL     1       9.907   5.094   6.854  0.00  0.00    +0.008 A 
BRANCH  32   2
ATOM      2  S   UNL     1       9.770   4.225   8.404  0.00  0.00    -0.129 S 
ATOM     34  C   UNL     1       8.984   5.474   9.460  0.00  0.00    +0.090 C 
ENDBRANCH  32   2
ENDBRANCH  17  22
BRANCH   7   1
ATOM      1  S   UNL     1      13.289   3.962   0.302  0.00  0.00    +0.061 S 
ATOM      3  O   UNL     1      12.916   2.925   1.242  0.00  0.00    -0.153 OA
ATOM      4  O   UNL     1      14.507   3.863  -0.473  0.00  0.00    -0.153 OA
BRANCH   1  21
ATOM     21  C   UNL     1      11.944   4.176  -0.823  0.00  0.00    +0.106 A 
ATOM     23  C   UNL     1      11.917   3.438  -1.995  0.00  0.00    +0.030 A 
ATOM     24  C   UNL     1      10.941   5.079  -0.515  0.00  0.00    +0.030 A 
ATOM     27  C   UNL     1      10.856   3.607  -2.884  0.00  0.00    +0.025 A 
ATOM     28  C   UNL     1       9.878   5.248  -1.405  0.00  0.00    +0.025 A 
ATOM     31  C   UNL     1       9.837   4.512  -2.588  0.00  0.00    +0.033 A 
BRANCH  31   9
ATOM      6  O   UNL     1       9.324   6.662  -4.633  0.00  0.00    -0.276 OA
ATOM      9  N   UNL     1       8.775   4.681  -3.478  0.00  0.00    -0.286 N 
ATOM     33  C   UNL     1       8.586   5.708  -4.413  0.00  0.00    +0.214 C 
ATOM     35  C   UNL     1       7.305   5.528  -5.188  0.00  0.00    +0.109 C 
ATOM     36  H   UNL     1       8.054   3.964  -3.436  0.00  0.00    +0.155 HD
ENDBRANCH  31   9
ENDBRANCH   1  21
ENDBRANCH   7   1
TORSDOF 5
ENDMDL
MODEL 10
REMARK VINA RESULT:      -6.4     26.429     30.103
REMARK  Name = 7144237
REMARK  7 active torsions:
REMARK  status: ('A' for Active; 'I' for Inactive)
REMARK    1  A    between atoms: S_1  and  N_7
REMARK    2  A    between atoms: S_1  and  C_21
REMARK    3  A    between atoms: S_2  and  C_32
REMARK    4  A    between atoms: S_2  and  C_34
REMARK    5  A    between atoms: N_9  and  C_31
REMARK    6  A    between atoms: C_17  and  C_22
REMARK    7  A    between atoms: C_33  and  C_35
REMARK                            x       y       z     vdW  Elec       q    Type
REMARK                         _______ _______ _______ _____ _____    ______ ____
ROOT
ATOM      5  O   UNL     1     -10.567  12.994  17.407  0.00  0.00    -0.268 OA
ATOM      7  N   UNL     1     -13.366   9.365  15.528  0.00  0.00    -0.176 NA
ATOM      8  N   UNL     1     -11.164  10.731  17.319  0.00  0.00    -0.311 N 
ATOM     10  C   UNL     1     -10.901   9.355  15.171  0.00  0.00    +0.025 C 
ATOM     11  C   UNL     1     -11.839   8.313  17.187  0.00  0.00    +0.053 C 
ATOM     12  C   UNL     1     -10.755   8.175  16.118  0.00  0.00    +0.017 C 
ATOM     13  C   UNL     1     -12.284   9.353  14.503  0.00  0.00    +0.114 C 
ATOM     14  C   UNL     1     -13.226   8.258  16.518  0.00  0.00    +0.119 C 
ATOM     15  C   UNL     1     -10.634  10.643  15.951  0.00  0.00    +0.130 C 
ATOM     16  C   UNL     1     -11.674   9.603  17.993  0.00  0.00    +0.034 A 
ATOM     17  C   UNL     1     -12.016   9.698  19.305  0.00  0.00    +0.002 A 
ATOM     18  C   UNL     1     -11.019  11.982  17.944  0.00  0.00    +0.252 A 
ATOM     19  C   UNL     1     -11.885  10.974  19.982  0.00  0.00    +0.015 A 
ATOM     20  C   UNL     1     -11.433  12.064  19.364  0.00  0.00    +0.071 A 
ENDROOT
BRANCH  17  22
ATOM     22  C   UNL     1     -12.537   8.537  20.060  0.00  0.00    -0.016 A 
ATOM     25  C   UNL     1     -11.662   7.545  20.492  0.00  0.00    +0.009 A 
ATOM     26  C   UNL     1     -13.899   8.444  20.332  0.00  0.00    +0.009 A 
ATOM     29  C   UNL     1     -12.152   6.450  21.202  0.00  0.00    +0.015 A 
ATOM     30  C   UNL     1     -14.390   7.348  21.042  0.00  0.00    +0.015 A 
ATOM     32  C   UNL     1     -13.517   6.352  21.477  0.00  0.00    +0.008 A 
BRANCH  32   2
ATOM      2  S   UNL     1     -14.145   4.952  22.385  0.00  0.00    -0.129 S 
ATOM     34  C   UNL     1     -15.488   5.707  23.344  0.00  0.00    +0.090 C 
ENDBRANCH  32   2
ENDBRANCH  17  22
BRANCH   7   1
ATOM      1  S   UNL     1     -14.947   9.634  14.934  0.00  0.00    +0.061 S 
ATOM      3  O   UNL     1     -14.994   9.274  13.532  0.00  0.00    -0.153 OA
ATOM      4  O   UNL     1     -15.407  10.929  15.385  0.00  0.00    -0.153 OA
BRANCH   1  21
ATOM     21  C   UNL     1     -15.830   8.398  15.836  0.00  0.00    +0.106 A 
ATOM     23  C   UNL     1     -16.204   8.653  17.146  0.00  0.00    +0.030 A 
ATOM     24  C   UNL     1     -16.132   7.196  15.220  0.00  0.00    +0.030 A 
ATOM     27  C   UNL     1     -16.900   7.677  17.859  0.00  0.00    +0.025 A 
ATOM     28  C   UNL     1     -16.830   6.220  15.933  0.00  0.00    +0.025 A 
ATOM     31  C   UNL     1     -17.213   6.461  17.252  0.00  0.00    +0.033 A 
BRANCH  31   9
ATOM      6  O   UNL     1     -16.416   4.877  19.685  0.00  0.00    -0.276 OA
ATOM      9  N   UNL     1     -17.910   5.485  17.966  0.00  0.00    -0.286 N 
ATOM     33  C   UNL     1     -17.488   4.775  19.097  0.00  0.00    +0.214 C 
ATOM     35  C   UNL     1     -18.540   3.804  19.572  0.00  0.00    +0.109 C 
ATOM     36  H   UNL     1     -18.841   5.270  17.613  0.00  0.00    +0.155 HD
ENDBRANCH  31   9
ENDBRANCH   1  21
ENDBRANCH   7   1
TORSDOF 5
ENDMDL
