MODEL 1
REMARK VINA RESULT:      -6.9      0.000      0.000
REMARK  Name = 11867232
REMARK  4 active torsions:
REMARK  status: ('A' for Active; 'I' for Inactive)
REMARK    1  A    between atoms: S_1  and  N_8
REMARK    2  A    between atoms: S_1  and  C_24
REMARK    3  A    between atoms: N_8  and  C_20
REMARK    4  A    between atoms: C_19  and  C_22
REMARK                            x       y       z     vdW  Elec       q    Type
REMARK                         _______ _______ _______ _____ _____    ______ ____
ROOT
ATOM      2  O   UNL     1      -6.461  -9.633  13.718  0.00  0.00    -0.266 OA
ATOM      3  O   UNL     1      -5.366 -14.568  12.580  0.00  0.00    -0.268 OA
ATOM      6  N   UNL     1      -3.337 -13.444  12.888  0.00  0.00    -0.295 N 
ATOM      7  N   UNL     1      -4.302 -10.542  13.726  0.00  0.00    -0.310 N 
ATOM     10  C   UNL     1      -3.109 -11.325  11.601  0.00  0.00    +0.027 C 
ATOM     11  C   UNL     1      -1.996 -11.558  13.786  0.00  0.00    +0.054 C 
ATOM     12  C   UNL     1      -1.831 -11.006  12.370  0.00  0.00    +0.018 C 
ATOM     13  C   UNL     1      -3.340 -12.846  11.552  0.00  0.00    +0.113 C 
ATOM     14  C   UNL     1      -4.279 -10.584  12.258  0.00  0.00    +0.130 C 
ATOM     15  C   UNL     1      -2.181 -13.087  13.725  0.00  0.00    +0.117 C 
ATOM     16  C   UNL     1      -3.186 -10.925  14.483  0.00  0.00    +0.027 A 
ATOM     17  C   UNL     1      -3.183 -10.773  15.820  0.00  0.00    +0.024 A 
ATOM     18  C   UNL     1      -5.459 -10.003  14.328  0.00  0.00    +0.274 A 
ATOM     19  C   UNL     1      -4.397 -14.267  13.276  0.00  0.00    +0.265 C 
ATOM     20  C   UNL     1      -5.404  -9.882  15.806  0.00  0.00    +0.112 A 
ATOM     21  C   UNL     1      -4.326 -10.236  16.508  0.00  0.00    +0.031 A 
ENDROOT
BRANCH  19  22
ATOM      9  N   UNL     1      -3.768 -16.006  14.775  0.00  0.00    -0.250 NA
ATOM     22  C   UNL     1      -4.382 -14.812  14.637  0.00  0.00    +0.126 A 
ATOM     23  C   UNL     1      -4.971 -14.109  15.672  0.00  0.00    +0.033 A 
ATOM     25  C   UNL     1      -4.929 -14.673  16.942  0.00  0.00    +0.004 A 
ATOM     26  C   UNL     1      -3.747 -16.522  16.025  0.00  0.00    +0.111 A 
ATOM     27  C   UNL     1      -4.307 -15.903  17.130  0.00  0.00    +0.020 A 
ENDBRANCH  19  22
BRANCH  20   8
ATOM      8  N   UNL     1      -6.506  -9.372  16.516  0.00  0.00    -0.211 N 
ATOM     33  H   UNL     1      -6.325  -8.444  16.922  0.00  0.00    +0.174 HD
BRANCH   8   1
ATOM      1  S   UNL     1      -7.325 -10.442  17.542  0.00  0.00    +0.072 S 
ATOM      4  O   UNL     1      -7.431 -11.742  16.908  0.00  0.00    -0.150 OA
ATOM      5  O   UNL     1      -6.797 -10.326  18.889  0.00  0.00    -0.150 OA
BRANCH   1  24
ATOM     24  C   UNL     1      -8.940  -9.723  17.544  0.00  0.00    +0.108 A 
ATOM     28  C   UNL     1      -9.966 -10.370  18.211  0.00  0.00    +0.029 A 
ATOM     29  C   UNL     1      -9.148  -8.528  16.878  0.00  0.00    +0.029 A 
ATOM     30  C   UNL     1     -11.240  -9.803  18.214  0.00  0.00    +0.002 A 
ATOM     31  C   UNL     1     -10.423  -7.961  16.881  0.00  0.00    +0.002 A 
ATOM     32  C   UNL     1     -11.468  -8.598  17.549  0.00  0.00    +0.000 A 
ENDBRANCH   1  24
ENDBRANCH   8   1
ENDBRANCH  20   8
TORSDOF 4
ENDMDL
MODEL 2
REMARK VINA RESULT:      -6.6     24.757     28.304
REMARK  Name = 11867232
REMARK  4 active torsions:
REMARK  status: ('A' for Active; 'I' for Inactive)
REMARK    1  A    between atoms: S_1  and  N_8
REMARK    2  A    between atoms: S_1  and  C_24
REMARK    3  A    between atoms: N_8  and  C_20
REMARK    4  A    between atoms: C_19  and  C_22
REMARK                            x       y       z     vdW  Elec       q    Type
REMARK                         _______ _______ _______ _____ _____    ______ ____
ROOT
ATOM      2  O   UNL     1      12.815   7.786   1.957  0.00  0.00    -0.266 OA
ATOM      3  O   UNL     1      13.588   6.734   6.971  0.00  0.00    -0.268 OA
ATOM      6  N   UNL     1      12.065   8.505   6.845  0.00  0.00    -0.295 N 
ATOM      7  N   UNL     1      11.656   8.813   3.715  0.00  0.00    -0.310 N 
ATOM     10  C   UNL     1      12.774  10.395   5.388  0.00  0.00    +0.027 C 
ATOM     11  C   UNL     1      10.382   9.859   5.622  0.00  0.00    +0.054 C 
ATOM     12  C   UNL     1      11.384  11.008   5.522  0.00  0.00    +0.018 C 
ATOM     13  C   UNL     1      13.094   9.518   6.613  0.00  0.00    +0.113 C 
ATOM     14  C   UNL     1      12.841   9.602   4.078  0.00  0.00    +0.130 C 
ATOM     15  C   UNL     1      10.685   9.016   6.876  0.00  0.00    +0.117 C 
ATOM     16  C   UNL     1      10.437   8.978   4.387  0.00  0.00    +0.027 A 
ATOM     17  C   UNL     1       9.334   8.331   3.970  0.00  0.00    +0.024 A 
ATOM     18  C   UNL     1      11.780   7.960   2.597  0.00  0.00    +0.274 A 
ATOM     19  C   UNL     1      12.438   7.168   6.997  0.00  0.00    +0.265 C 
ATOM     20  C   UNL     1      10.534   7.257   2.200  0.00  0.00    +0.112 A 
ATOM     21  C   UNL     1       9.380   7.441   2.841  0.00  0.00    +0.031 A 
ENDROOT
BRANCH  19  22
ATOM      9  N   UNL     1      11.124   5.828   8.463  0.00  0.00    -0.250 NA
ATOM     22  C   UNL     1      11.375   6.174   7.183  0.00  0.00    +0.126 A 
ATOM     23  C   UNL     1      10.707   5.659   6.088  0.00  0.00    +0.033 A 
ATOM     25  C   UNL     1       9.710   4.720   6.322  0.00  0.00    +0.004 A 
ATOM     26  C   UNL     1      10.147   4.912   8.651  0.00  0.00    +0.111 A 
ATOM     27  C   UNL     1       9.418   4.333   7.625  0.00  0.00    +0.020 A 
ENDBRANCH  19  22
BRANCH  20   8
ATOM      8  N   UNL     1      10.541   6.369   1.109  0.00  0.00    -0.211 N 
ATOM     33  H   UNL     1       9.819   6.590   0.409  0.00  0.00    +0.174 HD
BRANCH   8   1
ATOM      1  S   UNL     1      10.702   4.720   1.458  0.00  0.00    +0.072 S 
ATOM      4  O   UNL     1      10.712   4.523   2.895  0.00  0.00    -0.150 OA
ATOM      5  O   UNL     1       9.798   3.953   0.621  0.00  0.00    -0.150 OA
BRANCH   1  24
ATOM     24  C   UNL     1      12.344   4.420   0.872  0.00  0.00    +0.108 A 
ATOM     28  C   UNL     1      12.679   4.794  -0.417  0.00  0.00    +0.029 A 
ATOM     29  C   UNL     1      13.261   3.815   1.714  0.00  0.00    +0.029 A 
ATOM     30  C   UNL     1      13.974   4.557  -0.879  0.00  0.00    +0.002 A 
ATOM     31  C   UNL     1      14.556   3.578   1.252  0.00  0.00    +0.002 A 
ATOM     32  C   UNL     1      14.912   3.950  -0.045  0.00  0.00    +0.000 A 
ENDBRANCH   1  24
ENDBRANCH   8   1
ENDBRANCH  20   8
TORSDOF 4
ENDMDL
MODEL 3
REMARK VINA RESULT:      -6.6     25.372     28.524
REMARK  Name = 11867232
REMARK  4 active torsions:
REMARK  status: ('A' for Active; 'I' for Inactive)
REMARK    1  A    between atoms: S_1  and  N_8
REMARK    2  A    between atoms: S_1  and  C_24
REMARK    3  A    between atoms: N_8  and  C_20
REMARK    4  A    between atoms: C_19  and  C_22
REMARK                            x       y       z     vdW  Elec       q    Type
REMARK                         _______ _______ _______ _____ _____    ______ ____
ROOT
ATOM      2  O   UNL     1       8.385   7.981   2.928  0.00  0.00    -0.266 OA
ATOM      3  O   UNL     1      11.733  10.179   6.215  0.00  0.00    -0.268 OA
ATOM      6  N   UNL     1      11.116   8.108   7.111  0.00  0.00    -0.295 N 
ATOM      7  N   UNL     1       9.231   6.935   4.846  0.00  0.00    -0.310 N 
ATOM     10  C   UNL     1       8.662   7.704   7.221  0.00  0.00    +0.027 C 
ATOM     11  C   UNL     1      10.202   5.811   6.883  0.00  0.00    +0.054 C 
ATOM     12  C   UNL     1       8.927   6.251   7.602  0.00  0.00    +0.018 C 
ATOM     13  C   UNL     1       9.844   8.595   7.645  0.00  0.00    +0.113 C 
ATOM     14  C   UNL     1       8.396   7.777   5.713  0.00  0.00    +0.130 C 
ATOM     15  C   UNL     1      11.386   6.681   7.350  0.00  0.00    +0.117 C 
ATOM     16  C   UNL     1      10.046   5.926   5.378  0.00  0.00    +0.027 A 
ATOM     17  C   UNL     1      10.716   5.090   4.564  0.00  0.00    +0.024 A 
ATOM     18  C   UNL     1       9.095   7.125   3.455  0.00  0.00    +0.274 A 
ATOM     19  C   UNL     1      11.953   8.986   6.418  0.00  0.00    +0.265 C 
ATOM     20  C   UNL     1       9.877   6.188   2.610  0.00  0.00    +0.112 A 
ATOM     21  C   UNL     1      10.633   5.222   3.134  0.00  0.00    +0.031 A 
ENDROOT
BRANCH  19  22
ATOM      9  N   UNL     1      14.287   8.577   6.647  0.00  0.00    -0.250 NA
ATOM     22  C   UNL     1      13.199   8.452   5.859  0.00  0.00    +0.126 A 
ATOM     23  C   UNL     1      13.202   7.871   4.604  0.00  0.00    +0.033 A 
ATOM     25  C   UNL     1      14.411   7.383   4.122  0.00  0.00    +0.004 A 
ATOM     26  C   UNL     1      15.444   8.090   6.144  0.00  0.00    +0.111 A 
ATOM     27  C   UNL     1      15.558   7.490   4.900  0.00  0.00    +0.020 A 
ENDBRANCH  19  22
BRANCH  20   8
ATOM      8  N   UNL     1       9.831   6.293   1.208  0.00  0.00    -0.211 N 
ATOM     33  H   UNL     1       9.540   5.418   0.751  0.00  0.00    +0.174 HD
BRANCH   8   1
ATOM      1  S   UNL     1      11.121   7.087   0.452  0.00  0.00    +0.072 S 
ATOM      4  O   UNL     1      10.743   7.459  -0.898  0.00  0.00    -0.150 OA
ATOM      5  O   UNL     1      11.681   8.077   1.353  0.00  0.00    -0.150 OA
BRANCH   1  24
ATOM     24  C   UNL     1      12.292   5.767   0.327  0.00  0.00    +0.108 A 
ATOM     28  C   UNL     1      11.936   4.612  -0.348  0.00  0.00    +0.029 A 
ATOM     29  C   UNL     1      13.539   5.913   0.908  0.00  0.00    +0.029 A 
ATOM     30  C   UNL     1      12.859   3.571  -0.446  0.00  0.00    +0.002 A 
ATOM     31  C   UNL     1      14.462   4.872   0.810  0.00  0.00    +0.002 A 
ATOM     32  C   UNL     1      14.121   3.701   0.132  0.00  0.00    +0.000 A 
ENDBRANCH   1  24
ENDBRANCH   8   1
ENDBRANCH  20   8
TORSDOF 4
ENDMDL
MODEL 4
REMARK VINA RESULT:      -6.6      2.662      7.207
REMARK  Name = 11867232
REMARK  4 active torsions:
REMARK  status: ('A' for Active; 'I' for Inactive)
REMARK    1  A    between atoms: S_1  and  N_8
REMARK    2  A    between atoms: S_1  and  C_24
REMARK    3  A    between atoms: N_8  and  C_20
REMARK    4  A    between atoms: C_19  and  C_22
REMARK                            x       y       z     vdW  Elec       q    Type
REMARK                         _______ _______ _______ _____ _____    ______ ____
ROOT
ATOM      2  O   UNL     1      -4.458 -14.048  16.733  0.00  0.00    -0.266 OA
ATOM      3  O   UNL     1      -9.485 -12.936  16.143  0.00  0.00    -0.268 OA
ATOM      6  N   UNL     1      -8.533 -11.247  17.453  0.00  0.00    -0.295 N 
ATOM      7  N   UNL     1      -5.475 -12.083  17.504  0.00  0.00    -0.310 N 
ATOM     10  C   UNL     1      -7.200 -12.053  19.395  0.00  0.00    +0.027 C 
ATOM     11  C   UNL     1      -6.580  -9.951  18.271  0.00  0.00    +0.054 C 
ATOM     12  C   UNL     1      -6.704 -10.631  19.634  0.00  0.00    +0.018 C 
ATOM     13  C   UNL     1      -8.567 -12.033  18.687  0.00  0.00    +0.113 C 
ATOM     14  C   UNL     1      -6.143 -12.816  18.588  0.00  0.00    +0.130 C 
ATOM     15  C   UNL     1      -7.963  -9.898  17.592  0.00  0.00    +0.117 C 
ATOM     16  C   UNL     1      -5.601 -10.693  17.379  0.00  0.00    +0.027 A 
ATOM     17  C   UNL     1      -4.893 -10.024  16.451  0.00  0.00    +0.024 A 
ATOM     18  C   UNL     1      -4.624 -12.832  16.663  0.00  0.00    +0.274 A 
ATOM     19  C   UNL     1      -9.007 -11.809  16.266  0.00  0.00    +0.265 C 
ATOM     20  C   UNL     1      -3.888 -12.041  15.645  0.00  0.00    +0.112 A 
ATOM     21  C   UNL     1      -4.008 -10.716  15.553  0.00  0.00    +0.031 A 
ENDROOT
BRANCH  19  22
ATOM      9  N   UNL     1     -10.017 -10.288  14.738  0.00  0.00    -0.250 NA
ATOM     22  C   UNL     1      -8.916 -11.007  15.041  0.00  0.00    +0.126 A 
ATOM     23  C   UNL     1      -7.759 -11.025  14.286  0.00  0.00    +0.033 A 
ATOM     25  C   UNL     1      -7.727 -10.247  13.134  0.00  0.00    +0.004 A 
ATOM     26  C   UNL     1      -9.949  -9.544  13.610  0.00  0.00    +0.111 A 
ATOM     27  C   UNL     1      -8.840  -9.490  12.782  0.00  0.00    +0.020 A 
ENDBRANCH  19  22
BRANCH  20   8
ATOM      8  N   UNL     1      -3.023 -12.683  14.741  0.00  0.00    -0.211 N 
ATOM     33  H   UNL     1      -2.097 -12.234  14.687  0.00  0.00    +0.174 HD
BRANCH   8   1
ATOM      1  S   UNL     1      -3.671 -13.141  13.246  0.00  0.00    +0.072 S 
ATOM      4  O   UNL     1      -2.937 -14.277  12.721  0.00  0.00    -0.150 OA
ATOM      5  O   UNL     1      -5.119 -13.185  13.335  0.00  0.00    -0.150 OA
BRANCH   1  24
ATOM     24  C   UNL     1      -3.247 -11.736  12.259  0.00  0.00    +0.108 A 
ATOM     28  C   UNL     1      -4.134 -11.299  11.291  0.00  0.00    +0.029 A 
ATOM     29  C   UNL     1      -2.035 -11.103  12.472  0.00  0.00    +0.029 A 
ATOM     30  C   UNL     1      -3.799 -10.191  10.512  0.00  0.00    +0.002 A 
ATOM     31  C   UNL     1      -1.700  -9.995  11.693  0.00  0.00    +0.002 A 
ATOM     32  C   UNL     1      -2.582  -9.540  10.714  0.00  0.00    +0.000 A 
ENDBRANCH   1  24
ENDBRANCH   8   1
ENDBRANCH  20   8
TORSDOF 4
ENDMDL
MODEL 5
REMARK VINA RESULT:      -6.6      2.735      7.401
REMARK  Name = 11867232
REMARK  4 active torsions:
REMARK  status: ('A' for Active; 'I' for Inactive)
REMARK    1  A    between atoms: S_1  and  N_8
REMARK    2  A    between atoms: S_1  and  C_24
REMARK    3  A    between atoms: N_8  and  C_20
REMARK    4  A    between atoms: C_19  and  C_22
REMARK                            x       y       z     vdW  Elec       q    Type
REMARK                         _______ _______ _______ _____ _____    ______ ____
ROOT
ATOM      2  O   UNL     1      -6.128 -13.900  14.788  0.00  0.00    -0.266 OA
ATOM      3  O   UNL     1      -9.656 -12.068  18.112  0.00  0.00    -0.268 OA
ATOM      6  N   UNL     1      -7.617 -11.028  18.596  0.00  0.00    -0.295 N 
ATOM      7  N   UNL     1      -5.720 -12.191  16.337  0.00  0.00    -0.310 N 
ATOM     10  C   UNL     1      -5.689 -12.578  18.867  0.00  0.00    +0.027 C 
ATOM     11  C   UNL     1      -5.323 -10.313  17.972  0.00  0.00    +0.054 C 
ATOM     12  C   UNL     1      -4.743 -11.382  18.896  0.00  0.00    +0.018 C 
ATOM     13  C   UNL     1      -7.091 -12.165  19.351  0.00  0.00    +0.113 C 
ATOM     14  C   UNL     1      -5.714 -13.153  17.447  0.00  0.00    +0.130 C 
ATOM     15  C   UNL     1      -6.707  -9.876  18.492  0.00  0.00    +0.117 C 
ATOM     16  C   UNL     1      -5.452 -10.832  16.551  0.00  0.00    +0.027 A 
ATOM     17  C   UNL     1      -5.348  -9.984  15.511  0.00  0.00    +0.024 A 
ATOM     18  C   UNL     1      -5.907 -12.717  15.041  0.00  0.00    +0.274 A 
ATOM     19  C   UNL     1      -8.891 -11.109  18.029  0.00  0.00    +0.265 C 
ATOM     20  C   UNL     1      -5.805 -11.729  13.938  0.00  0.00    +0.112 A 
ATOM     21  C   UNL     1      -5.531 -10.443  14.160  0.00  0.00    +0.031 A 
ENDROOT
BRANCH  19  22
ATOM      9  N   UNL     1      -9.003  -9.967  15.942  0.00  0.00    -0.250 NA
ATOM     22  C   UNL     1      -9.367  -9.966  17.242  0.00  0.00    +0.126 A 
ATOM     23  C   UNL     1     -10.132  -8.983  17.841  0.00  0.00    +0.033 A 
ATOM     25  C   UNL     1     -10.555  -7.921  17.048  0.00  0.00    +0.004 A 
ATOM     26  C   UNL     1      -9.433  -8.919  15.204  0.00  0.00    +0.111 A 
ATOM     27  C   UNL     1     -10.203  -7.881  15.704  0.00  0.00    +0.020 A 
ENDBRANCH  19  22
BRANCH  20   8
ATOM      8  N   UNL     1      -5.988 -12.136  12.604  0.00  0.00    -0.211 N 
ATOM     33  H   UNL     1      -6.773 -12.793  12.492  0.00  0.00    +0.174 HD
BRANCH   8   1
ATOM      1  S   UNL     1      -4.600 -12.539  11.723  0.00  0.00    +0.072 S 
ATOM      4  O   UNL     1      -3.461 -12.622  12.616  0.00  0.00    -0.150 OA
ATOM      5  O   UNL     1      -4.899 -13.631  10.815  0.00  0.00    -0.150 OA
BRANCH   1  24
ATOM     24  C   UNL     1      -4.399 -11.080  10.744  0.00  0.00    +0.108 A 
ATOM     28  C   UNL     1      -3.250 -10.323  10.891  0.00  0.00    +0.029 A 
ATOM     29  C   UNL     1      -5.394 -10.723   9.851  0.00  0.00    +0.029 A 
ATOM     30  C   UNL     1      -3.090  -9.172  10.119  0.00  0.00    +0.002 A 
ATOM     31  C   UNL     1      -5.234  -9.572   9.079  0.00  0.00    +0.002 A 
ATOM     32  C   UNL     1      -4.082  -8.797   9.214  0.00  0.00    +0.000 A 
ENDBRANCH   1  24
ENDBRANCH   8   1
ENDBRANCH  20   8
TORSDOF 4
ENDMDL
MODEL 6
REMARK VINA RESULT:      -6.5     25.916     28.193
REMARK  Name = 11867232
REMARK  4 active torsions:
REMARK  status: ('A' for Active; 'I' for Inactive)
REMARK    1  A    between atoms: S_1  and  N_8
REMARK    2  A    between atoms: S_1  and  C_24
REMARK    3  A    between atoms: N_8  and  C_20
REMARK    4  A    between atoms: C_19  and  C_22
REMARK                            x       y       z     vdW  Elec       q    Type
REMARK                         _______ _______ _______ _____ _____    ______ ____
ROOT
ATOM      2  O   UNL     1      12.464   7.489   3.303  0.00  0.00    -0.266 OA
ATOM      3  O   UNL     1      13.429   7.049  -1.769  0.00  0.00    -0.268 OA
ATOM      6  N   UNL     1      13.857   4.971  -0.782  0.00  0.00    -0.295 N 
ATOM      7  N   UNL     1      13.031   5.481   2.237  0.00  0.00    -0.310 N 
ATOM     10  C   UNL     1      15.338   5.046   1.217  0.00  0.00    +0.027 C 
ATOM     11  C   UNL     1      13.584   3.325   1.056  0.00  0.00    +0.054 C 
ATOM     12  C   UNL     1      15.026   3.578   1.492  0.00  0.00    +0.018 C 
ATOM     13  C   UNL     1      15.177   5.357  -0.282  0.00  0.00    +0.113 C 
ATOM     14  C   UNL     1      14.426   5.916   2.089  0.00  0.00    +0.130 C 
ATOM     15  C   UNL     1      13.446   3.596  -0.456  0.00  0.00    +0.117 C 
ATOM     16  C   UNL     1      12.618   4.207   1.824  0.00  0.00    +0.027 A 
ATOM     17  C   UNL     1      11.365   3.783   2.070  0.00  0.00    +0.024 A 
ATOM     18  C   UNL     1      12.158   6.367   2.903  0.00  0.00    +0.274 A 
ATOM     19  C   UNL     1      13.092   5.899  -1.493  0.00  0.00    +0.265 C 
ATOM     20  C   UNL     1      10.783   5.852   3.124  0.00  0.00    +0.112 A 
ATOM     21  C   UNL     1      10.414   4.629   2.740  0.00  0.00    +0.031 A 
ENDROOT
BRANCH  19  22
ATOM      9  N   UNL     1      11.702   4.932  -3.167  0.00  0.00    -0.250 NA
ATOM     22  C   UNL     1      11.756   5.490  -1.940  0.00  0.00    +0.126 A 
ATOM     23  C   UNL     1      10.660   5.688  -1.120  0.00  0.00    +0.033 A 
ATOM     25  C   UNL     1       9.418   5.284  -1.594  0.00  0.00    +0.004 A 
ATOM     26  C   UNL     1      10.477   4.551  -3.594  0.00  0.00    +0.111 A 
ATOM     27  C   UNL     1       9.315   4.704  -2.854  0.00  0.00    +0.020 A 
ENDBRANCH  19  22
BRANCH  20   8
ATOM      8  N   UNL     1       9.821   6.653   3.764  0.00  0.00    -0.211 N 
ATOM     33  H   UNL     1       9.952   7.658   3.581  0.00  0.00    +0.174 HD
BRANCH   8   1
ATOM      1  S   UNL     1       9.447   6.273   5.371  0.00  0.00    +0.072 S 
ATOM      4  O   UNL     1       8.063   5.849   5.464  0.00  0.00    -0.150 OA
ATOM      5  O   UNL     1      10.502   5.453   5.937  0.00  0.00    -0.150 OA
BRANCH   1  24
ATOM     24  C   UNL     1       9.562   7.870   6.121  0.00  0.00    +0.108 A 
ATOM     28  C   UNL     1       9.328   7.996   7.479  0.00  0.00    +0.029 A 
ATOM     29  C   UNL     1       9.882   8.963   5.336  0.00  0.00    +0.029 A 
ATOM     30  C   UNL     1       9.418   9.256   8.072  0.00  0.00    +0.002 A 
ATOM     31  C   UNL     1       9.972  10.223   5.928  0.00  0.00    +0.002 A 
ATOM     32  C   UNL     1       9.740  10.369   7.296  0.00  0.00    +0.000 A 
ENDBRANCH   1  24
ENDBRANCH   8   1
ENDBRANCH  20   8
TORSDOF 4
ENDMDL
MODEL 7
REMARK VINA RESULT:      -6.5     26.042     29.494
REMARK  Name = 11867232
REMARK  4 active torsions:
REMARK  status: ('A' for Active; 'I' for Inactive)
REMARK    1  A    between atoms: S_1  and  N_8
REMARK    2  A    between atoms: S_1  and  C_24
REMARK    3  A    between atoms: N_8  and  C_20
REMARK    4  A    between atoms: C_19  and  C_22
REMARK                            x       y       z     vdW  Elec       q    Type
REMARK                         _______ _______ _______ _____ _____    ______ ____
ROOT
ATOM      2  O   UNL     1      12.520   7.230   3.366  0.00  0.00    -0.266 OA
ATOM      3  O   UNL     1       8.707   9.731   5.826  0.00  0.00    -0.268 OA
ATOM      6  N   UNL     1       9.135   7.755   7.005  0.00  0.00    -0.295 N 
ATOM      7  N   UNL     1      11.583   6.537   5.399  0.00  0.00    -0.310 N 
ATOM     10  C   UNL     1       9.176   5.693   5.611  0.00  0.00    +0.027 C 
ATOM     11  C   UNL     1      10.600   5.846   7.615  0.00  0.00    +0.054 C 
ATOM     12  C   UNL     1       9.707   4.907   6.806  0.00  0.00    +0.018 C 
ATOM     13  C   UNL     1       8.366   6.913   6.088  0.00  0.00    +0.113 C 
ATOM     14  C   UNL     1      10.357   6.096   4.721  0.00  0.00    +0.130 C 
ATOM     15  C   UNL     1       9.767   7.040   8.124  0.00  0.00    +0.117 C 
ATOM     16  C   UNL     1      11.760   6.352   6.777  0.00  0.00    +0.027 A 
ATOM     17  C   UNL     1      12.932   6.657   7.362  0.00  0.00    +0.024 A 
ATOM     18  C   UNL     1      12.608   7.059   4.581  0.00  0.00    +0.274 A 
ATOM     19  C   UNL     1       9.232   9.127   6.760  0.00  0.00    +0.265 C 
ATOM     20  C   UNL     1      13.868   7.399   5.288  0.00  0.00    +0.112 A 
ATOM     21  C   UNL     1      14.024   7.199   6.597  0.00  0.00    +0.031 A 
ENDROOT
BRANCH  19  22
ATOM      9  N   UNL     1       9.395  10.429   8.747  0.00  0.00    -0.250 NA
ATOM     22  C   UNL     1      10.048   9.932   7.675  0.00  0.00    +0.126 A 
ATOM     23  C   UNL     1      11.389  10.138   7.411  0.00  0.00    +0.033 A 
ATOM     25  C   UNL     1      12.114  10.910   8.311  0.00  0.00    +0.004 A 
ATOM     26  C   UNL     1      10.133  11.175   9.600  0.00  0.00    +0.111 A 
ATOM     27  C   UNL     1      11.481  11.443   9.429  0.00  0.00    +0.020 A 
ENDBRANCH  19  22
BRANCH  20   8
ATOM      8  N   UNL     1      14.954   7.942   4.577  0.00  0.00    -0.211 N 
ATOM     33  H   UNL     1      15.839   7.449   4.762  0.00  0.00    +0.174 HD
BRANCH   8   1
ATOM      1  S   UNL     1      15.082   9.629   4.535  0.00  0.00    +0.072 S 
ATOM      4  O   UNL     1      15.302  10.069   3.171  0.00  0.00    -0.150 OA
ATOM      5  O   UNL     1      14.022  10.219   5.332  0.00  0.00    -0.150 OA
BRANCH   1  24
ATOM     24  C   UNL     1      16.597   9.865   5.417  0.00  0.00    +0.108 A 
ATOM     28  C   UNL     1      17.456   8.793   5.581  0.00  0.00    +0.029 A 
ATOM     29  C   UNL     1      16.893  11.117   5.927  0.00  0.00    +0.029 A 
ATOM     30  C   UNL     1      18.651   8.979   6.277  0.00  0.00    +0.002 A 
ATOM     31  C   UNL     1      18.088  11.303   6.623  0.00  0.00    +0.002 A 
ATOM     32  C   UNL     1      18.967  10.233   6.797  0.00  0.00    +0.000 A 
ENDBRANCH   1  24
ENDBRANCH   8   1
ENDBRANCH  20   8
TORSDOF 4
ENDMDL
MODEL 8
REMARK VINA RESULT:      -6.4     26.022     29.590
REMARK  Name = 11867232
REMARK  4 active torsions:
REMARK  status: ('A' for Active; 'I' for Inactive)
REMARK    1  A    between atoms: S_1  and  N_8
REMARK    2  A    between atoms: S_1  and  C_24
REMARK    3  A    between atoms: N_8  and  C_20
REMARK    4  A    between atoms: C_19  and  C_22
REMARK                            x       y       z     vdW  Elec       q    Type
REMARK                         _______ _______ _______ _____ _____    ______ ____
ROOT
ATOM      2  O   UNL     1      14.073   6.534   7.306  0.00  0.00    -0.266 OA
ATOM      3  O   UNL     1      10.783   4.593   3.806  0.00  0.00    -0.268 OA
ATOM      6  N   UNL     1       9.620   6.184   5.067  0.00  0.00    -0.295 N 
ATOM      7  N   UNL     1      11.886   7.308   6.979  0.00  0.00    -0.310 N 
ATOM     10  C   UNL     1       9.814   5.911   7.533  0.00  0.00    +0.027 C 
ATOM     11  C   UNL     1       9.550   8.161   6.567  0.00  0.00    +0.054 C 
ATOM     12  C   UNL     1       9.131   7.260   7.728  0.00  0.00    +0.018 C 
ATOM     13  C   UNL     1       9.388   5.281   6.194  0.00  0.00    +0.113 C 
ATOM     14  C   UNL     1      11.332   6.109   7.621  0.00  0.00    +0.130 C 
ATOM     15  C   UNL     1       9.078   7.542   5.236  0.00  0.00    +0.117 C 
ATOM     16  C   UNL     1      11.056   8.348   6.539  0.00  0.00    +0.027 A 
ATOM     17  C   UNL     1      11.586   9.487   6.057  0.00  0.00    +0.024 A 
ATOM     18  C   UNL     1      13.293   7.404   6.921  0.00  0.00    +0.274 A 
ATOM     19  C   UNL     1      10.328   5.726   3.953  0.00  0.00    +0.265 C 
ATOM     20  C   UNL     1      13.817   8.674   6.358  0.00  0.00    +0.112 A 
ATOM     21  C   UNL     1      13.011   9.659   5.961  0.00  0.00    +0.031 A 
ENDROOT
BRANCH  19  22
ATOM      9  N   UNL     1      11.675   7.446   3.007  0.00  0.00    -0.250 NA
ATOM     22  C   UNL     1      10.579   6.673   2.861  0.00  0.00    +0.126 A 
ATOM     23  C   UNL     1       9.719   6.729   1.781  0.00  0.00    +0.033 A 
ATOM     25  C   UNL     1      10.003   7.646   0.775  0.00  0.00    +0.004 A 
ATOM     26  C   UNL     1      11.920   8.325   2.009  0.00  0.00    +0.111 A 
ATOM     27  C   UNL     1      11.123   8.464   0.884  0.00  0.00    +0.020 A 
ENDBRANCH  19  22
BRANCH  20   8
ATOM      8  N   UNL     1      15.203   8.875   6.237  0.00  0.00    -0.211 N 
ATOM     33  H   UNL     1      15.540   9.680   6.785  0.00  0.00    +0.174 HD
BRANCH   8   1
ATOM      1  S   UNL     1      15.868   8.752   4.685  0.00  0.00    +0.072 S 
ATOM      4  O   UNL     1      15.379   7.550   4.037  0.00  0.00    -0.150 OA
ATOM      5  O   UNL     1      15.776  10.035   4.012  0.00  0.00    -0.150 OA
BRANCH   1  24
ATOM     24  C   UNL     1      17.572   8.485   5.077  0.00  0.00    +0.108 A 
ATOM     28  C   UNL     1      18.420   7.996   4.100  0.00  0.00    +0.029 A 
ATOM     29  C   UNL     1      18.023   8.768   6.354  0.00  0.00    +0.029 A 
ATOM     30  C   UNL     1      19.764   7.784   4.409  0.00  0.00    +0.002 A 
ATOM     31  C   UNL     1      19.366   8.557   6.664  0.00  0.00    +0.002 A 
ATOM     32  C   UNL     1      20.237   8.065   5.691  0.00  0.00    +0.000 A 
ENDBRANCH   1  24
ENDBRANCH   8   1
ENDBRANCH  20   8
TORSDOF 4
ENDMDL
MODEL 9
REMARK VINA RESULT:      -6.3     25.317     28.496
REMARK  Name = 11867232
REMARK  4 active torsions:
REMARK  status: ('A' for Active; 'I' for Inactive)
REMARK    1  A    between atoms: S_1  and  N_8
REMARK    2  A    between atoms: S_1  and  C_24
REMARK    3  A    between atoms: N_8  and  C_20
REMARK    4  A    between atoms: C_19  and  C_22
REMARK                            x       y       z     vdW  Elec       q    Type
REMARK                         _______ _______ _______ _____ _____    ______ ____
ROOT
ATOM      2  O   UNL     1      10.071   4.838   2.997  0.00  0.00    -0.266 OA
ATOM      3  O   UNL     1       7.702   8.801   5.349  0.00  0.00    -0.268 OA
ATOM      6  N   UNL     1       9.502   8.151   6.695  0.00  0.00    -0.295 N 
ATOM      7  N   UNL     1      10.845   5.864   4.956  0.00  0.00    -0.310 N 
ATOM     10  C   UNL     1       9.610   5.714   7.193  0.00  0.00    +0.027 C 
ATOM     11  C   UNL     1      11.689   7.025   7.028  0.00  0.00    +0.054 C 
ATOM     12  C   UNL     1      10.992   5.910   7.808  0.00  0.00    +0.018 C 
ATOM     13  C   UNL     1       8.792   7.015   7.285  0.00  0.00    +0.113 C 
ATOM     14  C   UNL     1       9.777   5.238   5.745  0.00  0.00    +0.130 C 
ATOM     15  C   UNL     1      10.884   8.333   7.166  0.00  0.00    +0.117 C 
ATOM     16  C   UNL     1      11.827   6.661   5.561  0.00  0.00    +0.027 A 
ATOM     17  C   UNL     1      12.862   7.134   4.843  0.00  0.00    +0.024 A 
ATOM     18  C   UNL     1      10.891   5.543   3.583  0.00  0.00    +0.274 A 
ATOM     19  C   UNL     1       8.856   8.948   5.747  0.00  0.00    +0.265 C 
ATOM     20  C   UNL     1      12.043   6.113   2.839  0.00  0.00    +0.112 A 
ATOM     21  C   UNL     1      12.977   6.854   3.437  0.00  0.00    +0.031 A 
ENDROOT
BRANCH  19  22
ATOM      9  N   UNL     1       9.477  11.246   5.754  0.00  0.00    -0.250 NA
ATOM     22  C   UNL     1       9.614  10.050   5.145  0.00  0.00    +0.126 A 
ATOM     23  C   UNL     1      10.399   9.824   4.029  0.00  0.00    +0.033 A 
ATOM     25  C   UNL     1      11.094  10.904   3.499  0.00  0.00    +0.004 A 
ATOM     26  C   UNL     1      10.169  12.273   5.209  0.00  0.00    +0.111 A 
ATOM     27  C   UNL     1      10.982  12.156   4.094  0.00  0.00    +0.020 A 
ENDBRANCH  19  22
BRANCH  20   8
ATOM      8  N   UNL     1      12.184   5.872   1.461  0.00  0.00    -0.211 N 
ATOM     33  H   UNL     1      11.298   5.968   0.945  0.00  0.00    +0.174 HD
BRANCH   8   1
ATOM      1  S   UNL     1      13.125   4.542   1.003  0.00  0.00    +0.072 S 
ATOM      4  O   UNL     1      14.439   4.992   0.583  0.00  0.00    -0.150 OA
ATOM      5  O   UNL     1      12.995   3.488   1.992  0.00  0.00    -0.150 OA
BRANCH   1  24
ATOM     24  C   UNL     1      12.261   4.012  -0.447  0.00  0.00    +0.108 A 
ATOM     28  C   UNL     1      11.168   4.739  -0.884  0.00  0.00    +0.029 A 
ATOM     29  C   UNL     1      12.695   2.881  -1.116  0.00  0.00    +0.029 A 
ATOM     30  C   UNL     1      10.486   4.322  -2.027  0.00  0.00    +0.002 A 
ATOM     31  C   UNL     1      12.013   2.464  -2.259  0.00  0.00    +0.002 A 
ATOM     32  C   UNL     1      10.909   3.185  -2.715  0.00  0.00    +0.000 A 
ENDBRANCH   1  24
ENDBRANCH   8   1
ENDBRANCH  20   8
TORSDOF 4
ENDMDL
MODEL 10
REMARK VINA RESULT:      -6.3      2.803      4.270
REMARK  Name = 11867232
REMARK  4 active torsions:
REMARK  status: ('A' for Active; 'I' for Inactive)
REMARK    1  A    between atoms: S_1  and  N_8
REMARK    2  A    between atoms: S_1  and  C_24
REMARK    3  A    between atoms: N_8  and  C_20
REMARK    4  A    between atoms: C_19  and  C_22
REMARK                            x       y       z     vdW  Elec       q    Type
REMARK                         _______ _______ _______ _____ _____    ______ ____
ROOT
ATOM      2  O   UNL     1      -7.629  -8.807  17.078  0.00  0.00    -0.266 OA
ATOM      3  O   UNL     1      -6.204 -12.769  14.058  0.00  0.00    -0.268 OA
ATOM      6  N   UNL     1      -5.163 -13.049  16.135  0.00  0.00    -0.295 N 
ATOM      7  N   UNL     1      -6.332 -10.618  17.802  0.00  0.00    -0.310 N 
ATOM     10  C   UNL     1      -3.947 -11.046  16.975  0.00  0.00    +0.027 C 
ATOM     11  C   UNL     1      -4.988 -12.607  18.571  0.00  0.00    +0.054 C 
ATOM     12  C   UNL     1      -3.756 -11.738  18.321  0.00  0.00    +0.018 C 
ATOM     13  C   UNL     1      -4.096 -12.089  15.852  0.00  0.00    +0.113 C 
ATOM     14  C   UNL     1      -5.164 -10.118  17.066  0.00  0.00    +0.130 C 
ATOM     15  C   UNL     1      -5.099 -13.675  17.465  0.00  0.00    +0.117 C 
ATOM     16  C   UNL     1      -6.251 -11.767  18.601  0.00  0.00    +0.027 A 
ATOM     17  C   UNL     1      -7.297 -12.148  19.357  0.00  0.00    +0.024 A 
ATOM     18  C   UNL     1      -7.502  -9.832  17.745  0.00  0.00    +0.274 A 
ATOM     19  C   UNL     1      -6.145 -13.289  15.171  0.00  0.00    +0.265 C 
ATOM     20  C   UNL     1      -8.629 -10.316  18.583  0.00  0.00    +0.112 A 
ATOM     21  C   UNL     1      -8.527 -11.402  19.351  0.00  0.00    +0.031 A 
ENDROOT
BRANCH  19  22
ATOM      9  N   UNL     1      -7.018 -15.504  15.128  0.00  0.00    -0.250 NA
ATOM     22  C   UNL     1      -7.224 -14.225  15.507  0.00  0.00    +0.126 A 
ATOM     23  C   UNL     1      -8.352 -13.775  16.167  0.00  0.00    +0.033 A 
ATOM     25  C   UNL     1      -9.344 -14.704  16.459  0.00  0.00    +0.004 A 
ATOM     26  C   UNL     1      -8.004 -16.379  15.430  0.00  0.00    +0.111 A 
ATOM     27  C   UNL     1      -9.174 -16.034  16.087  0.00  0.00    +0.020 A 
ENDBRANCH  19  22
BRANCH  20   8
ATOM      8  N   UNL     1      -9.851  -9.621  18.594  0.00  0.00    -0.211 N 
ATOM     33  H   UNL     1     -10.177  -9.400  19.546  0.00  0.00    +0.174 HD
BRANCH   8   1
ATOM      1  S   UNL     1     -11.061 -10.172  17.546  0.00  0.00    +0.072 S 
ATOM      4  O   UNL     1     -10.461 -10.916  16.455  0.00  0.00    -0.150 OA
ATOM      5  O   UNL     1     -12.147 -10.750  18.315  0.00  0.00    -0.150 OA
BRANCH   1  24
ATOM     24  C   UNL     1     -11.643  -8.639  16.882  0.00  0.00    +0.108 A 
ATOM     28  C   UNL     1     -10.800  -7.542  16.880  0.00  0.00    +0.029 A 
ATOM     29  C   UNL     1     -12.930  -8.567  16.380  0.00  0.00    +0.029 A 
ATOM     30  C   UNL     1     -11.259  -6.333  16.357  0.00  0.00    +0.002 A 
ATOM     31  C   UNL     1     -13.389  -7.358  15.856  0.00  0.00    +0.002 A 
ATOM     32  C   UNL     1     -12.553  -6.241  15.845  0.00  0.00    +0.000 A 
ENDBRANCH   1  24
ENDBRANCH   8   1
ENDBRANCH  20   8
TORSDOF 4
ENDMDL
