MODEL 1
REMARK VINA RESULT:      -7.1      0.000      0.000
REMARK  Name = 11867206
REMARK  3 active torsions:
REMARK  status: ('A' for Active; 'I' for Inactive)
REMARK    1  A    between atoms: S_2  and  N_8
REMARK    2  A    between atoms: S_2  and  C_20
REMARK    3  A    between atoms: N_8  and  C_18
REMARK                            x       y       z     vdW  Elec       q    Type
REMARK                         _______ _______ _______ _____ _____    ______ ____
ROOT
ATOM      3  O   UNL     1      -3.961 -11.584  18.344  0.00  0.00    -0.266 OA
ATOM      6  N   UNL     1      -6.270 -11.234  18.157  0.00  0.00    -0.310 N 
ATOM      7  N   UNL     1      -8.629 -13.341  17.672  0.00  0.00    -0.315 NA
ATOM      9  C   UNL     1      -7.975 -12.199  19.807  0.00  0.00    +0.023 C 
ATOM     10  C   UNL     1      -8.748 -10.856  17.909  0.00  0.00    +0.050 C 
ATOM     11  C   UNL     1      -8.807 -10.980  19.430  0.00  0.00    +0.017 C 
ATOM     12  C   UNL     1      -6.512 -11.938  19.423  0.00  0.00    +0.130 C 
ATOM     13  C   UNL     1      -8.548 -13.458  19.127  0.00  0.00    +0.086 C 
ATOM     14  C   UNL     1      -9.342 -12.127  17.265  0.00  0.00    +0.090 C 
ATOM     15  C   UNL     1      -7.320 -10.641  17.442  0.00  0.00    +0.026 A 
ATOM     16  C   UNL     1      -7.068  -9.906  16.343  0.00  0.00    +0.024 A 
ATOM     17  C   UNL     1      -4.925 -11.102  17.752  0.00  0.00    +0.274 A 
ATOM     18  C   UNL     1      -4.712 -10.298  16.521  0.00  0.00    +0.112 A 
ATOM     19  C   UNL     1      -5.723  -9.729  15.864  0.00  0.00    +0.031 A 
ATOM     26  H   UNL     1      -9.100 -14.160  17.287  0.00  0.00    +0.122 HD
ENDROOT
BRANCH  18   8
ATOM      8  N   UNL     1      -3.414 -10.105  16.017  0.00  0.00    -0.211 N 
ATOM     27  H   UNL     1      -3.269  -9.158  15.639  0.00  0.00    +0.174 HD
BRANCH   8   2
ATOM      2  S   UNL     1      -2.763 -11.349  15.071  0.00  0.00    +0.072 S 
ATOM      4  O   UNL     1      -1.329 -11.420  15.278  0.00  0.00    -0.150 OA
ATOM      5  O   UNL     1      -3.579 -12.540  15.201  0.00  0.00    -0.150 OA
BRANCH   2  20
ATOM      1 CL   UNL     1      -3.706  -9.049   9.330  0.00  0.00    -0.084 Cl
ATOM     20  C   UNL     1      -3.029 -10.700  13.447  0.00  0.00    +0.109 A 
ATOM     21  C   UNL     1      -1.937 -10.381  12.660  0.00  0.00    +0.030 A 
ATOM     22  C   UNL     1      -4.325 -10.523  12.996  0.00  0.00    +0.030 A 
ATOM     23  C   UNL     1      -2.148  -9.868  11.381  0.00  0.00    +0.022 A 
ATOM     24  C   UNL     1      -4.536 -10.011  11.716  0.00  0.00    +0.022 A 
ATOM     25  C   UNL     1      -3.447  -9.683  10.908  0.00  0.00    +0.041 A 
ENDBRANCH   2  20
ENDBRANCH   8   2
ENDBRANCH  18   8
TORSDOF 3
ENDMDL
MODEL 2
REMARK VINA RESULT:      -7.0     27.534     29.230
REMARK  Name = 11867206
REMARK  3 active torsions:
REMARK  status: ('A' for Active; 'I' for Inactive)
REMARK    1  A    between atoms: S_2  and  N_8
REMARK    2  A    between atoms: S_2  and  C_20
REMARK    3  A    between atoms: N_8  and  C_18
REMARK                            x       y       z     vdW  Elec       q    Type
REMARK                         _______ _______ _______ _____ _____    ______ ____
ROOT
ATOM      3  O   UNL     1      14.992  10.995  21.386  0.00  0.00    -0.266 OA
ATOM      6  N   UNL     1      13.095  11.718  22.555  0.00  0.00    -0.310 N 
ATOM      7  N   UNL     1      12.448  11.592  25.687  0.00  0.00    -0.315 NA
ATOM      9  C   UNL     1      13.157  13.573  24.321  0.00  0.00    +0.023 C 
ATOM     10  C   UNL     1      11.038  12.452  23.811  0.00  0.00    +0.050 C 
ATOM     11  C   UNL     1      11.714  13.818  23.898  0.00  0.00    +0.017 C 
ATOM     12  C   UNL     1      13.868  12.777  23.218  0.00  0.00    +0.130 C 
ATOM     13  C   UNL     1      13.190  12.852  25.684  0.00  0.00    +0.086 C 
ATOM     14  C   UNL     1      11.080  11.768  25.195  0.00  0.00    +0.090 C 
ATOM     15  C   UNL     1      11.716  11.582  22.768  0.00  0.00    +0.026 A 
ATOM     16  C   UNL     1      11.004  10.678  22.071  0.00  0.00    +0.024 A 
ATOM     17  C   UNL     1      13.789  10.914  21.627  0.00  0.00    +0.274 A 
ATOM     18  C   UNL     1      12.954   9.921  20.904  0.00  0.00    +0.112 A 
ATOM     19  C   UNL     1      11.640   9.817  21.109  0.00  0.00    +0.031 A 
ATOM     26  H   UNL     1      12.425  11.209  26.632  0.00  0.00    +0.122 HD
ENDROOT
BRANCH  18   8
ATOM      8  N   UNL     1      13.538   9.058  19.960  0.00  0.00    -0.211 N 
ATOM     27  H   UNL     1      13.263   9.279  18.993  0.00  0.00    +0.174 HD
BRANCH   8   2
ATOM      2  S   UNL     1      13.546   7.405  20.330  0.00  0.00    +0.072 S 
ATOM      4  O   UNL     1      13.064   7.205  21.683  0.00  0.00    -0.150 OA
ATOM      5  O   UNL     1      12.969   6.657  19.230  0.00  0.00    -0.150 OA
BRANCH   2  20
ATOM      1 CL   UNL     1      19.695   6.255  20.350  0.00  0.00    -0.084 Cl
ATOM     20  C   UNL     1      15.284   7.079  20.337  0.00  0.00    +0.109 A 
ATOM     21  C   UNL     1      16.049   7.514  21.404  0.00  0.00    +0.030 A 
ATOM     22  C   UNL     1      15.846   6.395  19.273  0.00  0.00    +0.030 A 
ATOM     23  C   UNL     1      17.419   7.258  21.408  0.00  0.00    +0.022 A 
ATOM     24  C   UNL     1      17.217   6.138  19.278  0.00  0.00    +0.022 A 
ATOM     25  C   UNL     1      18.004   6.569  20.345  0.00  0.00    +0.041 A 
ENDBRANCH   2  20
ENDBRANCH   8   2
ENDBRANCH  18   8
TORSDOF 3
ENDMDL
MODEL 3
REMARK VINA RESULT:      -6.8      1.231      2.111
REMARK  Name = 11867206
REMARK  3 active torsions:
REMARK  status: ('A' for Active; 'I' for Inactive)
REMARK    1  A    between atoms: S_2  and  N_8
REMARK    2  A    between atoms: S_2  and  C_20
REMARK    3  A    between atoms: N_8  and  C_18
REMARK                            x       y       z     vdW  Elec       q    Type
REMARK                         _______ _______ _______ _____ _____    ______ ____
ROOT
ATOM      3  O   UNL     1      -6.091  -9.794  15.318  0.00  0.00    -0.266 OA
ATOM      6  N   UNL     1      -6.786 -11.265  17.003  0.00  0.00    -0.310 N 
ATOM      7  N   UNL     1      -8.377 -10.670  19.715  0.00  0.00    -0.315 NA
ATOM      9  C   UNL     1      -9.247 -11.671  17.587  0.00  0.00    +0.023 C 
ATOM     10  C   UNL     1      -7.494 -12.838  18.840  0.00  0.00    +0.050 C 
ATOM     11  C   UNL     1      -8.763 -13.050  18.017  0.00  0.00    +0.017 C 
ATOM     12  C   UNL     1      -8.197 -11.045  16.659  0.00  0.00    +0.130 C 
ATOM     13  C   UNL     1      -9.531 -10.802  18.828  0.00  0.00    +0.086 C 
ATOM     14  C   UNL     1      -7.821 -11.976  20.078  0.00  0.00    +0.090 C 
ATOM     15  C   UNL     1      -6.414 -12.176  18.002  0.00  0.00    +0.026 A 
ATOM     16  C   UNL     1      -5.116 -12.448  18.229  0.00  0.00    +0.024 A 
ATOM     17  C   UNL     1      -5.829 -10.591  16.217  0.00  0.00    +0.274 A 
ATOM     18  C   UNL     1      -4.413 -10.915  16.528  0.00  0.00    +0.112 A 
ATOM     19  C   UNL     1      -4.081 -11.797  17.472  0.00  0.00    +0.031 A 
ATOM     26  H   UNL     1      -8.649 -10.167  20.560  0.00  0.00    +0.122 HD
ENDROOT
BRANCH  18   8
ATOM      8  N   UNL     1      -3.371 -10.298  15.815  0.00  0.00    -0.211 N 
ATOM     27  H   UNL     1      -3.654  -9.404  15.389  0.00  0.00    +0.174 HD
BRANCH   8   2
ATOM      2  S   UNL     1      -2.429 -11.287  14.815  0.00  0.00    +0.072 S 
ATOM      4  O   UNL     1      -1.022 -11.036  15.065  0.00  0.00    -0.150 OA
ATOM      5  O   UNL     1      -2.945 -12.642  14.844  0.00  0.00    -0.150 OA
BRANCH   2  20
ATOM      1 CL   UNL     1      -3.784  -8.883   9.201  0.00  0.00    -0.084 Cl
ATOM     20  C   UNL     1      -2.811 -10.609  13.227  0.00  0.00    +0.109 A 
ATOM     21  C   UNL     1      -1.780 -10.193  12.405  0.00  0.00    +0.030 A 
ATOM     22  C   UNL     1      -4.135 -10.507  12.840  0.00  0.00    +0.030 A 
ATOM     23  C   UNL     1      -2.083  -9.657  11.153  0.00  0.00    +0.022 A 
ATOM     24  C   UNL     1      -4.438  -9.972  11.587  0.00  0.00    +0.022 A 
ATOM     25  C   UNL     1      -3.412  -9.546  10.744  0.00  0.00    +0.041 A 
ENDBRANCH   2  20
ENDBRANCH   8   2
ENDBRANCH  18   8
TORSDOF 3
ENDMDL
MODEL 4
REMARK VINA RESULT:      -6.7      2.024      2.844
REMARK  Name = 11867206
REMARK  3 active torsions:
REMARK  status: ('A' for Active; 'I' for Inactive)
REMARK    1  A    between atoms: S_2  and  N_8
REMARK    2  A    between atoms: S_2  and  C_20
REMARK    3  A    between atoms: N_8  and  C_18
REMARK                            x       y       z     vdW  Elec       q    Type
REMARK                         _______ _______ _______ _____ _____    ______ ____
ROOT
ATOM      3  O   UNL     1      -6.111 -10.801  14.066  0.00  0.00    -0.266 OA
ATOM      6  N   UNL     1      -5.980 -11.322  16.346  0.00  0.00    -0.310 N 
ATOM      7  N   UNL     1      -7.246  -9.813  18.868  0.00  0.00    -0.315 NA
ATOM      9  C   UNL     1      -8.023 -11.928  17.767  0.00  0.00    +0.023 C 
ATOM     10  C   UNL     1      -5.803 -11.853  18.802  0.00  0.00    +0.050 C 
ATOM     11  C   UNL     1      -7.027 -12.740  18.585  0.00  0.00    +0.017 C 
ATOM     12  C   UNL     1      -7.413 -11.640  16.389  0.00  0.00    +0.130 C 
ATOM     13  C   UNL     1      -8.401 -10.640  18.527  0.00  0.00    +0.086 C 
ATOM     14  C   UNL     1      -6.219 -10.582  19.575  0.00  0.00    +0.090 C 
ATOM     15  C   UNL     1      -5.165 -11.482  17.476  0.00  0.00    +0.026 A 
ATOM     16  C   UNL     1      -3.836 -11.292  17.390  0.00  0.00    +0.024 A 
ATOM     17  C   UNL     1      -5.452 -10.943  15.094  0.00  0.00    +0.274 A 
ATOM     18  C   UNL     1      -3.982 -10.727  15.068  0.00  0.00    +0.112 A 
ATOM     19  C   UNL     1      -3.223 -10.900  16.150  0.00  0.00    +0.031 A 
ATOM     26  H   UNL     1      -7.544  -9.028  19.447  0.00  0.00    +0.122 HD
ENDROOT
BRANCH  18   8
ATOM      8  N   UNL     1      -3.345 -10.338  13.877  0.00  0.00    -0.211 N 
ATOM     27  H   UNL     1      -3.856  -9.599  13.373  0.00  0.00    +0.174 HD
BRANCH   8   2
ATOM      2  S   UNL     1      -2.737 -11.572  12.890  0.00  0.00    +0.072 S 
ATOM      4  O   UNL     1      -1.295 -11.449  12.787  0.00  0.00    -0.150 OA
ATOM      5  O   UNL     1      -3.337 -12.838  13.266  0.00  0.00    -0.150 OA
BRANCH   2  20
ATOM      1 CL   UNL     1      -5.150  -9.929   7.357  0.00  0.00    -0.084 Cl
ATOM     20  C   UNL     1      -3.418 -11.107  11.325  0.00  0.00    +0.109 A 
ATOM     21  C   UNL     1      -3.320  -9.791  10.911  0.00  0.00    +0.030 A 
ATOM     22  C   UNL     1      -4.035 -12.070  10.547  0.00  0.00    +0.030 A 
ATOM     23  C   UNL     1      -3.859  -9.426   9.677  0.00  0.00    +0.022 A 
ATOM     24  C   UNL     1      -4.573 -11.704   9.312  0.00  0.00    +0.022 A 
ATOM     25  C   UNL     1      -4.485 -10.382   8.878  0.00  0.00    +0.041 A 
ENDBRANCH   2  20
ENDBRANCH   8   2
ENDBRANCH  18   8
TORSDOF 3
ENDMDL
MODEL 5
REMARK VINA RESULT:      -6.7      3.446      7.512
REMARK  Name = 11867206
REMARK  3 active torsions:
REMARK  status: ('A' for Active; 'I' for Inactive)
REMARK    1  A    between atoms: S_2  and  N_8
REMARK    2  A    between atoms: S_2  and  C_20
REMARK    3  A    between atoms: N_8  and  C_18
REMARK                            x       y       z     vdW  Elec       q    Type
REMARK                         _______ _______ _______ _____ _____    ______ ____
ROOT
ATOM      3  O   UNL     1      -6.420  -9.993  14.631  0.00  0.00    -0.266 OA
ATOM      6  N   UNL     1      -4.242 -10.539  13.964  0.00  0.00    -0.310 N 
ATOM      7  N   UNL     1      -3.172 -13.088  12.351  0.00  0.00    -0.315 NA
ATOM      9  C   UNL     1      -3.537 -10.753  11.511  0.00  0.00    +0.023 C 
ATOM     10  C   UNL     1      -1.895 -11.153  13.285  0.00  0.00    +0.050 C 
ATOM     11  C   UNL     1      -2.165 -10.336  12.024  0.00  0.00    +0.017 C 
ATOM     12  C   UNL     1      -4.595 -10.359  12.550  0.00  0.00    +0.130 C 
ATOM     13  C   UNL     1      -3.546 -12.264  11.203  0.00  0.00    +0.086 C 
ATOM     14  C   UNL     1      -1.899 -12.657  12.935  0.00  0.00    +0.090 C 
ATOM     15  C   UNL     1      -2.932 -10.853  14.353  0.00  0.00    +0.026 A 
ATOM     16  C   UNL     1      -2.601 -10.907  15.656  0.00  0.00    +0.024 A 
ATOM     17  C   UNL     1      -5.259 -10.287  14.909  0.00  0.00    +0.274 A 
ATOM     18  C   UNL     1      -4.838 -10.382  16.330  0.00  0.00    +0.112 A 
ATOM     19  C   UNL     1      -3.583 -10.667  16.679  0.00  0.00    +0.031 A 
ATOM     26  H   UNL     1      -3.104 -14.065  12.066  0.00  0.00    +0.122 HD
ENDROOT
BRANCH  18   8
ATOM      8  N   UNL     1      -5.768 -10.160  17.360  0.00  0.00    -0.211 N 
ATOM     27  H   UNL     1      -5.501  -9.381  17.978  0.00  0.00    +0.174 HD
BRANCH   8   2
ATOM      2  S   UNL     1      -6.367 -11.524  18.165  0.00  0.00    +0.072 S 
ATOM      4  O   UNL     1      -6.460 -12.636  17.238  0.00  0.00    -0.150 OA
ATOM      5  O   UNL     1      -5.680 -11.684  19.432  0.00  0.00    -0.150 OA
BRANCH   2  20
ATOM      1 CL   UNL     1     -12.206  -9.661  19.420  0.00  0.00    -0.084 Cl
ATOM     20  C   UNL     1      -8.017 -10.997  18.521  0.00  0.00    +0.109 A 
ATOM     21  C   UNL     1      -8.667 -11.512  19.629  0.00  0.00    +0.030 A 
ATOM     22  C   UNL     1      -8.627 -10.079  17.684  0.00  0.00    +0.030 A 
ATOM     23  C   UNL     1      -9.968 -11.096  19.908  0.00  0.00    +0.022 A 
ATOM     24  C   UNL     1      -9.929  -9.662  17.964  0.00  0.00    +0.022 A 
ATOM     25  C   UNL     1     -10.599 -10.172  19.076  0.00  0.00    +0.041 A 
ENDBRANCH   2  20
ENDBRANCH   8   2
ENDBRANCH  18   8
TORSDOF 3
ENDMDL
MODEL 6
REMARK VINA RESULT:      -6.6     24.536     27.551
REMARK  Name = 11867206
REMARK  3 active torsions:
REMARK  status: ('A' for Active; 'I' for Inactive)
REMARK    1  A    between atoms: S_2  and  N_8
REMARK    2  A    between atoms: S_2  and  C_20
REMARK    3  A    between atoms: N_8  and  C_18
REMARK                            x       y       z     vdW  Elec       q    Type
REMARK                         _______ _______ _______ _____ _____    ______ ____
ROOT
ATOM      3  O   UNL     1      10.390   4.659   3.914  0.00  0.00    -0.266 OA
ATOM      6  N   UNL     1      11.863   5.017   2.129  0.00  0.00    -0.310 N 
ATOM      7  N   UNL     1      15.057   4.836   2.039  0.00  0.00    -0.315 NA
ATOM      9  C   UNL     1      13.378   3.188   1.170  0.00  0.00    +0.023 C 
ATOM     10  C   UNL     1      13.453   5.447   0.223  0.00  0.00    +0.050 C 
ATOM     11  C   UNL     1      13.254   3.974  -0.129  0.00  0.00    +0.017 C 
ATOM     12  C   UNL     1      12.233   3.596   2.107  0.00  0.00    +0.130 C 
ATOM     13  C   UNL     1      14.766   3.424   1.796  0.00  0.00    +0.086 C 
ATOM     14  C   UNL     1      14.856   5.645   0.835  0.00  0.00    +0.090 C 
ATOM     15  C   UNL     1      12.381   5.919   1.188  0.00  0.00    +0.026 A 
ATOM     16  C   UNL     1      11.948   7.193   1.154  0.00  0.00    +0.024 A 
ATOM     17  C   UNL     1      10.892   5.405   3.076  0.00  0.00    +0.274 A 
ATOM     18  C   UNL     1      10.470   6.828   3.002  0.00  0.00    +0.112 A 
ATOM     19  C   UNL     1      10.964   7.665   2.090  0.00  0.00    +0.031 A 
ATOM     26  H   UNL     1      16.018   4.938   2.365  0.00  0.00    +0.122 HD
ENDROOT
BRANCH  18   8
ATOM      8  N   UNL     1       9.514   7.330   3.902  0.00  0.00    -0.211 N 
ATOM     27  H   UNL     1       8.653   7.648   3.434  0.00  0.00    +0.174 HD
BRANCH   8   2
ATOM      2  S   UNL     1      10.074   8.361   5.123  0.00  0.00    +0.072 S 
ATOM      4  O   UNL     1      11.487   8.625   4.930  0.00  0.00    -0.150 OA
ATOM      5  O   UNL     1       9.143   9.459   5.298  0.00  0.00    -0.150 OA
BRANCH   2  20
ATOM      1 CL   UNL     1       9.536   4.636  10.120  0.00  0.00    -0.084 Cl
ATOM     20  C   UNL     1       9.923   7.309   6.536  0.00  0.00    +0.109 A 
ATOM     21  C   UNL     1      10.920   6.388   6.802  0.00  0.00    +0.030 A 
ATOM     22  C   UNL     1       8.809   7.427   7.349  0.00  0.00    +0.030 A 
ATOM     23  C   UNL     1      10.800   5.557   7.916  0.00  0.00    +0.022 A 
ATOM     24  C   UNL     1       8.689   6.597   8.464  0.00  0.00    +0.022 A 
ATOM     25  C   UNL     1       9.684   5.662   8.747  0.00  0.00    +0.041 A 
ENDBRANCH   2  20
ENDBRANCH   8   2
ENDBRANCH  18   8
TORSDOF 3
ENDMDL
MODEL 7
REMARK VINA RESULT:      -6.6     26.685     29.307
REMARK  Name = 11867206
REMARK  3 active torsions:
REMARK  status: ('A' for Active; 'I' for Inactive)
REMARK    1  A    between atoms: S_2  and  N_8
REMARK    2  A    between atoms: S_2  and  C_20
REMARK    3  A    between atoms: N_8  and  C_18
REMARK                            x       y       z     vdW  Elec       q    Type
REMARK                         _______ _______ _______ _____ _____    ______ ____
ROOT
ATOM      3  O   UNL     1      14.811  10.634  19.569  0.00  0.00    -0.266 OA
ATOM      6  N   UNL     1      14.946  10.827  17.238  0.00  0.00    -0.310 N 
ATOM      7  N   UNL     1      13.572  12.949  15.275  0.00  0.00    -0.315 NA
ATOM      9  C   UNL     1      15.955  12.861  16.054  0.00  0.00    +0.023 C 
ATOM     10  C   UNL     1      15.050  11.009  14.728  0.00  0.00    +0.050 C 
ATOM     11  C   UNL     1      16.296  11.864  14.953  0.00  0.00    +0.017 C 
ATOM     12  C   UNL     1      15.684  12.091  17.353  0.00  0.00    +0.130 C 
ATOM     13  C   UNL     1      14.757  13.731  15.623  0.00  0.00    +0.086 C 
ATOM     14  C   UNL     1      13.879  11.912  14.286  0.00  0.00    +0.090 C 
ATOM     15  C   UNL     1      14.687  10.246  15.989  0.00  0.00    +0.026 A 
ATOM     16  C   UNL     1      14.106   9.035  15.907  0.00  0.00    +0.024 A 
ATOM     17  C   UNL     1      14.598  10.184  18.445  0.00  0.00    +0.274 A 
ATOM     18  C   UNL     1      13.941   8.860  18.289  0.00  0.00    +0.112 A 
ATOM     19  C   UNL     1      13.718   8.318  17.092  0.00  0.00    +0.031 A 
ATOM     26  H   UNL     1      12.847  13.566  14.910  0.00  0.00    +0.122 HD
ENDROOT
BRANCH  18   8
ATOM      8  N   UNL     1      13.541   8.131  19.422  0.00  0.00    -0.211 N 
ATOM     27  H   UNL     1      14.121   7.295  19.583  0.00  0.00    +0.174 HD
BRANCH   8   2
ATOM      2  S   UNL     1      11.879   7.888  19.635  0.00  0.00    +0.072 S 
ATOM      4  O   UNL     1      11.158   8.412  18.490  0.00  0.00    -0.150 OA
ATOM      5  O   UNL     1      11.639   6.532  20.091  0.00  0.00    -0.150 OA
BRANCH   2  20
ATOM      1 CL   UNL     1      10.750  11.715  24.453  0.00  0.00    -0.084 Cl
ATOM     20  C   UNL     1      11.561   8.969  20.998  0.00  0.00    +0.109 A 
ATOM     21  C   UNL     1      11.125   8.434  22.197  0.00  0.00    +0.030 A 
ATOM     22  C   UNL     1      11.754  10.329  20.838  0.00  0.00    +0.030 A 
ATOM     23  C   UNL     1      10.873   9.287  23.270  0.00  0.00    +0.022 A 
ATOM     24  C   UNL     1      11.504  11.183  21.912  0.00  0.00    +0.022 A 
ATOM     25  C   UNL     1      11.062  10.662  23.128  0.00  0.00    +0.041 A 
ENDBRANCH   2  20
ENDBRANCH   8   2
ENDBRANCH  18   8
TORSDOF 3
ENDMDL
MODEL 8
REMARK VINA RESULT:      -6.4      3.024      6.484
REMARK  Name = 11867206
REMARK  3 active torsions:
REMARK  status: ('A' for Active; 'I' for Inactive)
REMARK    1  A    between atoms: S_2  and  N_8
REMARK    2  A    between atoms: S_2  and  C_20
REMARK    3  A    between atoms: N_8  and  C_18
REMARK                            x       y       z     vdW  Elec       q    Type
REMARK                         _______ _______ _______ _____ _____    ______ ____
ROOT
ATOM      3  O   UNL     1      -6.418 -13.608  16.058  0.00  0.00    -0.266 OA
ATOM      6  N   UNL     1      -4.616 -12.238  15.452  0.00  0.00    -0.310 N 
ATOM      7  N   UNL     1      -1.755 -13.027  14.254  0.00  0.00    -0.315 NA
ATOM      9  C   UNL     1      -3.733 -12.058  13.055  0.00  0.00    +0.023 C 
ATOM     10  C   UNL     1      -2.660 -10.772  14.844  0.00  0.00    +0.050 C 
ATOM     11  C   UNL     1      -3.319 -10.652  13.472  0.00  0.00    +0.017 C 
ATOM     12  C   UNL     1      -4.798 -12.571  14.034  0.00  0.00    +0.130 C 
ATOM     13  C   UNL     1      -2.495 -12.974  12.995  0.00  0.00    +0.086 C 
ATOM     14  C   UNL     1      -1.419 -11.686  14.741  0.00  0.00    +0.090 C 
ATOM     15  C   UNL     1      -3.640 -11.321  15.866  0.00  0.00    +0.026 A 
ATOM     16  C   UNL     1      -3.559 -10.944  17.155  0.00  0.00    +0.024 A 
ATOM     17  C   UNL     1      -5.532 -12.811  16.360  0.00  0.00    +0.274 A 
ATOM     18  C   UNL     1      -5.379 -12.373  17.772  0.00  0.00    +0.112 A 
ATOM     19  C   UNL     1      -4.454 -11.487  18.141  0.00  0.00    +0.031 A 
ATOM     26  H   UNL     1      -0.901 -13.569  14.129  0.00  0.00    +0.122 HD
ENDROOT
BRANCH  18   8
ATOM      8  N   UNL     1      -6.230 -12.884  18.767  0.00  0.00    -0.211 N 
ATOM     27  H   UNL     1      -6.680 -13.768  18.492  0.00  0.00    +0.174 HD
BRANCH   8   2
ATOM      2  S   UNL     1      -7.256 -11.783  19.544  0.00  0.00    +0.072 S 
ATOM      4  O   UNL     1      -8.302 -12.502  20.245  0.00  0.00    -0.150 OA
ATOM      5  O   UNL     1      -6.464 -10.785  20.237  0.00  0.00    -0.150 OA
BRANCH   2  20
ATOM      1 CL   UNL     1      -9.906  -8.985  14.616  0.00  0.00    -0.084 Cl
ATOM     20  C   UNL     1      -8.004 -10.992  18.150  0.00  0.00    +0.109 A 
ATOM     21  C   UNL     1      -7.614  -9.708  17.813  0.00  0.00    +0.030 A 
ATOM     22  C   UNL     1      -8.964 -11.673  17.424  0.00  0.00    +0.030 A 
ATOM     23  C   UNL     1      -8.206  -9.085  16.714  0.00  0.00    +0.022 A 
ATOM     24  C   UNL     1      -9.555 -11.050  16.324  0.00  0.00    +0.022 A 
ATOM     25  C   UNL     1      -9.176  -9.755  15.970  0.00  0.00    +0.041 A 
ENDBRANCH   2  20
ENDBRANCH   8   2
ENDBRANCH  18   8
TORSDOF 3
ENDMDL
MODEL 9
REMARK VINA RESULT:      -6.4     25.005     26.801
REMARK  Name = 11867206
REMARK  3 active torsions:
REMARK  status: ('A' for Active; 'I' for Inactive)
REMARK    1  A    between atoms: S_2  and  N_8
REMARK    2  A    between atoms: S_2  and  C_20
REMARK    3  A    between atoms: N_8  and  C_18
REMARK                            x       y       z     vdW  Elec       q    Type
REMARK                         _______ _______ _______ _____ _____    ______ ____
ROOT
ATOM      3  O   UNL     1      10.694   4.150   4.459  0.00  0.00    -0.266 OA
ATOM      6  N   UNL     1      10.299   6.390   5.018  0.00  0.00    -0.310 N 
ATOM      7  N   UNL     1       7.878   7.698   6.653  0.00  0.00    -0.315 NA
ATOM      9  C   UNL     1      10.218   7.242   7.432  0.00  0.00    +0.023 C 
ATOM     10  C   UNL     1       9.846   8.804   5.580  0.00  0.00    +0.050 C 
ATOM     11  C   UNL     1      10.694   8.557   6.827  0.00  0.00    +0.017 C 
ATOM     12  C   UNL     1      10.512   6.106   6.442  0.00  0.00    +0.130 C 
ATOM     13  C   UNL     1       8.722   7.339   7.791  0.00  0.00    +0.086 C 
ATOM     14  C   UNL     1       8.359   8.908   5.982  0.00  0.00    +0.090 C 
ATOM     15  C   UNL     1      10.046   7.693   4.565  0.00  0.00    +0.026 A 
ATOM     16  C   UNL     1       9.962   7.954   3.248  0.00  0.00    +0.024 A 
ATOM     17  C   UNL     1      10.457   5.309   4.125  0.00  0.00    +0.274 A 
ATOM     18  C   UNL     1      10.332   5.656   2.686  0.00  0.00    +0.112 A 
ATOM     19  C   UNL     1      10.107   6.904   2.275  0.00  0.00    +0.031 A 
ATOM     26  H   UNL     1       6.918   7.839   6.967  0.00  0.00    +0.122 HD
ENDROOT
BRANCH  18   8
ATOM      8  N   UNL     1      10.462   4.658   1.704  0.00  0.00    -0.211 N 
ATOM     27  H   UNL     1       9.875   3.834   1.892  0.00  0.00    +0.174 HD
BRANCH   8   2
ATOM      2  S   UNL     1      12.030   4.299   1.173  0.00  0.00    +0.072 S 
ATOM      4  O   UNL     1      12.846   5.498   1.217  0.00  0.00    -0.150 OA
ATOM      5  O   UNL     1      12.491   3.078   1.804  0.00  0.00    -0.150 OA
BRANCH   2  20
ATOM      1 CL   UNL     1      10.947   2.997  -4.849  0.00  0.00    -0.084 Cl
ATOM     20  C   UNL     1      11.724   3.933  -0.530  0.00  0.00    +0.109 A 
ATOM     21  C   UNL     1      10.696   4.584  -1.187  0.00  0.00    +0.030 A 
ATOM     22  C   UNL     1      12.519   3.000  -1.172  0.00  0.00    +0.030 A 
ATOM     23  C   UNL     1      10.454   4.294  -2.529  0.00  0.00    +0.022 A 
ATOM     24  C   UNL     1      12.279   2.710  -2.515  0.00  0.00    +0.022 A 
ATOM     25  C   UNL     1      11.246   3.357  -3.193  0.00  0.00    +0.041 A 
ENDBRANCH   2  20
ENDBRANCH   8   2
ENDBRANCH  18   8
TORSDOF 3
ENDMDL
MODEL 10
REMARK VINA RESULT:      -6.3     25.796     28.053
REMARK  Name = 11867206
REMARK  3 active torsions:
REMARK  status: ('A' for Active; 'I' for Inactive)
REMARK    1  A    between atoms: S_2  and  N_8
REMARK    2  A    between atoms: S_2  and  C_20
REMARK    3  A    between atoms: N_8  and  C_18
REMARK                            x       y       z     vdW  Elec       q    Type
REMARK                         _______ _______ _______ _____ _____    ______ ____
ROOT
ATOM      3  O   UNL     1      12.481   7.568   3.277  0.00  0.00    -0.266 OA
ATOM      6  N   UNL     1      12.923   5.494   2.282  0.00  0.00    -0.310 N 
ATOM      7  N   UNL     1      13.171   4.719  -0.814  0.00  0.00    -0.315 NA
ATOM      9  C   UNL     1      15.007   5.031   0.866  0.00  0.00    +0.023 C 
ATOM     10  C   UNL     1      13.351   3.257   1.206  0.00  0.00    +0.050 C 
ATOM     11  C   UNL     1      14.833   3.597   1.348  0.00  0.00    +0.017 C 
ATOM     12  C   UNL     1      14.228   5.966   1.802  0.00  0.00    +0.130 C 
ATOM     13  C   UNL     1      14.550   5.152  -0.602  0.00  0.00    +0.086 C 
ATOM     14  C   UNL     1      12.936   3.376  -0.277  0.00  0.00    +0.090 C 
ATOM     15  C   UNL     1      12.503   4.173   2.070  0.00  0.00    +0.026 A 
ATOM     16  C   UNL     1      11.355   3.727   2.610  0.00  0.00    +0.024 A 
ATOM     17  C   UNL     1      12.161   6.404   3.044  0.00  0.00    +0.274 A 
ATOM     18  C   UNL     1      10.893   5.860   3.596  0.00  0.00    +0.112 A 
ATOM     19  C   UNL     1      10.521   4.595   3.396  0.00  0.00    +0.031 A 
ATOM     26  H   UNL     1      12.955   4.731  -1.811  0.00  0.00    +0.122 HD
ENDROOT
BRANCH  18   8
ATOM      8  N   UNL     1      10.047   6.677   4.365  0.00  0.00    -0.211 N 
ATOM     27  H   UNL     1       9.992   7.642   4.009  0.00  0.00    +0.174 HD
BRANCH   8   2
ATOM      2  S   UNL     1      10.179   6.554   6.049  0.00  0.00    +0.072 S 
ATOM      4  O   UNL     1       9.076   5.769   6.569  0.00  0.00    -0.150 OA
ATOM      5  O   UNL     1      11.544   6.224   6.408  0.00  0.00    -0.150 OA
BRANCH   2  20
ATOM      1 CL   UNL     1       9.183  12.499   7.725  0.00  0.00    -0.084 Cl
ATOM     20  C   UNL     1       9.899   8.235   6.524  0.00  0.00    +0.109 A 
ATOM     21  C   UNL     1       9.657   8.529   7.853  0.00  0.00    +0.030 A 
ATOM     22  C   UNL     1       9.926   9.222   5.555  0.00  0.00    +0.030 A 
ATOM     23  C   UNL     1       9.435   9.855   8.226  0.00  0.00    +0.022 A 
ATOM     24  C   UNL     1       9.705  10.548   5.928  0.00  0.00    +0.022 A 
ATOM     25  C   UNL     1       9.459  10.864   7.264  0.00  0.00    +0.041 A 
ENDBRANCH   2  20
ENDBRANCH   8   2
ENDBRANCH  18   8
TORSDOF 3
ENDMDL
