MODEL 1
REMARK VINA RESULT:      -7.8      0.000      0.000
REMARK  Name = 11885929
REMARK  3 active torsions:
REMARK  status: ('A' for Active; 'I' for Inactive)
REMARK    1  A    between atoms: N_7  and  C_22
REMARK    2  A    between atoms: N_8  and  C_20
REMARK    3  A    between atoms: N_9  and  C_29
REMARK                            x       y       z     vdW  Elec       q    Type
REMARK                         _______ _______ _______ _____ _____    ______ ____
ROOT
ATOM      2  O   UNL     1      12.852   8.406   7.314  0.00  0.00    -0.266 OA
ATOM      3  O   UNL     1      10.545   4.400   4.879  0.00  0.00    -0.252 OA
ATOM      5  N   UNL     1       9.294   6.305   4.479  0.00  0.00    -0.284 N 
ATOM      6  N   UNL     1      10.969   8.592   5.943  0.00  0.00    -0.310 N 
ATOM      7  N   UNL     1      10.788   5.488   2.846  0.00  0.00    -0.269 N 
ATOM     10  C   UNL     1       8.704   7.568   6.555  0.00  0.00    +0.027 C 
ATOM     11  C   UNL     1       8.963   8.774   4.428  0.00  0.00    +0.054 C 
ATOM     12  C   UNL     1       8.122   8.686   5.699  0.00  0.00    +0.018 C 
ATOM     13  C   UNL     1       8.653   6.232   5.795  0.00  0.00    +0.114 C 
ATOM     14  C   UNL     1      10.133   7.944   6.963  0.00  0.00    +0.130 C 
ATOM     15  C   UNL     1       8.869   7.445   3.648  0.00  0.00    +0.119 C 
ATOM     16  C   UNL     1      10.416   9.073   4.753  0.00  0.00    +0.027 A 
ATOM     17  C   UNL     1      11.174   9.764   3.886  0.00  0.00    +0.024 A 
ATOM     18  C   UNL     1      12.324   8.795   6.271  0.00  0.00    +0.273 A 
ATOM     19  C   UNL     1      10.246   5.326   4.120  0.00  0.00    +0.306 C 
ATOM     20  C   UNL     1      13.142   9.547   5.267  0.00  0.00    +0.100 A 
ATOM     21  C   UNL     1      12.565  10.004   4.151  0.00  0.00    +0.030 A 
ATOM     35  H   UNL     1      10.227   5.951   2.141  0.00  0.00    +0.156 HD
ENDROOT
BRANCH   7  22
ATOM      1  F   UNL     1      15.705   3.684   1.040  0.00  0.00    -0.205 F 
ATOM     22  C   UNL     1      12.046   5.026   2.386  0.00  0.00    +0.035 A 
ATOM     24  C   UNL     1      13.133   5.894   2.358  0.00  0.00    +0.026 A 
ATOM     25  C   UNL     1      12.186   3.707   1.963  0.00  0.00    +0.026 A 
ATOM     26  C   UNL     1      14.372   5.441   1.903  0.00  0.00    +0.040 A 
ATOM     27  C   UNL     1      13.425   3.254   1.508  0.00  0.00    +0.040 A 
ATOM     28  C   UNL     1      14.517   4.120   1.478  0.00  0.00    +0.124 A 
ENDBRANCH   7  22
BRANCH  20   8
ATOM      4  O   UNL     1      15.276   7.778   4.633  0.00  0.00    -0.252 OA
ATOM      8  N   UNL     1      14.462   9.751   5.540  0.00  0.00    -0.265 N 
ATOM      9  N   UNL     1      16.719   9.344   5.620  0.00  0.00    -0.269 N 
ATOM     23  C   UNL     1      15.479   8.846   5.206  0.00  0.00    +0.308 C 
ATOM     36  H   UNL     1      14.685  10.466   6.226  0.00  0.00    +0.157 HD
ATOM     37  H   UNL     1      16.716  10.250   6.080  0.00  0.00    +0.156 HD
BRANCH   9  29
ATOM     29  C   UNL     1      17.990   8.740   5.473  0.00  0.00    +0.035 A 
ATOM     30  C   UNL     1      18.828   8.646   6.572  0.00  0.00    +0.023 A 
ATOM     31  C   UNL     1      18.371   8.253   4.233  0.00  0.00    +0.023 A 
ATOM     32  C   UNL     1      20.081   8.050   6.427  0.00  0.00    +0.002 A 
ATOM     33  C   UNL     1      19.623   7.657   4.088  0.00  0.00    +0.002 A 
ATOM     34  C   UNL     1      20.478   7.555   5.186  0.00  0.00    +0.000 A 
ENDBRANCH   9  29
ENDBRANCH  20   8
TORSDOF 3
ENDMDL
MODEL 2
REMARK VINA RESULT:      -7.4      3.085      7.352
REMARK  Name = 11885929
REMARK  3 active torsions:
REMARK  status: ('A' for Active; 'I' for Inactive)
REMARK    1  A    between atoms: N_7  and  C_22
REMARK    2  A    between atoms: N_8  and  C_20
REMARK    3  A    between atoms: N_9  and  C_29
REMARK                            x       y       z     vdW  Elec       q    Type
REMARK                         _______ _______ _______ _____ _____    ______ ____
ROOT
ATOM      2  O   UNL     1       9.411   8.097   2.615  0.00  0.00    -0.266 OA
ATOM      3  O   UNL     1      12.461   9.802   6.500  0.00  0.00    -0.252 OA
ATOM      5  N   UNL     1      11.187   8.043   7.301  0.00  0.00    -0.284 N 
ATOM      6  N   UNL     1       9.538   7.115   4.732  0.00  0.00    -0.310 N 
ATOM      7  N   UNL     1      13.434   7.704   6.665  0.00  0.00    -0.269 N 
ATOM     10  C   UNL     1       8.740   8.297   6.857  0.00  0.00    +0.027 C 
ATOM     11  C   UNL     1       9.723   6.050   7.008  0.00  0.00    +0.054 C 
ATOM     12  C   UNL     1       8.505   6.889   7.388  0.00  0.00    +0.018 C 
ATOM     13  C   UNL     1      10.012   8.899   7.480  0.00  0.00    +0.114 C 
ATOM     14  C   UNL     1       8.816   8.248   5.327  0.00  0.00    +0.130 C 
ATOM     15  C   UNL     1      10.987   6.632   7.675  0.00  0.00    +0.119 C 
ATOM     16  C   UNL     1       9.912   6.010   5.502  0.00  0.00    +0.027 A 
ATOM     17  C   UNL     1      10.467   4.936   4.919  0.00  0.00    +0.024 A 
ATOM     18  C   UNL     1       9.739   7.154   3.338  0.00  0.00    +0.273 A 
ATOM     19  C   UNL     1      12.378   8.605   6.789  0.00  0.00    +0.306 C 
ATOM     20  C   UNL     1      10.384   5.948   2.728  0.00  0.00    +0.100 A 
ATOM     21  C   UNL     1      10.708   4.907   3.503  0.00  0.00    +0.030 A 
ATOM     35  H   UNL     1      13.462   6.907   7.290  0.00  0.00    +0.156 HD
ENDROOT
BRANCH   7  22
ATOM      1  F   UNL     1      17.744   8.046   3.201  0.00  0.00    -0.205 F 
ATOM     22  C   UNL     1      14.536   7.793   5.778  0.00  0.00    +0.035 A 
ATOM     24  C   UNL     1      14.420   7.306   4.480  0.00  0.00    +0.026 A 
ATOM     25  C   UNL     1      15.729   8.364   6.213  0.00  0.00    +0.026 A 
ATOM     26  C   UNL     1      15.504   7.392   3.607  0.00  0.00    +0.040 A 
ATOM     27  C   UNL     1      16.814   8.450   5.340  0.00  0.00    +0.040 A 
ATOM     28  C   UNL     1      16.702   7.965   4.038  0.00  0.00    +0.124 A 
ENDBRANCH   7  22
BRANCH  20   8
ATOM      4  O   UNL     1       9.571   3.941   0.885  0.00  0.00    -0.252 OA
ATOM      8  N   UNL     1      10.610   5.953   1.384  0.00  0.00    -0.265 N 
ATOM      9  N   UNL     1      10.574   5.236  -0.796  0.00  0.00    -0.269 N 
ATOM     23  C   UNL     1      10.189   4.937   0.515  0.00  0.00    +0.308 C 
ATOM     36  H   UNL     1      11.322   6.591   1.040  0.00  0.00    +0.157 HD
ATOM     37  H   UNL     1      11.080   6.107  -0.935  0.00  0.00    +0.156 HD
BRANCH   9  29
ATOM     29  C   UNL     1      10.344   4.473  -1.964  0.00  0.00    +0.035 A 
ATOM     30  C   UNL     1      11.126   3.356  -2.211  0.00  0.00    +0.023 A 
ATOM     31  C   UNL     1       9.339   4.856  -2.838  0.00  0.00    +0.023 A 
ATOM     32  C   UNL     1      10.898   2.603  -3.363  0.00  0.00    +0.002 A 
ATOM     33  C   UNL     1       9.111   4.103  -3.989  0.00  0.00    +0.002 A 
ATOM     34  C   UNL     1       9.890   2.975  -4.252  0.00  0.00    +0.000 A 
ENDBRANCH   9  29
ENDBRANCH  20   8
TORSDOF 3
ENDMDL
MODEL 3
REMARK VINA RESULT:      -7.2     29.062     33.122
REMARK  Name = 11885929
REMARK  3 active torsions:
REMARK  status: ('A' for Active; 'I' for Inactive)
REMARK    1  A    between atoms: N_7  and  C_22
REMARK    2  A    between atoms: N_8  and  C_20
REMARK    3  A    between atoms: N_9  and  C_29
REMARK                            x       y       z     vdW  Elec       q    Type
REMARK                         _______ _______ _______ _____ _____    ______ ____
ROOT
ATOM      2  O   UNL     1     -11.667 -13.005  17.832  0.00  0.00    -0.266 OA
ATOM      3  O   UNL     1      -7.754 -10.917  15.069  0.00  0.00    -0.252 OA
ATOM      5  N   UNL     1      -9.251  -9.231  15.589  0.00  0.00    -0.284 N 
ATOM      6  N   UNL     1     -11.440 -10.727  17.364  0.00  0.00    -0.310 N 
ATOM      7  N   UNL     1      -7.262  -9.493  16.831  0.00  0.00    -0.269 N 
ATOM     10  C   UNL     1     -11.617  -9.775  14.994  0.00  0.00    +0.027 C 
ATOM     11  C   UNL     1     -11.152  -8.270  16.881  0.00  0.00    +0.054 C 
ATOM     12  C   UNL     1     -12.077  -8.500  15.689  0.00  0.00    +0.018 C 
ATOM     13  C   UNL     1     -10.163  -9.628  14.514  0.00  0.00    +0.114 C 
ATOM     14  C   UNL     1     -11.790 -10.957  15.955  0.00  0.00    +0.130 C 
ATOM     15  C   UNL     1      -9.702  -8.077  16.388  0.00  0.00    +0.119 C 
ATOM     16  C   UNL     1     -11.209  -9.437  17.851  0.00  0.00    +0.027 A 
ATOM     17  C   UNL     1     -11.005  -9.236  19.163  0.00  0.00    +0.024 A 
ATOM     18  C   UNL     1     -11.451 -11.853  18.211  0.00  0.00    +0.273 A 
ATOM     19  C   UNL     1      -8.057  -9.960  15.786  0.00  0.00    +0.306 C 
ATOM     20  C   UNL     1     -11.194 -11.591  19.663  0.00  0.00    +0.100 A 
ATOM     21  C   UNL     1     -10.996 -10.338  20.085  0.00  0.00    +0.030 A 
ATOM     35  H   UNL     1      -7.317  -8.511  17.076  0.00  0.00    +0.156 HD
ENDROOT
BRANCH   7  22
ATOM      1  F   UNL     1      -3.572 -12.393  19.775  0.00  0.00    -0.205 F 
ATOM     22  C   UNL     1      -6.317 -10.233  17.584  0.00  0.00    +0.035 A 
ATOM     24  C   UNL     1      -5.065 -10.510  17.044  0.00  0.00    +0.026 A 
ATOM     25  C   UNL     1      -6.649 -10.682  18.860  0.00  0.00    +0.026 A 
ATOM     26  C   UNL     1      -4.135 -11.240  17.785  0.00  0.00    +0.040 A 
ATOM     27  C   UNL     1      -5.719 -11.412  19.601  0.00  0.00    +0.040 A 
ATOM     28  C   UNL     1      -4.463 -11.691  19.064  0.00  0.00    +0.124 A 
ENDBRANCH   7  22
BRANCH  20   8
ATOM      4  O   UNL     1      -8.911 -13.116  20.404  0.00  0.00    -0.252 OA
ATOM      8  N   UNL     1     -11.181 -12.656  20.514  0.00  0.00    -0.265 N 
ATOM      9  N   UNL     1     -10.346 -14.407  21.739  0.00  0.00    -0.269 N 
ATOM     23  C   UNL     1     -10.027 -13.377  20.848  0.00  0.00    +0.308 C 
ATOM     36  H   UNL     1     -12.076 -13.093  20.717  0.00  0.00    +0.157 HD
ATOM     37  H   UNL     1     -11.322 -14.487  22.013  0.00  0.00    +0.156 HD
BRANCH   9  29
ATOM     29  C   UNL     1      -9.472 -15.358  22.316  0.00  0.00    +0.035 A 
ATOM     30  C   UNL     1      -9.003 -15.155  23.605  0.00  0.00    +0.023 A 
ATOM     31  C   UNL     1      -9.102 -16.473  21.583  0.00  0.00    +0.023 A 
ATOM     32  C   UNL     1      -8.141 -16.092  24.174  0.00  0.00    +0.002 A 
ATOM     33  C   UNL     1      -8.241 -17.411  22.152  0.00  0.00    +0.002 A 
ATOM     34  C   UNL     1      -7.760 -17.221  23.448  0.00  0.00    +0.000 A 
ENDBRANCH   9  29
ENDBRANCH  20   8
TORSDOF 3
ENDMDL
MODEL 4
REMARK VINA RESULT:      -7.1      2.700      5.910
REMARK  Name = 11885929
REMARK  3 active torsions:
REMARK  status: ('A' for Active; 'I' for Inactive)
REMARK    1  A    between atoms: N_7  and  C_22
REMARK    2  A    between atoms: N_8  and  C_20
REMARK    3  A    between atoms: N_9  and  C_29
REMARK                            x       y       z     vdW  Elec       q    Type
REMARK                         _______ _______ _______ _____ _____    ______ ____
ROOT
ATOM      2  O   UNL     1      10.113   6.974   1.021  0.00  0.00    -0.266 OA
ATOM      3  O   UNL     1      11.797   9.794   5.084  0.00  0.00    -0.252 OA
ATOM      5  N   UNL     1      10.397   8.136   5.887  0.00  0.00    -0.284 N 
ATOM      6  N   UNL     1       9.627   6.502   3.258  0.00  0.00    -0.310 N 
ATOM      7  N   UNL     1      12.740   7.894   6.020  0.00  0.00    -0.269 N 
ATOM     10  C   UNL     1       8.190   8.037   4.717  0.00  0.00    +0.027 C 
ATOM     11  C   UNL     1       9.151   5.989   5.679  0.00  0.00    +0.054 C 
ATOM     12  C   UNL     1       7.851   6.764   5.481  0.00  0.00    +0.018 C 
ATOM     13  C   UNL     1       9.196   8.887   5.512  0.00  0.00    +0.114 C 
ATOM     14  C   UNL     1       8.725   7.659   3.331  0.00  0.00    +0.130 C 
ATOM     15  C   UNL     1      10.138   6.829   6.517  0.00  0.00    +0.119 C 
ATOM     16  C   UNL     1       9.786   5.638   4.345  0.00  0.00    +0.027 A 
ATOM     17  C   UNL     1      10.524   4.523   4.221  0.00  0.00    +0.024 A 
ATOM     18  C   UNL     1      10.238   6.252   2.012  0.00  0.00    +0.273 A 
ATOM     19  C   UNL     1      11.669   8.689   5.617  0.00  0.00    +0.306 C 
ATOM     20  C   UNL     1      11.073   5.013   1.921  0.00  0.00    +0.100 A 
ATOM     21  C   UNL     1      11.181   4.207   2.983  0.00  0.00    +0.030 A 
ATOM     35  H   UNL     1      12.604   7.262   6.800  0.00  0.00    +0.156 HD
ENDROOT
BRANCH   7  22
ATOM      1  F   UNL     1      17.880   7.898   3.952  0.00  0.00    -0.205 F 
ATOM     22  C   UNL     1      14.054   7.897   5.491  0.00  0.00    +0.035 A 
ATOM     24  C   UNL     1      14.296   7.343   4.237  0.00  0.00    +0.026 A 
ATOM     25  C   UNL     1      15.097   8.451   6.229  0.00  0.00    +0.026 A 
ATOM     26  C   UNL     1      15.590   7.343   3.715  0.00  0.00    +0.040 A 
ATOM     27  C   UNL     1      16.391   8.451   5.707  0.00  0.00    +0.040 A 
ATOM     28  C   UNL     1      16.637   7.898   4.452  0.00  0.00    +0.124 A 
ENDBRANCH   7  22
BRANCH  20   8
ATOM      4  O   UNL     1      13.828   5.416   1.344  0.00  0.00    -0.252 OA
ATOM      8  N   UNL     1      11.693   4.744   0.737  0.00  0.00    -0.265 N 
ATOM      9  N   UNL     1      13.384   4.586  -0.807  0.00  0.00    -0.269 N 
ATOM     23  C   UNL     1      13.057   4.961   0.501  0.00  0.00    +0.308 C 
ATOM     36  H   UNL     1      11.097   4.615  -0.076  0.00  0.00    +0.157 HD
ATOM     37  H   UNL     1      12.626   4.223  -1.379  0.00  0.00    +0.156 HD
BRANCH   9  29
ATOM     29  C   UNL     1      14.649   4.647  -1.437  0.00  0.00    +0.035 A 
ATOM     30  C   UNL     1      15.774   4.232  -0.742  0.00  0.00    +0.023 A 
ATOM     31  C   UNL     1      14.738   5.119  -2.736  0.00  0.00    +0.023 A 
ATOM     32  C   UNL     1      17.021   4.291  -1.364  0.00  0.00    +0.002 A 
ATOM     33  C   UNL     1      15.984   5.178  -3.358  0.00  0.00    +0.002 A 
ATOM     34  C   UNL     1      17.126   4.763  -2.672  0.00  0.00    +0.000 A 
ENDBRANCH   9  29
ENDBRANCH  20   8
TORSDOF 3
ENDMDL
MODEL 5
REMARK VINA RESULT:      -7.1     26.708     28.624
REMARK  Name = 11885929
REMARK  3 active torsions:
REMARK  status: ('A' for Active; 'I' for Inactive)
REMARK    1  A    between atoms: N_7  and  C_22
REMARK    2  A    between atoms: N_8  and  C_20
REMARK    3  A    between atoms: N_9  and  C_29
REMARK                            x       y       z     vdW  Elec       q    Type
REMARK                         _______ _______ _______ _____ _____    ______ ____
ROOT
ATOM      2  O   UNL     1      -6.151  -8.651  11.509  0.00  0.00    -0.266 OA
ATOM      3  O   UNL     1      -8.535  -5.979   7.704  0.00  0.00    -0.252 OA
ATOM      5  N   UNL     1      -8.897  -8.235   7.338  0.00  0.00    -0.284 N 
ATOM      6  N   UNL     1      -7.472  -9.613   9.838  0.00  0.00    -0.310 N 
ATOM      7  N   UNL     1     -10.571  -6.897   8.326  0.00  0.00    -0.269 N 
ATOM     10  C   UNL     1      -6.804  -9.602   7.367  0.00  0.00    +0.027 C 
ATOM     11  C   UNL     1      -8.934 -10.622   8.051  0.00  0.00    +0.054 C 
ATOM     12  C   UNL     1      -7.642 -10.872   7.278  0.00  0.00    +0.018 C 
ATOM     13  C   UNL     1      -7.566  -8.415   6.754  0.00  0.00    +0.114 C 
ATOM     14  C   UNL     1      -6.432  -9.352   8.833  0.00  0.00    +0.130 C 
ATOM     15  C   UNL     1      -9.715  -9.460   7.401  0.00  0.00    +0.119 C 
ATOM     16  C   UNL     1      -8.647 -10.293   9.505  0.00  0.00    +0.027 A 
ATOM     17  C   UNL     1      -9.531 -10.623  10.460  0.00  0.00    +0.024 A 
ATOM     18  C   UNL     1      -7.180  -9.236  11.164  0.00  0.00    +0.273 A 
ATOM     19  C   UNL     1      -9.284  -6.956   7.795  0.00  0.00    +0.306 C 
ATOM     20  C   UNL     1      -8.202  -9.599  12.196  0.00  0.00    +0.100 A 
ATOM     21  C   UNL     1      -9.302 -10.267  11.832  0.00  0.00    +0.030 A 
ATOM     35  H   UNL     1     -11.261  -7.559   7.990  0.00  0.00    +0.156 HD
ENDROOT
BRANCH   7  22
ATOM      1  F   UNL     1     -12.508  -3.253  12.023  0.00  0.00    -0.205 F 
ATOM     22  C   UNL     1     -11.065  -5.965   9.272  0.00  0.00    +0.035 A 
ATOM     24  C   UNL     1     -11.719  -6.419  10.414  0.00  0.00    +0.026 A 
ATOM     25  C   UNL     1     -10.895  -4.601   9.054  0.00  0.00    +0.026 A 
ATOM     26  C   UNL     1     -12.207  -5.502  11.345  0.00  0.00    +0.040 A 
ATOM     27  C   UNL     1     -11.383  -3.684   9.985  0.00  0.00    +0.040 A 
ATOM     28  C   UNL     1     -12.038  -4.134  11.130  0.00  0.00    +0.124 A 
ENDBRANCH   7  22
BRANCH  20   8
ATOM      4  O   UNL     1      -7.057 -11.247  14.211  0.00  0.00    -0.252 OA
ATOM      8  N   UNL     1      -7.964  -9.239  13.489  0.00  0.00    -0.265 N 
ATOM      9  N   UNL     1      -7.284  -9.424  15.673  0.00  0.00    -0.269 N 
ATOM     23  C   UNL     1      -7.396 -10.089  14.447  0.00  0.00    +0.308 C 
ATOM     36  H   UNL     1      -8.441  -8.409  13.830  0.00  0.00    +0.157 HD
ATOM     37  H   UNL     1      -7.610  -8.462  15.701  0.00  0.00    +0.156 HD
BRANCH   9  29
ATOM     29  C   UNL     1      -6.766  -9.927  16.889  0.00  0.00    +0.035 A 
ATOM     30  C   UNL     1      -5.418 -10.236  16.976  0.00  0.00    +0.023 A 
ATOM     31  C   UNL     1      -7.616 -10.101  17.969  0.00  0.00    +0.023 A 
ATOM     32  C   UNL     1      -4.906 -10.731  18.176  0.00  0.00    +0.002 A 
ATOM     33  C   UNL     1      -7.105 -10.596  19.169  0.00  0.00    +0.002 A 
ATOM     34  C   UNL     1      -5.749 -10.911  19.272  0.00  0.00    +0.000 A 
ENDBRANCH   9  29
ENDBRANCH  20   8
TORSDOF 3
ENDMDL
MODEL 6
REMARK VINA RESULT:      -7.1     15.686     20.472
REMARK  Name = 11885929
REMARK  3 active torsions:
REMARK  status: ('A' for Active; 'I' for Inactive)
REMARK    1  A    between atoms: N_7  and  C_22
REMARK    2  A    between atoms: N_8  and  C_20
REMARK    3  A    between atoms: N_9  and  C_29
REMARK                            x       y       z     vdW  Elec       q    Type
REMARK                         _______ _______ _______ _____ _____    ______ ____
ROOT
ATOM      2  O   UNL     1      -6.571  10.345   5.523  0.00  0.00    -0.266 OA
ATOM      3  O   UNL     1      -2.518  12.233   2.818  0.00  0.00    -0.252 OA
ATOM      5  N   UNL     1      -1.714  10.678   4.332  0.00  0.00    -0.284 N 
ATOM      6  N   UNL     1      -4.366   9.598   5.739  0.00  0.00    -0.310 N 
ATOM      7  N   UNL     1      -2.018  10.098   2.065  0.00  0.00    -0.269 N 
ATOM     10  C   UNL     1      -2.492  11.068   6.676  0.00  0.00    +0.027 C 
ATOM     11  C   UNL     1      -1.990   8.782   5.925  0.00  0.00    +0.054 C 
ATOM     12  C   UNL     1      -1.856   9.750   7.098  0.00  0.00    +0.018 C 
ATOM     13  C   UNL     1      -1.775  11.636   5.439  0.00  0.00    +0.114 C 
ATOM     14  C   UNL     1      -3.987  10.843   6.422  0.00  0.00    +0.130 C 
ATOM     15  C   UNL     1      -1.228   9.336   4.701  0.00  0.00    +0.119 C 
ATOM     16  C   UNL     1      -3.447   8.561   5.561  0.00  0.00    +0.027 A 
ATOM     17  C   UNL     1      -3.843   7.389   5.039  0.00  0.00    +0.024 A 
ATOM     18  C   UNL     1      -5.720   9.466   5.370  0.00  0.00    +0.273 A 
ATOM     19  C   UNL     1      -2.122  11.085   3.043  0.00  0.00    +0.306 C 
ATOM     20  C   UNL     1      -6.117   8.154   4.769  0.00  0.00    +0.100 A 
ATOM     21  C   UNL     1      -5.206   7.184   4.635  0.00  0.00    +0.030 A 
ATOM     35  H   UNL     1      -1.317   9.375   2.184  0.00  0.00    +0.156 HD
ENDROOT
BRANCH   7  22
ATOM      1  F   UNL     1      -4.920   9.733  -2.640  0.00  0.00    -0.205 F 
ATOM     22  C   UNL     1      -2.760  10.003   0.862  0.00  0.00    +0.035 A 
ATOM     24  C   UNL     1      -2.099   9.786  -0.343  0.00  0.00    +0.026 A 
ATOM     25  C   UNL     1      -4.147  10.129   0.892  0.00  0.00    +0.026 A 
ATOM     26  C   UNL     1      -2.829   9.694  -1.529  0.00  0.00    +0.040 A 
ATOM     27  C   UNL     1      -4.877  10.037  -0.293  0.00  0.00    +0.040 A 
ATOM     28  C   UNL     1      -4.219   9.820  -1.503  0.00  0.00    +0.124 A 
ENDBRANCH   7  22
BRANCH  20   8
ATOM      4  O   UNL     1      -8.184   6.952   6.309  0.00  0.00    -0.252 OA
ATOM      8  N   UNL     1      -7.415   7.992   4.384  0.00  0.00    -0.265 N 
ATOM      9  N   UNL     1      -9.622   7.376   4.503  0.00  0.00    -0.269 N 
ATOM     23  C   UNL     1      -8.398   7.392   5.181  0.00  0.00    +0.308 C 
ATOM     36  H   UNL     1      -7.615   8.086   3.392  0.00  0.00    +0.157 HD
ATOM     37  H   UNL     1      -9.632   7.784   3.571  0.00  0.00    +0.156 HD
BRANCH   9  29
ATOM     29  C   UNL     1     -10.859   6.861   4.956  0.00  0.00    +0.035 A 
ATOM     30  C   UNL     1     -11.645   7.629   5.800  0.00  0.00    +0.023 A 
ATOM     31  C   UNL     1     -11.261   5.600   4.546  0.00  0.00    +0.023 A 
ATOM     32  C   UNL     1     -12.866   7.122   6.246  0.00  0.00    +0.002 A 
ATOM     33  C   UNL     1     -12.481   5.093   4.992  0.00  0.00    +0.002 A 
ATOM     34  C   UNL     1     -13.284   5.854   5.842  0.00  0.00    +0.000 A 
ENDBRANCH   9  29
ENDBRANCH  20   8
TORSDOF 3
ENDMDL
MODEL 7
REMARK VINA RESULT:      -6.9     30.565     34.920
REMARK  Name = 11885929
REMARK  3 active torsions:
REMARK  status: ('A' for Active; 'I' for Inactive)
REMARK    1  A    between atoms: N_7  and  C_22
REMARK    2  A    between atoms: N_8  and  C_20
REMARK    3  A    between atoms: N_9  and  C_29
REMARK                            x       y       z     vdW  Elec       q    Type
REMARK                         _______ _______ _______ _____ _____    ______ ____
ROOT
ATOM      2  O   UNL     1     -12.510   5.091  22.475  0.00  0.00    -0.266 OA
ATOM      3  O   UNL     1     -12.956  10.195  23.502  0.00  0.00    -0.252 OA
ATOM      5  N   UNL     1     -13.482   9.859  21.274  0.00  0.00    -0.284 N 
ATOM      6  N   UNL     1     -13.265   6.692  20.948  0.00  0.00    -0.310 N 
ATOM      7  N   UNL     1     -15.189  10.131  22.880  0.00  0.00    -0.269 N 
ATOM     10  C   UNL     1     -11.759   8.545  20.026  0.00  0.00    +0.027 C 
ATOM     11  C   UNL     1     -14.114   8.430  19.333  0.00  0.00    +0.054 C 
ATOM     12  C   UNL     1     -12.680   8.502  18.814  0.00  0.00    +0.018 C 
ATOM     13  C   UNL     1     -12.070   9.779  20.891  0.00  0.00    +0.114 C 
ATOM     14  C   UNL     1     -11.907   7.238  20.813  0.00  0.00    +0.130 C 
ATOM     15  C   UNL     1     -14.435   9.693  20.161  0.00  0.00    +0.119 C 
ATOM     16  C   UNL     1     -14.325   7.193  20.188  0.00  0.00    +0.027 A 
ATOM     17  C   UNL     1     -15.532   6.605  20.241  0.00  0.00    +0.024 A 
ATOM     18  C   UNL     1     -13.418   5.579  21.799  0.00  0.00    +0.273 A 
ATOM     19  C   UNL     1     -13.820  10.066  22.630  0.00  0.00    +0.306 C 
ATOM     20  C   UNL     1     -14.783   4.968  21.850  0.00  0.00    +0.100 A 
ATOM     21  C   UNL     1     -15.762   5.471  21.090  0.00  0.00    +0.030 A 
ATOM     35  H   UNL     1     -15.799  10.454  22.138  0.00  0.00    +0.156 HD
ENDROOT
BRANCH   7  22
ATOM      1  F   UNL     1     -17.783   9.001  27.643  0.00  0.00    -0.205 F 
ATOM     22  C   UNL     1     -15.851   9.841  24.099  0.00  0.00    +0.035 A 
ATOM     24  C   UNL     1     -16.702   8.743  24.179  0.00  0.00    +0.026 A 
ATOM     25  C   UNL     1     -15.648  10.658  25.208  0.00  0.00    +0.026 A 
ATOM     26  C   UNL     1     -17.356   8.458  25.378  0.00  0.00    +0.040 A 
ATOM     27  C   UNL     1     -16.301  10.373  26.407  0.00  0.00    +0.040 A 
ATOM     28  C   UNL     1     -17.155   9.274  26.492  0.00  0.00    +0.124 A 
ENDBRANCH   7  22
BRANCH  20   8
ATOM      4  O   UNL     1     -16.171   4.994  24.332  0.00  0.00    -0.252 OA
ATOM      8  N   UNL     1     -14.977   3.899  22.673  0.00  0.00    -0.265 N 
ATOM      9  N   UNL     1     -15.693   2.702  24.496  0.00  0.00    -0.269 N 
ATOM     23  C   UNL     1     -15.669   3.963  23.890  0.00  0.00    +0.308 C 
ATOM     36  H   UNL     1     -14.387   3.086  22.518  0.00  0.00    +0.157 HD
ATOM     37  H   UNL     1     -15.231   1.947  23.995  0.00  0.00    +0.156 HD
BRANCH   9  29
ATOM     29  C   UNL     1     -16.289   2.341  25.727  0.00  0.00    +0.035 A 
ATOM     30  C   UNL     1     -17.046   1.183  25.802  0.00  0.00    +0.023 A 
ATOM     31  C   UNL     1     -16.102   3.153  26.834  0.00  0.00    +0.023 A 
ATOM     32  C   UNL     1     -17.632   0.827  27.016  0.00  0.00    +0.002 A 
ATOM     33  C   UNL     1     -16.689   2.797  28.049  0.00  0.00    +0.002 A 
ATOM     34  C   UNL     1     -17.453   1.634  28.140  0.00  0.00    +0.000 A 
ENDBRANCH   9  29
ENDBRANCH  20   8
TORSDOF 3
ENDMDL
MODEL 8
REMARK VINA RESULT:      -6.9     26.026     28.163
REMARK  Name = 11885929
REMARK  3 active torsions:
REMARK  status: ('A' for Active; 'I' for Inactive)
REMARK    1  A    between atoms: N_7  and  C_22
REMARK    2  A    between atoms: N_8  and  C_20
REMARK    3  A    between atoms: N_9  and  C_29
REMARK                            x       y       z     vdW  Elec       q    Type
REMARK                         _______ _______ _______ _____ _____    ______ ____
ROOT
ATOM      2  O   UNL     1      -8.143 -10.499  11.497  0.00  0.00    -0.266 OA
ATOM      3  O   UNL     1      -5.846 -14.718   9.441  0.00  0.00    -0.252 OA
ATOM      5  N   UNL     1      -5.349 -12.899   8.099  0.00  0.00    -0.284 N 
ATOM      6  N   UNL     1      -6.739 -10.468   9.628  0.00  0.00    -0.310 N 
ATOM      7  N   UNL     1      -3.772 -13.703   9.659  0.00  0.00    -0.269 N 
ATOM     10  C   UNL     1      -7.361 -11.585   7.410  0.00  0.00    +0.027 C 
ATOM     11  C   UNL     1      -5.190 -10.456   7.641  0.00  0.00    +0.054 C 
ATOM     12  C   UNL     1      -6.452 -10.535   6.785  0.00  0.00    +0.018 C 
ATOM     13  C   UNL     1      -6.657 -12.952   7.441  0.00  0.00    +0.114 C 
ATOM     14  C   UNL     1      -7.774 -11.118   8.811  0.00  0.00    +0.130 C 
ATOM     15  C   UNL     1      -4.464 -11.818   7.629  0.00  0.00    +0.119 C 
ATOM     16  C   UNL     1      -5.522 -10.067   9.070  0.00  0.00    +0.027 A 
ATOM     17  C   UNL     1      -4.638  -9.373   9.805  0.00  0.00    +0.024 A 
ATOM     18  C   UNL     1      -7.077 -10.181  10.966  0.00  0.00    +0.273 A 
ATOM     19  C   UNL     1      -5.044 -13.841   9.106  0.00  0.00    +0.306 C 
ATOM     20  C   UNL     1      -6.054  -9.428  11.759  0.00  0.00    +0.100 A 
ATOM     21  C   UNL     1      -4.912  -9.050  11.177  0.00  0.00    +0.030 A 
ATOM     35  H   UNL     1      -3.040 -13.299   9.087  0.00  0.00    +0.156 HD
ENDROOT
BRANCH   7  22
ATOM      1  F   UNL     1      -2.112 -15.317  14.693  0.00  0.00    -0.205 F 
ATOM     22  C   UNL     1      -3.349 -14.116  10.947  0.00  0.00    +0.035 A 
ATOM     24  C   UNL     1      -3.307 -13.195  11.990  0.00  0.00    +0.026 A 
ATOM     25  C   UNL     1      -2.976 -15.440  11.161  0.00  0.00    +0.026 A 
ATOM     26  C   UNL     1      -2.889 -13.601  13.258  0.00  0.00    +0.040 A 
ATOM     27  C   UNL     1      -2.558 -15.846  12.429  0.00  0.00    +0.040 A 
ATOM     28  C   UNL     1      -2.514 -14.927  13.476  0.00  0.00    +0.124 A 
ENDBRANCH   7  22
BRANCH  20   8
ATOM      4  O   UNL     1      -5.410 -11.050  14.005  0.00  0.00    -0.252 OA
ATOM      8  N   UNL     1      -6.336  -9.145  13.063  0.00  0.00    -0.265 N 
ATOM      9  N   UNL     1      -6.423  -9.408  15.341  0.00  0.00    -0.269 N 
ATOM     23  C   UNL     1      -5.997  -9.978  14.136  0.00  0.00    +0.308 C 
ATOM     36  H   UNL     1      -7.032  -8.425  13.236  0.00  0.00    +0.157 HD
ATOM     37  H   UNL     1      -6.895  -8.509  15.277  0.00  0.00    +0.156 HD
BRANCH   9  29
ATOM     29  C   UNL     1      -6.276  -9.928  16.648  0.00  0.00    +0.035 A 
ATOM     30  C   UNL     1      -7.394 -10.058  17.457  0.00  0.00    +0.023 A 
ATOM     31  C   UNL     1      -5.017 -10.297  17.093  0.00  0.00    +0.023 A 
ATOM     32  C   UNL     1      -7.248 -10.571  18.745  0.00  0.00    +0.002 A 
ATOM     33  C   UNL     1      -4.872 -10.811  18.382  0.00  0.00    +0.002 A 
ATOM     34  C   UNL     1      -5.988 -10.948  19.208  0.00  0.00    +0.000 A 
ENDBRANCH   9  29
ENDBRANCH  20   8
TORSDOF 3
ENDMDL
MODEL 9
REMARK VINA RESULT:      -6.9     27.724     30.321
REMARK  Name = 11885929
REMARK  3 active torsions:
REMARK  status: ('A' for Active; 'I' for Inactive)
REMARK    1  A    between atoms: N_7  and  C_22
REMARK    2  A    between atoms: N_8  and  C_20
REMARK    3  A    between atoms: N_9  and  C_29
REMARK                            x       y       z     vdW  Elec       q    Type
REMARK                         _______ _______ _______ _____ _____    ______ ____
ROOT
ATOM      2  O   UNL     1     -11.607  -9.750  14.643  0.00  0.00    -0.266 OA
ATOM      3  O   UNL     1     -14.259  -7.713  10.629  0.00  0.00    -0.252 OA
ATOM      5  N   UNL     1     -14.956  -6.654  12.566  0.00  0.00    -0.284 N 
ATOM      6  N   UNL     1     -13.113  -7.971  14.813  0.00  0.00    -0.310 N 
ATOM      7  N   UNL     1     -13.406  -5.614  11.122  0.00  0.00    -0.269 N 
ATOM     10  C   UNL     1     -15.623  -8.235  14.385  0.00  0.00    +0.027 C 
ATOM     11  C   UNL     1     -14.710  -6.027  14.964  0.00  0.00    +0.054 C 
ATOM     12  C   UNL     1     -15.770  -7.059  15.342  0.00  0.00    +0.018 C 
ATOM     13  C   UNL     1     -15.830  -7.772  12.932  0.00  0.00    +0.114 C 
ATOM     14  C   UNL     1     -14.247  -8.879  14.593  0.00  0.00    +0.130 C 
ATOM     15  C   UNL     1     -14.952  -5.533  13.522  0.00  0.00    +0.119 C 
ATOM     16  C   UNL     1     -13.313  -6.612  15.074  0.00  0.00    +0.027 A 
ATOM     17  C   UNL     1     -12.272  -5.823  15.387  0.00  0.00    +0.024 A 
ATOM     18  C   UNL     1     -11.831  -8.556  14.849  0.00  0.00    +0.273 A 
ATOM     19  C   UNL     1     -14.197  -6.733  11.377  0.00  0.00    +0.306 C 
ATOM     20  C   UNL     1     -10.694  -7.638  15.176  0.00  0.00    +0.100 A 
ATOM     21  C   UNL     1     -10.937  -6.349  15.437  0.00  0.00    +0.030 A 
ATOM     35  H   UNL     1     -13.708  -4.718  11.488  0.00  0.00    +0.156 HD
ENDROOT
BRANCH   7  22
ATOM      1  F   UNL     1      -8.766  -5.411   8.102  0.00  0.00    -0.205 F 
ATOM     22  C   UNL     1     -12.220  -5.562  10.348  0.00  0.00    +0.035 A 
ATOM     24  C   UNL     1     -11.587  -6.743   9.973  0.00  0.00    +0.026 A 
ATOM     25  C   UNL     1     -11.694  -4.330   9.970  0.00  0.00    +0.026 A 
ATOM     26  C   UNL     1     -10.419  -6.693   9.212  0.00  0.00    +0.040 A 
ATOM     27  C   UNL     1     -10.526  -4.279   9.209  0.00  0.00    +0.040 A 
ATOM     28  C   UNL     1      -9.888  -5.460   8.831  0.00  0.00    +0.124 A 
ENDBRANCH   7  22
BRANCH  20   8
ATOM      4  O   UNL     1      -9.419  -8.809  17.433  0.00  0.00    -0.252 OA
ATOM      8  N   UNL     1      -9.436  -8.162  15.206  0.00  0.00    -0.265 N 
ATOM      9  N   UNL     1      -7.557  -9.174  16.051  0.00  0.00    -0.269 N 
ATOM     23  C   UNL     1      -8.851  -8.729  16.346  0.00  0.00    +0.308 C 
ATOM     36  H   UNL     1      -8.814  -7.909  14.443  0.00  0.00    +0.157 HD
ATOM     37  H   UNL     1      -7.235  -9.035  15.097  0.00  0.00    +0.156 HD
BRANCH   9  29
ATOM     29  C   UNL     1      -6.635  -9.801  16.921  0.00  0.00    +0.035 A 
ATOM     30  C   UNL     1      -5.347 -10.055  16.477  0.00  0.00    +0.023 A 
ATOM     31  C   UNL     1      -7.038 -10.148  18.200  0.00  0.00    +0.023 A 
ATOM     32  C   UNL     1      -4.438 -10.672  17.335  0.00  0.00    +0.002 A 
ATOM     33  C   UNL     1      -6.128 -10.766  19.059  0.00  0.00    +0.002 A 
ATOM     34  C   UNL     1      -4.828 -11.028  18.626  0.00  0.00    +0.000 A 
ENDBRANCH   9  29
ENDBRANCH  20   8
TORSDOF 3
ENDMDL
MODEL 10
REMARK VINA RESULT:      -6.8      3.400      7.910
REMARK  Name = 11885929
REMARK  3 active torsions:
REMARK  status: ('A' for Active; 'I' for Inactive)
REMARK    1  A    between atoms: N_7  and  C_22
REMARK    2  A    between atoms: N_8  and  C_20
REMARK    3  A    between atoms: N_9  and  C_29
REMARK                            x       y       z     vdW  Elec       q    Type
REMARK                         _______ _______ _______ _____ _____    ______ ____
ROOT
ATOM      2  O   UNL     1      12.725   2.925   1.989  0.00  0.00    -0.266 OA
ATOM      3  O   UNL     1      16.379   6.421   0.670  0.00  0.00    -0.252 OA
ATOM      5  N   UNL     1      14.733   6.449  -0.956  0.00  0.00    -0.284 N 
ATOM      6  N   UNL     1      12.592   4.354   0.144  0.00  0.00    -0.310 N 
ATOM      7  N   UNL     1      14.790   8.109   0.719  0.00  0.00    -0.269 N 
ATOM     10  C   UNL     1      14.179   4.183  -1.858  0.00  0.00    +0.027 C 
ATOM     11  C   UNL     1      12.452   5.932  -1.816  0.00  0.00    +0.054 C 
ATOM     12  C   UNL     1      13.026   4.789  -2.648  0.00  0.00    +0.018 C 
ATOM     13  C   UNL     1      15.263   5.243  -1.598  0.00  0.00    +0.114 C 
ATOM     14  C   UNL     1      13.632   3.587  -0.555  0.00  0.00    +0.130 C 
ATOM     15  C   UNL     1      13.532   7.014  -1.599  0.00  0.00    +0.119 C 
ATOM     16  C   UNL     1      11.953   5.434  -0.472  0.00  0.00    +0.027 A 
ATOM     17  C   UNL     1      10.926   6.048   0.138  0.00  0.00    +0.024 A 
ATOM     18  C   UNL     1      12.204   3.883   1.414  0.00  0.00    +0.273 A 
ATOM     19  C   UNL     1      15.374   6.957   0.195  0.00  0.00    +0.306 C 
ATOM     20  C   UNL     1      11.073   4.610   2.072  0.00  0.00    +0.100 A 
ATOM     21  C   UNL     1      10.480   5.627   1.437  0.00  0.00    +0.030 A 
ATOM     35  H   UNL     1      14.290   8.724   0.089  0.00  0.00    +0.156 HD
ENDROOT
BRANCH   7  22
ATOM      1  F   UNL     1      15.034   9.906   5.954  0.00  0.00    -0.205 F 
ATOM     22  C   UNL     1      14.853   8.567   2.059  0.00  0.00    +0.035 A 
ATOM     24  C   UNL     1      13.893   8.153   2.977  0.00  0.00    +0.026 A 
ATOM     25  C   UNL     1      15.874   9.431   2.447  0.00  0.00    +0.026 A 
ATOM     26  C   UNL     1      13.954   8.605   4.296  0.00  0.00    +0.040 A 
ATOM     27  C   UNL     1      15.935   9.883   3.766  0.00  0.00    +0.040 A 
ATOM     28  C   UNL     1      14.975   9.471   4.689  0.00  0.00    +0.124 A 
ENDBRANCH   7  22
BRANCH  20   8
ATOM      4  O   UNL     1      10.615   6.276   4.331  0.00  0.00    -0.252 OA
ATOM      8  N   UNL     1      10.678   4.195   3.309  0.00  0.00    -0.265 N 
ATOM      9  N   UNL     1      10.068   4.326   5.518  0.00  0.00    -0.269 N 
ATOM     23  C   UNL     1      10.465   5.058   4.393  0.00  0.00    +0.308 C 
ATOM     36  H   UNL     1      10.781   3.206   3.517  0.00  0.00    +0.157 HD
ATOM     37  H   UNL     1       9.989   3.319   5.401  0.00  0.00    +0.156 HD
BRANCH   9  29
ATOM     29  C   UNL     1       9.757   4.817   6.807  0.00  0.00    +0.035 A 
ATOM     30  C   UNL     1       9.798   3.954   7.891  0.00  0.00    +0.023 A 
ATOM     31  C   UNL     1       9.418   6.151   6.962  0.00  0.00    +0.023 A 
ATOM     32  C   UNL     1       9.493   4.438   9.162  0.00  0.00    +0.002 A 
ATOM     33  C   UNL     1       9.112   6.636   8.234  0.00  0.00    +0.002 A 
ATOM     34  C   UNL     1       9.150   5.779   9.334  0.00  0.00    +0.000 A 
ENDBRANCH   9  29
ENDBRANCH  20   8
TORSDOF 3
ENDMDL
