MODEL 1
REMARK VINA RESULT:      -8.0      0.000      0.000
REMARK  Name = 51136904
REMARK  5 active torsions:
REMARK  status: ('A' for Active; 'I' for Inactive)
REMARK    1  A    between atoms: N_3  and  C_10
REMARK    2  A    between atoms: C_11  and  C_19
REMARK    3  A    between atoms: C_20  and  C_21
REMARK    4  A    between atoms: C_22  and  C_23
REMARK    5  A    between atoms: C_27  and  C_28
REMARK                            x       y       z     vdW  Elec       q    Type
REMARK                         _______ _______ _______ _____ _____    ______ ____
ROOT
ATOM      1  O   UNL     1      21.109   6.059  23.071  0.00  0.00    -0.336 OA
ATOM      5  N   UNL     1      20.799   5.998  20.853  0.00  0.00    -0.190 NA
ATOM      6  N   UNL     1      19.744   6.294  22.861  0.00  0.00    -0.056 NA
ATOM     19  C   UNL     1      21.655   5.895  21.838  0.00  0.00    +0.245 A 
ATOM     22  C   UNL     1      19.639   6.244  21.531  0.00  0.00    +0.204 A 
ENDROOT
BRANCH  22  23
ATOM      7  N   UNL     1      16.221   7.494  20.767  0.00  0.00    -0.254 NA
ATOM     23  C   UNL     1      18.394   6.434  20.846  0.00  0.00    +0.041 A 
ATOM     24  C   UNL     1      18.129   5.784  19.646  0.00  0.00    +0.015 A 
ATOM     25  C   UNL     1      17.416   7.271  21.360  0.00  0.00    +0.123 A 
ATOM     26  C   UNL     1      16.912   5.989  19.005  0.00  0.00    +0.029 A 
ATOM     27  C   UNL     1      16.000   6.845  19.601  0.00  0.00    +0.074 A 
BRANCH  27  28
ATOM      8  N   UNL     1      12.315   7.135  19.129  0.00  0.00    -0.243 NA
ATOM      9  N   UNL     1      13.416   7.818  17.097  0.00  0.00    -0.243 NA
ATOM     28  C   UNL     1      14.718   7.105  18.993  0.00  0.00    +0.037 A 
ATOM     29  C   UNL     1      13.531   6.905  19.668  0.00  0.00    +0.124 A 
ATOM     30  C   UNL     1      14.598   7.567  17.697  0.00  0.00    +0.124 A 
ATOM     31  C   UNL     1      12.330   7.584  17.860  0.00  0.00    +0.221 A 
ENDBRANCH  27  28
ENDBRANCH  22  23
BRANCH  19  11
ATOM      3  N   UNL     1      23.497   4.567  20.820  0.00  0.00    -0.288 NA
ATOM     11  C   UNL     1      23.144   5.623  21.791  0.00  0.00    +0.146 C 
ATOM     12  C   UNL     1      24.850   4.872  20.352  0.00  0.00    +0.085 C 
ATOM     13  C   UNL     1      23.960   6.851  21.347  0.00  0.00    +0.030 C 
ATOM     16  C   UNL     1      24.785   6.374  20.160  0.00  0.00    +0.017 C 
BRANCH   3  10
ATOM      2  O   UNL     1      25.733   0.309  24.651  0.00  0.00    -0.276 OA
ATOM      4  N   UNL     1      24.598   0.963  22.733  0.00  0.00    -0.302 N 
ATOM     10  C   UNL     1      23.397   3.219  21.372  0.00  0.00    +0.060 C 
ATOM     14  C   UNL     1      24.384   2.284  20.660  0.00  0.00    +0.038 C 
ATOM     15  C   UNL     1      23.676   3.244  22.880  0.00  0.00    +0.038 C 
ATOM     17  C   UNL     1      24.365   0.889  21.285  0.00  0.00    +0.109 C 
ATOM     18  C   UNL     1      23.670   1.831  23.460  0.00  0.00    +0.109 C 
ATOM     20  C   UNL     1      25.579   0.258  23.429  0.00  0.00    +0.212 C 
ATOM     21  C   UNL     1      26.497  -0.612  22.608  0.00  0.00    +0.109 C 
ENDBRANCH   3  10
ENDBRANCH  19  11
TORSDOF 4
ENDMDL
MODEL 2
REMARK VINA RESULT:      -7.5      4.268     11.561
REMARK  Name = 51136904
REMARK  5 active torsions:
REMARK  status: ('A' for Active; 'I' for Inactive)
REMARK    1  A    between atoms: N_3  and  C_10
REMARK    2  A    between atoms: C_11  and  C_19
REMARK    3  A    between atoms: C_20  and  C_21
REMARK    4  A    between atoms: C_22  and  C_23
REMARK    5  A    between atoms: C_27  and  C_28
REMARK                            x       y       z     vdW  Elec       q    Type
REMARK                         _______ _______ _______ _____ _____    ______ ____
ROOT
ATOM      1  O   UNL     1      15.500   8.887  20.390  0.00  0.00    -0.336 OA
ATOM      5  N   UNL     1      15.762   6.705  20.826  0.00  0.00    -0.190 NA
ATOM      6  N   UNL     1      16.882   8.666  20.457  0.00  0.00    -0.056 NA
ATOM     19  C   UNL     1      14.916   7.682  20.619  0.00  0.00    +0.245 A 
ATOM     22  C   UNL     1      16.957   7.358  20.718  0.00  0.00    +0.204 A 
ENDROOT
BRANCH  22  23
ATOM      7  N   UNL     1      19.756   4.994  20.083  0.00  0.00    -0.254 NA
ATOM     23  C   UNL     1      18.206   6.672  20.876  0.00  0.00    +0.041 A 
ATOM     24  C   UNL     1      19.066   6.982  21.924  0.00  0.00    +0.015 A 
ATOM     25  C   UNL     1      18.594   5.679  19.991  0.00  0.00    +0.123 A 
ATOM     26  C   UNL     1      20.271   6.300  22.051  0.00  0.00    +0.029 A 
ATOM     27  C   UNL     1      20.566   5.323  21.114  0.00  0.00    +0.074 A 
BRANCH  27  28
ATOM      8  N   UNL     1      23.092   2.775  22.119  0.00  0.00    -0.243 NA
ATOM      9  N   UNL     1      24.066   4.220  20.455  0.00  0.00    -0.243 NA
ATOM     28  C   UNL     1      21.799   4.575  21.183  0.00  0.00    +0.037 A 
ATOM     29  C   UNL     1      21.955   3.494  22.026  0.00  0.00    +0.124 A 
ATOM     30  C   UNL     1      22.899   4.896  20.413  0.00  0.00    +0.124 A 
ATOM     31  C   UNL     1      24.093   3.185  21.317  0.00  0.00    +0.221 A 
ENDBRANCH  27  28
ENDBRANCH  22  23
BRANCH  19  11
ATOM      3  N   UNL     1      12.807   9.002  20.644  0.00  0.00    -0.288 NA
ATOM     11  C   UNL     1      13.402   7.652  20.599  0.00  0.00    +0.146 C 
ATOM     12  C   UNL     1      11.528   8.914  19.937  0.00  0.00    +0.085 C 
ATOM     13  C   UNL     1      12.837   7.018  19.314  0.00  0.00    +0.030 C 
ATOM     16  C   UNL     1      11.890   8.061  18.738  0.00  0.00    +0.017 C 
BRANCH   3  10
ATOM      2  O   UNL     1       9.953  12.887  24.460  0.00  0.00    -0.276 OA
ATOM      4  N   UNL     1      11.775  11.598  23.814  0.00  0.00    -0.302 N 
ATOM     10  C   UNL     1      12.650   9.519  22.001  0.00  0.00    +0.060 C 
ATOM     14  C   UNL     1      13.433  10.829  22.158  0.00  0.00    +0.038 C 
ATOM     15  C   UNL     1      11.166   9.741  22.313  0.00  0.00    +0.038 C 
ATOM     17  C   UNL     1      13.209  11.439  23.542  0.00  0.00    +0.109 C 
ATOM     18  C   UNL     1      10.986  10.371  23.693  0.00  0.00    +0.109 C 
ATOM     20  C   UNL     1      11.155  12.786  24.203  0.00  0.00    +0.212 C 
ATOM     21  C   UNL     1      12.034  14.006  24.301  0.00  0.00    +0.109 C 
ENDBRANCH   3  10
ENDBRANCH  19  11
TORSDOF 4
ENDMDL
MODEL 3
REMARK VINA RESULT:      -7.2      1.529      2.100
REMARK  Name = 51136904
REMARK  5 active torsions:
REMARK  status: ('A' for Active; 'I' for Inactive)
REMARK    1  A    between atoms: N_3  and  C_10
REMARK    2  A    between atoms: C_11  and  C_19
REMARK    3  A    between atoms: C_20  and  C_21
REMARK    4  A    between atoms: C_22  and  C_23
REMARK    5  A    between atoms: C_27  and  C_28
REMARK                            x       y       z     vdW  Elec       q    Type
REMARK                         _______ _______ _______ _____ _____    ______ ____
ROOT
ATOM      1  O   UNL     1      21.077   6.764  22.894  0.00  0.00    -0.336 OA
ATOM      5  N   UNL     1      20.499   5.753  20.980  0.00  0.00    -0.190 NA
ATOM      6  N   UNL     1      19.770   7.183  22.610  0.00  0.00    -0.056 NA
ATOM     19  C   UNL     1      21.429   5.925  21.885  0.00  0.00    +0.245 A 
ATOM     22  C   UNL     1      19.500   6.546  21.468  0.00  0.00    +0.204 A 
ENDROOT
BRANCH  22  23
ATOM      7  N   UNL     1      16.081   7.748  20.635  0.00  0.00    -0.254 NA
ATOM     23  C   UNL     1      18.245   6.679  20.787  0.00  0.00    +0.041 A 
ATOM     24  C   UNL     1      17.953   5.912  19.665  0.00  0.00    +0.015 A 
ATOM     25  C   UNL     1      17.284   7.574  21.228  0.00  0.00    +0.123 A 
ATOM     26  C   UNL     1      16.727   6.063  19.026  0.00  0.00    +0.029 A 
ATOM     27  C   UNL     1      15.834   6.985  19.546  0.00  0.00    +0.074 A 
BRANCH  27  28
ATOM      8  N   UNL     1      13.220   7.826  17.026  0.00  0.00    -0.243 NA
ATOM      9  N   UNL     1      12.140   7.180  19.081  0.00  0.00    -0.243 NA
ATOM     28  C   UNL     1      14.543   7.195  18.935  0.00  0.00    +0.037 A 
ATOM     29  C   UNL     1      14.410   7.617  17.628  0.00  0.00    +0.124 A 
ATOM     30  C   UNL     1      13.362   6.991  19.620  0.00  0.00    +0.124 A 
ATOM     31  C   UNL     1      12.143   7.592  17.798  0.00  0.00    +0.221 A 
ENDBRANCH  27  28
ENDBRANCH  22  23
BRANCH  19  11
ATOM      3  N   UNL     1      22.800   3.849  21.957  0.00  0.00    -0.288 NA
ATOM     11  C   UNL     1      22.818   5.326  21.960  0.00  0.00    +0.146 C 
ATOM     12  C   UNL     1      24.056   3.422  21.338  0.00  0.00    +0.085 C 
ATOM     13  C   UNL     1      23.697   5.709  20.754  0.00  0.00    +0.030 C 
ATOM     16  C   UNL     1      24.176   4.386  20.175  0.00  0.00    +0.017 C 
BRANCH   3  10
ATOM      2  O   UNL     1      25.100   2.811  27.564  0.00  0.00    -0.276 OA
ATOM      4  N   UNL     1      23.726   2.277  25.768  0.00  0.00    -0.302 N 
ATOM     10  C   UNL     1      22.618   3.272  23.286  0.00  0.00    +0.060 C 
ATOM     14  C   UNL     1      23.311   1.906  23.366  0.00  0.00    +0.038 C 
ATOM     15  C   UNL     1      23.178   4.220  24.354  0.00  0.00    +0.038 C 
ATOM     17  C   UNL     1      23.215   1.323  24.776  0.00  0.00    +0.109 C 
ATOM     18  C   UNL     1      23.084   3.593  25.744  0.00  0.00    +0.109 C 
ATOM     20  C   UNL     1      24.712   2.004  26.716  0.00  0.00    +0.212 C 
ATOM     21  C   UNL     1      25.327   0.628  26.674  0.00  0.00    +0.109 C 
ENDBRANCH   3  10
ENDBRANCH  19  11
TORSDOF 4
ENDMDL
MODEL 4
REMARK VINA RESULT:      -7.1     29.178     32.752
REMARK  Name = 51136904
REMARK  5 active torsions:
REMARK  status: ('A' for Active; 'I' for Inactive)
REMARK    1  A    between atoms: N_3  and  C_10
REMARK    2  A    between atoms: C_11  and  C_19
REMARK    3  A    between atoms: C_20  and  C_21
REMARK    4  A    between atoms: C_22  and  C_23
REMARK    5  A    between atoms: C_27  and  C_28
REMARK                            x       y       z     vdW  Elec       q    Type
REMARK                         _______ _______ _______ _____ _____    ______ ____
ROOT
ATOM      1  O   UNL     1      -9.870 -11.463  17.299  0.00  0.00    -0.336 OA
ATOM      5  N   UNL     1      -8.942  -9.489  16.791  0.00  0.00    -0.190 NA
ATOM      6  N   UNL     1     -10.878 -10.703  16.691  0.00  0.00    -0.056 NA
ATOM     19  C   UNL     1      -8.765 -10.674  17.317  0.00  0.00    +0.245 A 
ATOM     22  C   UNL     1     -10.255  -9.553  16.421  0.00  0.00    +0.204 A 
ENDROOT
BRANCH  22  23
ATOM      7  N   UNL     1     -12.352  -7.642  14.017  0.00  0.00    -0.254 NA
ATOM     23  C   UNL     1     -10.911  -8.449  15.784  0.00  0.00    +0.041 A 
ATOM     24  C   UNL     1     -10.770  -7.154  16.270  0.00  0.00    +0.015 A 
ATOM     25  C   UNL     1     -11.706  -8.638  14.665  0.00  0.00    +0.123 A 
ATOM     26  C   UNL     1     -11.419  -6.103  15.631  0.00  0.00    +0.029 A 
ATOM     27  C   UNL     1     -12.191  -6.397  14.519  0.00  0.00    +0.074 A 
BRANCH  27  28
ATOM      8  N   UNL     1     -14.959  -4.376  13.056  0.00  0.00    -0.243 NA
ATOM      9  N   UNL     1     -12.858  -3.341  12.492  0.00  0.00    -0.243 NA
ATOM     28  C   UNL     1     -12.894  -5.357  13.806  0.00  0.00    +0.037 A 
ATOM     29  C   UNL     1     -14.270  -5.330  13.716  0.00  0.00    +0.124 A 
ATOM     30  C   UNL     1     -12.233  -4.326  13.168  0.00  0.00    +0.124 A 
ATOM     31  C   UNL     1     -14.202  -3.426  12.476  0.00  0.00    +0.221 A 
ENDBRANCH  27  28
ENDBRANCH  22  23
BRANCH  19  11
ATOM      3  N   UNL     1      -6.279 -10.639  17.440  0.00  0.00    -0.288 NA
ATOM     11  C   UNL     1      -7.518 -11.276  17.932  0.00  0.00    +0.146 C 
ATOM     12  C   UNL     1      -5.300 -10.751  18.522  0.00  0.00    +0.085 C 
ATOM     13  C   UNL     1      -7.466 -11.103  19.461  0.00  0.00    +0.030 C 
ATOM     16  C   UNL     1      -6.137 -10.415  19.740  0.00  0.00    +0.017 C 
BRANCH   3  10
ATOM      2  O   UNL     1      -1.481 -12.447  14.048  0.00  0.00    -0.276 OA
ATOM      4  N   UNL     1      -3.650 -11.652  14.291  0.00  0.00    -0.302 N 
ATOM     10  C   UNL     1      -5.789 -11.218  16.192  0.00  0.00    +0.060 C 
ATOM     14  C   UNL     1      -5.320 -10.107  15.245  0.00  0.00    +0.038 C 
ATOM     15  C   UNL     1      -4.644 -12.197  16.480  0.00  0.00    +0.038 C 
ATOM     17  C   UNL     1      -4.714 -10.693  13.969  0.00  0.00    +0.109 C 
ATOM     18  C   UNL     1      -4.053 -12.742  15.181  0.00  0.00    +0.109 C 
ATOM     20  C   UNL     1      -2.348 -11.609  13.791  0.00  0.00    +0.212 C 
ATOM     21  C   UNL     1      -2.011 -10.453  12.884  0.00  0.00    +0.109 C 
ENDBRANCH   3  10
ENDBRANCH  19  11
TORSDOF 4
ENDMDL
MODEL 5
REMARK VINA RESULT:      -7.0     29.466     33.411
REMARK  Name = 51136904
REMARK  5 active torsions:
REMARK  status: ('A' for Active; 'I' for Inactive)
REMARK    1  A    between atoms: N_3  and  C_10
REMARK    2  A    between atoms: C_11  and  C_19
REMARK    3  A    between atoms: C_20  and  C_21
REMARK    4  A    between atoms: C_22  and  C_23
REMARK    5  A    between atoms: C_27  and  C_28
REMARK                            x       y       z     vdW  Elec       q    Type
REMARK                         _______ _______ _______ _____ _____    ______ ____
ROOT
ATOM      1  O   UNL     1      -7.907  -7.684   6.169  0.00  0.00    -0.336 OA
ATOM      5  N   UNL     1      -8.173  -7.872   8.386  0.00  0.00    -0.190 NA
ATOM      6  N   UNL     1      -8.929  -6.791   6.517  0.00  0.00    -0.056 NA
ATOM     19  C   UNL     1      -7.519  -8.279   7.328  0.00  0.00    +0.245 A 
ATOM     22  C   UNL     1      -9.029  -6.960   7.838  0.00  0.00    +0.204 A 
ENDROOT
BRANCH  22  23
ATOM      7  N   UNL     1     -11.812  -6.277  10.208  0.00  0.00    -0.254 NA
ATOM     23  C   UNL     1      -9.970  -6.235   8.641  0.00  0.00    +0.041 A 
ATOM     24  C   UNL     1      -9.983  -4.845   8.652  0.00  0.00    +0.015 A 
ATOM     25  C   UNL     1     -10.897  -6.898   9.429  0.00  0.00    +0.123 A 
ATOM     26  C   UNL     1     -10.908  -4.170   9.440  0.00  0.00    +0.029 A 
ATOM     27  C   UNL     1     -11.793  -4.925  10.193  0.00  0.00    +0.074 A 
BRANCH  27  28
ATOM      8  N   UNL     1     -13.624  -3.777  13.229  0.00  0.00    -0.243 NA
ATOM      9  N   UNL     1     -14.790  -2.990  11.273  0.00  0.00    -0.243 NA
ATOM     28  C   UNL     1     -12.780  -4.292  11.035  0.00  0.00    +0.037 A 
ATOM     29  C   UNL     1     -12.718  -4.353  12.411  0.00  0.00    +0.124 A 
ATOM     30  C   UNL     1     -13.849  -3.590  10.515  0.00  0.00    +0.124 A 
ATOM     31  C   UNL     1     -14.619  -3.121  12.603  0.00  0.00    +0.221 A 
ENDBRANCH  27  28
ENDBRANCH  22  23
BRANCH  19  11
ATOM      3  N   UNL     1      -6.469 -10.321   8.288  0.00  0.00    -0.288 NA
ATOM     11  C   UNL     1      -6.407  -9.302   7.220  0.00  0.00    +0.146 C 
ATOM     12  C   UNL     1      -5.890 -11.542   7.726  0.00  0.00    +0.085 C 
ATOM     13  C   UNL     1      -6.464 -10.106   5.908  0.00  0.00    +0.030 C 
ATOM     16  C   UNL     1      -6.494 -11.566   6.337  0.00  0.00    +0.017 C 
BRANCH   3  10
ATOM      2  O   UNL     1      -1.232  -9.833  11.472  0.00  0.00    -0.276 OA
ATOM      4  N   UNL     1      -3.539 -10.061  11.322  0.00  0.00    -0.302 N 
ATOM     10  C   UNL     1      -5.797  -9.909   9.518  0.00  0.00    +0.060 C 
ATOM     14  C   UNL     1      -5.579 -11.123  10.430  0.00  0.00    +0.038 C 
ATOM     15  C   UNL     1      -4.459  -9.237   9.188  0.00  0.00    +0.038 C 
ATOM     17  C   UNL     1      -4.793 -10.734  11.682  0.00  0.00    +0.109 C 
ATOM     18  C   UNL     1      -3.696  -8.885  10.464  0.00  0.00    +0.109 C 
ATOM     20  C   UNL     1      -2.268 -10.435  11.760  0.00  0.00    +0.212 C 
ATOM     21  C   UNL     1      -2.189 -11.659  12.636  0.00  0.00    +0.109 C 
ENDBRANCH   3  10
ENDBRANCH  19  11
TORSDOF 4
ENDMDL
MODEL 6
REMARK VINA RESULT:      -7.0      3.460      5.662
REMARK  Name = 51136904
REMARK  5 active torsions:
REMARK  status: ('A' for Active; 'I' for Inactive)
REMARK    1  A    between atoms: N_3  and  C_10
REMARK    2  A    between atoms: C_11  and  C_19
REMARK    3  A    between atoms: C_20  and  C_21
REMARK    4  A    between atoms: C_22  and  C_23
REMARK    5  A    between atoms: C_27  and  C_28
REMARK                            x       y       z     vdW  Elec       q    Type
REMARK                         _______ _______ _______ _____ _____    ______ ____
ROOT
ATOM      1  O   UNL     1      21.570   5.019  21.065  0.00  0.00    -0.336 OA
ATOM      5  N   UNL     1      20.056   6.265  22.147  0.00  0.00    -0.190 NA
ATOM      6  N   UNL     1      20.463   5.115  20.212  0.00  0.00    -0.056 NA
ATOM     19  C   UNL     1      21.247   5.723  22.181  0.00  0.00    +0.245 A 
ATOM     22  C   UNL     1      19.613   5.864  20.920  0.00  0.00    +0.204 A 
ENDROOT
BRANCH  22  23
ATOM      7  N   UNL     1      16.547   5.900  18.814  0.00  0.00    -0.254 NA
ATOM     23  C   UNL     1      18.314   6.229  20.433  0.00  0.00    +0.041 A 
ATOM     24  C   UNL     1      17.568   7.223  21.056  0.00  0.00    +0.015 A 
ATOM     25  C   UNL     1      17.764   5.603  19.326  0.00  0.00    +0.123 A 
ATOM     26  C   UNL     1      16.312   7.556  20.560  0.00  0.00    +0.029 A 
ATOM     27  C   UNL     1      15.852   6.871  19.448  0.00  0.00    +0.074 A 
BRANCH  27  28
ATOM      8  N   UNL     1      13.217   7.900  17.022  0.00  0.00    -0.243 NA
ATOM      9  N   UNL     1      12.162   7.275  19.096  0.00  0.00    -0.243 NA
ATOM     28  C   UNL     1      14.557   7.162  18.879  0.00  0.00    +0.037 A 
ATOM     29  C   UNL     1      14.410   7.615  17.584  0.00  0.00    +0.124 A 
ATOM     30  C   UNL     1      13.387   7.009  19.596  0.00  0.00    +0.124 A 
ATOM     31  C   UNL     1      12.150   7.710  17.821  0.00  0.00    +0.221 A 
ENDBRANCH  27  28
ENDBRANCH  22  23
BRANCH  19  11
ATOM      3  N   UNL     1      21.705   5.762  24.627  0.00  0.00    -0.288 NA
ATOM     11  C   UNL     1      22.295   5.774  23.273  0.00  0.00    +0.146 C 
ATOM     12  C   UNL     1      22.689   5.122  25.500  0.00  0.00    +0.085 C 
ATOM     13  C   UNL     1      23.240   4.559  23.247  0.00  0.00    +0.030 C 
ATOM     16  C   UNL     1      23.162   3.964  24.646  0.00  0.00    +0.017 C 
BRANCH   3  10
ATOM      2  O   UNL     1      22.598  10.316  28.660  0.00  0.00    -0.276 OA
ATOM      4  N   UNL     1      21.275   9.089  27.196  0.00  0.00    -0.302 N 
ATOM     10  C   UNL     1      21.327   7.090  25.104  0.00  0.00    +0.060 C 
ATOM     14  C   UNL     1      20.384   6.968  26.307  0.00  0.00    +0.038 C 
ATOM     15  C   UNL     1      22.579   7.890  25.482  0.00  0.00    +0.038 C 
ATOM     17  C   UNL     1      20.049   8.344  26.884  0.00  0.00    +0.109 C 
ATOM     18  C   UNL     1      22.202   9.247  26.074  0.00  0.00    +0.109 C 
ATOM     20  C   UNL     1      21.577   9.664  28.431  0.00  0.00    +0.212 C 
ATOM     21  C   UNL     1      20.574   9.453  29.537  0.00  0.00    +0.109 C 
ENDBRANCH   3  10
ENDBRANCH  19  11
TORSDOF 4
ENDMDL
MODEL 7
REMARK VINA RESULT:      -6.9     31.942     36.092
REMARK  Name = 51136904
REMARK  5 active torsions:
REMARK  status: ('A' for Active; 'I' for Inactive)
REMARK    1  A    between atoms: N_3  and  C_10
REMARK    2  A    between atoms: C_11  and  C_19
REMARK    3  A    between atoms: C_20  and  C_21
REMARK    4  A    between atoms: C_22  and  C_23
REMARK    5  A    between atoms: C_27  and  C_28
REMARK                            x       y       z     vdW  Elec       q    Type
REMARK                         _______ _______ _______ _____ _____    ______ ____
ROOT
ATOM      1  O   UNL     1     -14.975   8.519  31.599  0.00  0.00    -0.336 OA
ATOM      5  N   UNL     1     -13.708   7.437  33.096  0.00  0.00    -0.190 NA
ATOM      6  N   UNL     1     -13.848   9.324  31.811  0.00  0.00    -0.056 NA
ATOM     19  C   UNL     1     -14.812   7.429  32.393  0.00  0.00    +0.245 A 
ATOM     22  C   UNL     1     -13.150   8.620  32.706  0.00  0.00    +0.204 A 
ENDROOT
BRANCH  22  23
ATOM      7  N   UNL     1     -10.516   9.557  35.158  0.00  0.00    -0.254 NA
ATOM     23  C   UNL     1     -11.893   9.069  33.231  0.00  0.00    +0.041 A 
ATOM     24  C   UNL     1     -10.855   9.442  32.385  0.00  0.00    +0.015 A 
ATOM     25  C   UNL     1     -11.675   9.143  34.598  0.00  0.00    +0.123 A 
ATOM     26  C   UNL     1      -9.647   9.872  32.924  0.00  0.00    +0.029 A 
ATOM     27  C   UNL     1      -9.530   9.912  34.304  0.00  0.00    +0.074 A 
BRANCH  27  28
ATOM      8  N   UNL     1      -6.587  10.030  36.588  0.00  0.00    -0.243 NA
ATOM      9  N   UNL     1      -6.495  11.925  35.102  0.00  0.00    -0.243 NA
ATOM     28  C   UNL     1      -8.306  10.347  34.933  0.00  0.00    +0.037 A 
ATOM     29  C   UNL     1      -7.728   9.651  35.975  0.00  0.00    +0.124 A 
ATOM     30  C   UNL     1      -7.639  11.488  34.534  0.00  0.00    +0.124 A 
ATOM     31  C   UNL     1      -6.032  11.159  36.109  0.00  0.00    +0.221 A 
ENDBRANCH  27  28
ENDBRANCH  22  23
BRANCH  19  11
ATOM      3  N   UNL     1     -15.417   5.026  32.620  0.00  0.00    -0.288 NA
ATOM     11  C   UNL     1     -15.912   6.389  32.344  0.00  0.00    +0.146 C 
ATOM     12  C   UNL     1     -16.530   4.297  33.229  0.00  0.00    +0.085 C 
ATOM     13  C   UNL     1     -17.005   6.630  33.402  0.00  0.00    +0.030 C 
ATOM     16  C   UNL     1     -17.095   5.327  34.184  0.00  0.00    +0.017 C 
BRANCH   3  10
ATOM      2  O   UNL     1     -15.854   0.332  28.672  0.00  0.00    -0.276 OA
ATOM      4  N   UNL     1     -14.655   1.972  29.800  0.00  0.00    -0.302 N 
ATOM     10  C   UNL     1     -14.899   4.349  31.433  0.00  0.00    +0.060 C 
ATOM     14  C   UNL     1     -13.995   3.181  31.846  0.00  0.00    +0.038 C 
ATOM     15  C   UNL     1     -16.059   3.848  30.564  0.00  0.00    +0.038 C 
ATOM     17  C   UNL     1     -13.516   2.399  30.623  0.00  0.00    +0.109 C 
ATOM     18  C   UNL     1     -15.541   3.054  29.367  0.00  0.00    +0.109 C 
ATOM     20  C   UNL     1     -14.909   0.662  29.393  0.00  0.00    +0.212 C 
ATOM     21  C   UNL     1     -13.954  -0.396  29.884  0.00  0.00    +0.109 C 
ENDBRANCH   3  10
ENDBRANCH  19  11
TORSDOF 4
ENDMDL
MODEL 8
REMARK VINA RESULT:      -6.7     28.049     32.564
REMARK  Name = 51136904
REMARK  5 active torsions:
REMARK  status: ('A' for Active; 'I' for Inactive)
REMARK    1  A    between atoms: N_3  and  C_10
REMARK    2  A    between atoms: C_11  and  C_19
REMARK    3  A    between atoms: C_20  and  C_21
REMARK    4  A    between atoms: C_22  and  C_23
REMARK    5  A    between atoms: C_27  and  C_28
REMARK                            x       y       z     vdW  Elec       q    Type
REMARK                         _______ _______ _______ _____ _____    ______ ____
ROOT
ATOM      1  O   UNL     1      -5.105  -9.651  16.198  0.00  0.00    -0.336 OA
ATOM      5  N   UNL     1      -5.402 -11.747  16.930  0.00  0.00    -0.190 NA
ATOM      6  N   UNL     1      -6.280  -9.635  16.961  0.00  0.00    -0.056 NA
ATOM     19  C   UNL     1      -4.653 -10.932  16.232  0.00  0.00    +0.245 A 
ATOM     22  C   UNL     1      -6.389 -10.905  17.357  0.00  0.00    +0.204 A 
ENDROOT
BRANCH  22  23
ATOM      7  N   UNL     1      -9.734 -11.074  18.972  0.00  0.00    -0.254 NA
ATOM     23  C   UNL     1      -7.469 -11.369  18.179  0.00  0.00    +0.041 A 
ATOM     24  C   UNL     1      -7.336 -12.511  18.960  0.00  0.00    +0.015 A 
ATOM     25  C   UNL     1      -8.677 -10.692  18.219  0.00  0.00    +0.123 A 
ATOM     26  C   UNL     1      -8.401 -12.936  19.747  0.00  0.00    +0.029 A 
ATOM     27  C   UNL     1      -9.568 -12.189  19.718  0.00  0.00    +0.074 A 
BRANCH  27  28
ATOM      8  N   UNL     1     -12.979 -12.175  21.218  0.00  0.00    -0.243 NA
ATOM      9  N   UNL     1     -11.756 -14.061  22.085  0.00  0.00    -0.243 NA
ATOM     28  C   UNL     1     -10.714 -12.571  20.508  0.00  0.00    +0.037 A 
ATOM     29  C   UNL     1     -11.890 -11.850  20.490  0.00  0.00    +0.124 A 
ATOM     30  C   UNL     1     -10.704 -13.678  21.332  0.00  0.00    +0.124 A 
ATOM     31  C   UNL     1     -12.846 -13.276  21.981  0.00  0.00    +0.221 A 
ENDBRANCH  27  28
ENDBRANCH  22  23
BRANCH  19  11
ATOM      3  N   UNL     1      -3.272 -10.435  14.222  0.00  0.00    -0.288 NA
ATOM     11  C   UNL     1      -3.374 -11.215  15.472  0.00  0.00    +0.146 C 
ATOM     12  C   UNL     1      -1.843 -10.229  13.980  0.00  0.00    +0.085 C 
ATOM     13  C   UNL     1      -2.112 -10.841  16.271  0.00  0.00    +0.030 C 
ATOM     16  C   UNL     1      -1.334  -9.896  15.367  0.00  0.00    +0.017 C 
BRANCH   3  10
ATOM      2  O   UNL     1      -4.569 -10.368   8.213  0.00  0.00    -0.276 OA
ATOM      4  N   UNL     1      -5.041 -10.930  10.417  0.00  0.00    -0.302 N 
ATOM     10  C   UNL     1      -3.936 -11.073  13.088  0.00  0.00    +0.060 C 
ATOM     14  C   UNL     1      -5.279 -10.385  12.811  0.00  0.00    +0.038 C 
ATOM     15  C   UNL     1      -3.036 -11.013  11.848  0.00  0.00    +0.038 C 
ATOM     17  C   UNL     1      -5.949 -10.973  11.569  0.00  0.00    +0.109 C 
ATOM     18  C   UNL     1      -3.750 -11.589  10.627  0.00  0.00    +0.109 C 
ATOM     20  C   UNL     1      -5.336 -10.361   9.178  0.00  0.00    +0.212 C 
ATOM     21  C   UNL     1      -6.683  -9.699   9.042  0.00  0.00    +0.109 C 
ENDBRANCH   3  10
ENDBRANCH  19  11
TORSDOF 4
ENDMDL
MODEL 9
REMARK VINA RESULT:      -6.7      2.026      3.027
REMARK  Name = 51136904
REMARK  5 active torsions:
REMARK  status: ('A' for Active; 'I' for Inactive)
REMARK    1  A    between atoms: N_3  and  C_10
REMARK    2  A    between atoms: C_11  and  C_19
REMARK    3  A    between atoms: C_20  and  C_21
REMARK    4  A    between atoms: C_22  and  C_23
REMARK    5  A    between atoms: C_27  and  C_28
REMARK                            x       y       z     vdW  Elec       q    Type
REMARK                         _______ _______ _______ _____ _____    ______ ____
ROOT
ATOM      1  O   UNL     1      22.755   6.292  22.156  0.00  0.00    -0.336 OA
ATOM      5  N   UNL     1      21.638   5.019  20.690  0.00  0.00    -0.190 NA
ATOM      6  N   UNL     1      21.463   6.829  22.077  0.00  0.00    -0.056 NA
ATOM     19  C   UNL     1      22.772   5.230  21.309  0.00  0.00    +0.245 A 
ATOM     22  C   UNL     1      20.866   6.026  21.193  0.00  0.00    +0.204 A 
ENDROOT
BRANCH  22  23
ATOM      7  N   UNL     1      17.345   7.224  21.183  0.00  0.00    -0.254 NA
ATOM     23  C   UNL     1      19.500   6.200  20.790  0.00  0.00    +0.041 A 
ATOM     24  C   UNL     1      18.996   5.552  19.668  0.00  0.00    +0.015 A 
ATOM     25  C   UNL     1      18.642   7.018  21.507  0.00  0.00    +0.123 A 
ATOM     26  C   UNL     1      17.668   5.740  19.302  0.00  0.00    +0.029 A 
ATOM     27  C   UNL     1      16.891   6.578  20.086  0.00  0.00    +0.074 A 
BRANCH  27  28
ATOM      8  N   UNL     1      13.813   7.447  18.173  0.00  0.00    -0.243 NA
ATOM      9  N   UNL     1      13.194   6.903  20.437  0.00  0.00    -0.243 NA
ATOM     28  C   UNL     1      15.505   6.820  19.766  0.00  0.00    +0.037 A 
ATOM     29  C   UNL     1      15.099   7.209  18.506  0.00  0.00    +0.124 A 
ATOM     30  C   UNL     1      14.499   6.682  20.701  0.00  0.00    +0.124 A 
ATOM     31  C   UNL     1      12.926   7.277  19.171  0.00  0.00    +0.221 A 
ENDBRANCH  27  28
ENDBRANCH  22  23
BRANCH  19  11
ATOM      3  N   UNL     1      23.929   3.044  21.581  0.00  0.00    -0.288 NA
ATOM     11  C   UNL     1      24.076   4.467  21.212  0.00  0.00    +0.146 C 
ATOM     12  C   UNL     1      24.942   2.313  20.818  0.00  0.00    +0.085 C 
ATOM     13  C   UNL     1      24.647   4.443  19.782  0.00  0.00    +0.030 C 
ATOM     16  C   UNL     1      24.845   2.970  19.456  0.00  0.00    +0.017 C 
BRANCH   3  10
ATOM      2  O   UNL     1      22.168   4.526  27.282  0.00  0.00    -0.276 OA
ATOM      4  N   UNL     1      23.705   3.699  25.749  0.00  0.00    -0.302 N 
ATOM     10  C   UNL     1      24.044   2.805  23.017  0.00  0.00    +0.060 C 
ATOM     14  C   UNL     1      24.990   3.835  23.647  0.00  0.00    +0.038 C 
ATOM     15  C   UNL     1      22.660   2.874  23.674  0.00  0.00    +0.038 C 
ATOM     17  C   UNL     1      25.052   3.665  25.166  0.00  0.00    +0.109 C 
ATOM     18  C   UNL     1      22.769   2.722  25.191  0.00  0.00    +0.109 C 
ATOM     20  C   UNL     1      23.296   4.540  26.783  0.00  0.00    +0.212 C 
ATOM     21  C   UNL     1      24.317   5.520  27.301  0.00  0.00    +0.109 C 
ENDBRANCH   3  10
ENDBRANCH  19  11
TORSDOF 4
ENDMDL
MODEL 10
REMARK VINA RESULT:      -6.6     32.940     36.733
REMARK  Name = 51136904
REMARK  5 active torsions:
REMARK  status: ('A' for Active; 'I' for Inactive)
REMARK    1  A    between atoms: N_3  and  C_10
REMARK    2  A    between atoms: C_11  and  C_19
REMARK    3  A    between atoms: C_20  and  C_21
REMARK    4  A    between atoms: C_22  and  C_23
REMARK    5  A    between atoms: C_27  and  C_28
REMARK                            x       y       z     vdW  Elec       q    Type
REMARK                         _______ _______ _______ _____ _____    ______ ____
ROOT
ATOM      1  O   UNL     1     -14.735   8.814  33.518  0.00  0.00    -0.336 OA
ATOM      5  N   UNL     1     -13.524   7.122  34.346  0.00  0.00    -0.190 NA
ATOM      6  N   UNL     1     -13.726   9.400  34.293  0.00  0.00    -0.056 NA
ATOM     19  C   UNL     1     -14.543   7.472  33.603  0.00  0.00    +0.245 A 
ATOM     22  C   UNL     1     -13.054   8.339  34.748  0.00  0.00    +0.204 A 
ENDROOT
BRANCH  22  23
ATOM      7  N   UNL     1      -9.815   9.552  36.114  0.00  0.00    -0.254 NA
ATOM     23  C   UNL     1     -11.911   8.458  35.606  0.00  0.00    +0.041 A 
ATOM     24  C   UNL     1     -11.764   7.642  36.722  0.00  0.00    +0.015 A 
ATOM     25  C   UNL     1     -10.917   9.389  35.348  0.00  0.00    +0.123 A 
ATOM     26  C   UNL     1     -10.644   7.780  37.535  0.00  0.00    +0.029 A 
ATOM     27  C   UNL     1      -9.707   8.741  37.191  0.00  0.00    +0.074 A 
BRANCH  27  28
ATOM      8  N   UNL     1      -7.483   9.245  40.138  0.00  0.00    -0.243 NA
ATOM      9  N   UNL     1      -6.135   9.224  38.140  0.00  0.00    -0.243 NA
ATOM     28  C   UNL     1      -8.521   8.941  37.988  0.00  0.00    +0.037 A 
ATOM     29  C   UNL     1      -8.570   9.055  39.362  0.00  0.00    +0.124 A 
ATOM     30  C   UNL     1      -7.263   9.034  37.425  0.00  0.00    +0.124 A 
ATOM     31  C   UNL     1      -6.315   9.319  39.472  0.00  0.00    +0.221 A 
ENDBRANCH  27  28
ENDBRANCH  22  23
BRANCH  19  11
ATOM      3  N   UNL     1     -15.874   5.369  33.571  0.00  0.00    -0.288 NA
ATOM     11  C   UNL     1     -15.519   6.602  32.839  0.00  0.00    +0.146 C 
ATOM     12  C   UNL     1     -17.230   5.015  33.151  0.00  0.00    +0.085 C 
ATOM     13  C   UNL     1     -16.865   7.304  32.579  0.00  0.00    +0.030 C 
ATOM     16  C   UNL     1     -17.920   6.364  33.145  0.00  0.00    +0.017 C 
BRANCH   3  10
ATOM      2  O   UNL     1     -13.583   1.114  29.770  0.00  0.00    -0.276 OA
ATOM      4  N   UNL     1     -14.094   1.928  31.885  0.00  0.00    -0.302 N 
ATOM     10  C   UNL     1     -14.928   4.277  33.355  0.00  0.00    +0.060 C 
ATOM     14  C   UNL     1     -15.635   2.927  33.532  0.00  0.00    +0.038 C 
ATOM     15  C   UNL     1     -14.313   4.382  31.955  0.00  0.00    +0.038 C 
ATOM     17  C   UNL     1     -14.688   1.768  33.218  0.00  0.00    +0.109 C 
ATOM     18  C   UNL     1     -13.393   3.195  31.672  0.00  0.00    +0.109 C 
ATOM     20  C   UNL     1     -14.121   0.971  30.870  0.00  0.00    +0.212 C 
ATOM     21  C   UNL     1     -14.865  -0.306  31.166  0.00  0.00    +0.109 C 
ENDBRANCH   3  10
ENDBRANCH  19  11
TORSDOF 4
ENDMDL
