MODEL 1
REMARK VINA RESULT:      -7.2      0.000      0.000
REMARK  Name = 11886105
REMARK  7 active torsions:
REMARK  status: ('A' for Active; 'I' for Inactive)
REMARK    1  A    between atoms: O_3  and  C_14
REMARK    2  A    between atoms: O_3  and  C_19
REMARK    3  A    between atoms: N_5  and  C_13
REMARK    4  A    between atoms: N_9  and  C_21
REMARK    5  A    between atoms: C_17  and  C_18
REMARK    6  A    between atoms: C_18  and  C_20
REMARK    7  A    between atoms: C_25  and  C_28
REMARK                            x       y       z     vdW  Elec       q    Type
REMARK                         _______ _______ _______ _____ _____    ______ ____
ROOT
ATOM      1  O   UNL     1      16.069   8.569  20.450  0.00  0.00    -0.368 OA
ATOM      2  O   UNL     1      16.269   5.850  18.993  0.00  0.00    -0.368 OA
ATOM     11  C   UNL     1      15.254   6.421  19.849  0.00  0.00    +0.177 C 
ATOM     12  C   UNL     1      15.978   7.214  20.917  0.00  0.00    +0.192 C 
ATOM     13  C   UNL     1      14.462   7.456  19.075  0.00  0.00    +0.168 C 
ATOM     14  C   UNL     1      17.333   6.549  20.966  0.00  0.00    +0.235 C 
ATOM     15  C   UNL     1      15.301   8.717  19.246  0.00  0.00    +0.190 C 
ATOM     16  C   UNL     1      17.560   6.185  19.517  0.00  0.00    +0.207 C 
ENDROOT
BRANCH  13   5
ATOM      5  N   UNL     1      13.075   7.559  19.535  0.00  0.00    -0.221 N 
ATOM      6  N   UNL     1      12.605   6.743  20.484  0.00  0.00    -0.043 NA
ATOM      7  N   UNL     1      11.014   8.153  19.812  0.00  0.00    -0.113 NA
ATOM      8  N   UNL     1      11.342   7.111  20.651  0.00  0.00    -0.023 NA
ATOM     17  C   UNL     1      12.106   8.415  19.130  0.00  0.00    +0.156 A 
BRANCH  17  18
ATOM     18  C   UNL     1      12.299   9.444  18.096  0.00  0.00    +0.104 C 
BRANCH  18  20
ATOM     20  C   UNL     1      11.883   9.046  16.690  0.00  0.00    -0.027 C 
ATOM     22  C   UNL     1      10.657   8.636  16.348  0.00  0.00    +0.004 C 
ENDBRANCH  18  20
ENDBRANCH  17  18
ENDBRANCH  13   5
BRANCH  14   3
ATOM      3  O   UNL     1      18.352   7.379  21.473  0.00  0.00    -0.442 OA
BRANCH   3  19
ATOM      4  O   UNL     1      19.714   6.255  22.926  0.00  0.00    -0.226 OA
ATOM      9  N   UNL     1      20.427   6.838  20.774  0.00  0.00    -0.251 N 
ATOM     19  C   UNL     1      19.536   6.768  21.827  0.00  0.00    +0.405 C 
ATOM     29  H   UNL     1      20.093   7.308  19.936  0.00  0.00    +0.158 HD
BRANCH   9  21
ATOM     21  C   UNL     1      21.748   6.339  20.715  0.00  0.00    +0.038 A 
ATOM     23  C   UNL     1      21.961   4.971  20.769  0.00  0.00    +0.042 A 
ATOM     24  C   UNL     1      22.805   7.229  20.606  0.00  0.00    +0.023 A 
ATOM     25  C   UNL     1      23.266   4.480  20.713  0.00  0.00    +0.054 A 
ATOM     26  C   UNL     1      24.109   6.738  20.550  0.00  0.00    +0.003 A 
ATOM     27  C   UNL     1      24.340   5.363  20.603  0.00  0.00    +0.019 A 
BRANCH  25  28
ATOM     10  N   UNL     1      23.695   1.927  20.812  0.00  0.00    -0.191 NA
ATOM     28  C   UNL     1      23.503   3.072  20.768  0.00  0.00    +0.099 C 
ENDBRANCH  25  28
ENDBRANCH   9  21
ENDBRANCH   3  19
ENDBRANCH  14   3
TORSDOF 7
ENDMDL
MODEL 2
REMARK VINA RESULT:      -7.1      4.530      6.655
REMARK  Name = 11886105
REMARK  7 active torsions:
REMARK  status: ('A' for Active; 'I' for Inactive)
REMARK    1  A    between atoms: O_3  and  C_14
REMARK    2  A    between atoms: O_3  and  C_19
REMARK    3  A    between atoms: N_5  and  C_13
REMARK    4  A    between atoms: N_9  and  C_21
REMARK    5  A    between atoms: C_17  and  C_18
REMARK    6  A    between atoms: C_18  and  C_20
REMARK    7  A    between atoms: C_25  and  C_28
REMARK                            x       y       z     vdW  Elec       q    Type
REMARK                         _______ _______ _______ _____ _____    ______ ____
ROOT
ATOM      1  O   UNL     1      12.695  10.964  20.868  0.00  0.00    -0.368 OA
ATOM      2  O   UNL     1      10.602   9.045  22.088  0.00  0.00    -0.368 OA
ATOM     11  C   UNL     1      11.800   9.644  22.629  0.00  0.00    +0.177 C 
ATOM     12  C   UNL     1      12.816   9.681  21.505  0.00  0.00    +0.192 C 
ATOM     13  C   UNL     1      11.536  11.101  22.954  0.00  0.00    +0.168 C 
ATOM     14  C   UNL     1      12.354   8.564  20.600  0.00  0.00    +0.235 C 
ATOM     15  C   UNL     1      11.801  11.795  21.622  0.00  0.00    +0.190 C 
ATOM     16  C   UNL     1      10.850   8.650  20.732  0.00  0.00    +0.207 C 
ENDROOT
BRANCH  13   5
ATOM      5  N   UNL     1      12.341  11.578  24.081  0.00  0.00    -0.221 N 
ATOM      6  N   UNL     1      13.650  11.315  24.148  0.00  0.00    -0.043 NA
ATOM      7  N   UNL     1      13.003  12.509  25.916  0.00  0.00    -0.113 NA
ATOM      8  N   UNL     1      14.052  11.888  25.275  0.00  0.00    -0.023 NA
ATOM     17  C   UNL     1      11.952  12.304  25.156  0.00  0.00    +0.156 A 
BRANCH  17  18
ATOM     18  C   UNL     1      10.571  12.760  25.383  0.00  0.00    +0.104 C 
BRANCH  18  20
ATOM     20  C   UNL     1      10.242  14.145  24.852  0.00  0.00    -0.027 C 
ATOM     22  C   UNL     1       9.849  14.405  23.601  0.00  0.00    +0.004 C 
ENDBRANCH  18  20
ENDBRANCH  17  18
ENDBRANCH  13   5
BRANCH  14   3
ATOM      3  O   UNL     1      12.779   8.707  19.264  0.00  0.00    -0.442 OA
BRANCH   3  19
ATOM      4  O   UNL     1      14.728   9.200  18.175  0.00  0.00    -0.226 OA
ATOM      9  N   UNL     1      14.636   7.570  19.852  0.00  0.00    -0.251 N 
ATOM     19  C   UNL     1      14.127   8.546  19.018  0.00  0.00    +0.405 C 
ATOM     29  H   UNL     1      13.974   7.137  20.492  0.00  0.00    +0.158 HD
BRANCH   9  21
ATOM     21  C   UNL     1      15.965   7.096  19.929  0.00  0.00    +0.038 A 
ATOM     23  C   UNL     1      16.817   7.611  20.893  0.00  0.00    +0.042 A 
ATOM     24  C   UNL     1      16.392   6.126  19.035  0.00  0.00    +0.023 A 
ATOM     25  C   UNL     1      18.129   7.143  20.966  0.00  0.00    +0.054 A 
ATOM     26  C   UNL     1      17.704   5.659  19.108  0.00  0.00    +0.003 A 
ATOM     27  C   UNL     1      18.573   6.167  20.074  0.00  0.00    +0.019 A 
BRANCH  25  28
ATOM     10  N   UNL     1      19.744   8.089  22.757  0.00  0.00    -0.191 NA
ATOM     28  C   UNL     1      19.020   7.664  21.954  0.00  0.00    +0.099 C 
ENDBRANCH  25  28
ENDBRANCH   9  21
ENDBRANCH   3  19
ENDBRANCH  14   3
TORSDOF 7
ENDMDL
MODEL 3
REMARK VINA RESULT:      -7.1      6.229      9.359
REMARK  Name = 11886105
REMARK  7 active torsions:
REMARK  status: ('A' for Active; 'I' for Inactive)
REMARK    1  A    between atoms: O_3  and  C_14
REMARK    2  A    between atoms: O_3  and  C_19
REMARK    3  A    between atoms: N_5  and  C_13
REMARK    4  A    between atoms: N_9  and  C_21
REMARK    5  A    between atoms: C_17  and  C_18
REMARK    6  A    between atoms: C_18  and  C_20
REMARK    7  A    between atoms: C_25  and  C_28
REMARK                            x       y       z     vdW  Elec       q    Type
REMARK                         _______ _______ _______ _____ _____    ______ ____
ROOT
ATOM      1  O   UNL     1      13.291   9.532  19.959  0.00  0.00    -0.368 OA
ATOM      2  O   UNL     1      14.063   6.604  19.340  0.00  0.00    -0.368 OA
ATOM     11  C   UNL     1      13.119   7.509  18.726  0.00  0.00    +0.177 C 
ATOM     12  C   UNL     1      12.511   8.332  19.843  0.00  0.00    +0.192 C 
ATOM     13  C   UNL     1      13.865   8.517  17.873  0.00  0.00    +0.168 C 
ATOM     14  C   UNL     1      12.683   7.437  21.047  0.00  0.00    +0.235 C 
ATOM     15  C   UNL     1      14.235   9.600  18.880  0.00  0.00    +0.190 C 
ATOM     16  C   UNL     1      14.011   6.773  20.763  0.00  0.00    +0.207 C 
ENDROOT
BRANCH  13   5
ATOM      5  N   UNL     1      13.077   8.970  16.724  0.00  0.00    -0.221 N 
ATOM      6  N   UNL     1      11.804   8.591  16.574  0.00  0.00    -0.043 NA
ATOM      7  N   UNL     1      12.425   9.922  14.896  0.00  0.00    -0.113 NA
ATOM      8  N   UNL     1      11.408   9.178  15.452  0.00  0.00    -0.023 NA
ATOM     17  C   UNL     1      13.450   9.779  15.704  0.00  0.00    +0.156 A 
BRANCH  17  18
ATOM     18  C   UNL     1      14.792  10.369  15.572  0.00  0.00    +0.104 C 
BRANCH  18  20
ATOM     20  C   UNL     1      14.832  11.794  15.047  0.00  0.00    -0.027 C 
ATOM     22  C   UNL     1      14.380  12.862  15.713  0.00  0.00    +0.004 C 
ENDBRANCH  18  20
ENDBRANCH  17  18
ENDBRANCH  13   5
BRANCH  14   3
ATOM      3  O   UNL     1      12.688   8.134  22.272  0.00  0.00    -0.442 OA
BRANCH   3  19
ATOM      4  O   UNL     1      10.479   8.718  22.372  0.00  0.00    -0.226 OA
ATOM      9  N   UNL     1      12.181  10.259  22.832  0.00  0.00    -0.251 N 
ATOM     19  C   UNL     1      11.660   9.028  22.486  0.00  0.00    +0.405 C 
ATOM     29  H   UNL     1      13.195  10.320  22.876  0.00  0.00    +0.158 HD
BRANCH   9  21
ATOM     21  C   UNL     1      11.480  11.448  23.134  0.00  0.00    +0.038 A 
ATOM     23  C   UNL     1      11.173  12.335  22.114  0.00  0.00    +0.042 A 
ATOM     24  C   UNL     1      11.114  11.706  24.446  0.00  0.00    +0.023 A 
ATOM     25  C   UNL     1      10.483  13.509  22.414  0.00  0.00    +0.054 A 
ATOM     26  C   UNL     1      10.424  12.880  24.745  0.00  0.00    +0.003 A 
ATOM     27  C   UNL     1      10.107  13.782  23.729  0.00  0.00    +0.019 A 
BRANCH  25  28
ATOM     10  N   UNL     1       9.895  15.187  20.529  0.00  0.00    -0.191 NA
ATOM     28  C   UNL     1      10.159  14.434  21.374  0.00  0.00    +0.099 C 
ENDBRANCH  25  28
ENDBRANCH   9  21
ENDBRANCH   3  19
ENDBRANCH  14   3
TORSDOF 7
ENDMDL
MODEL 4
REMARK VINA RESULT:      -6.9      1.738      2.569
REMARK  Name = 11886105
REMARK  7 active torsions:
REMARK  status: ('A' for Active; 'I' for Inactive)
REMARK    1  A    between atoms: O_3  and  C_14
REMARK    2  A    between atoms: O_3  and  C_19
REMARK    3  A    between atoms: N_5  and  C_13
REMARK    4  A    between atoms: N_9  and  C_21
REMARK    5  A    between atoms: C_17  and  C_18
REMARK    6  A    between atoms: C_18  and  C_20
REMARK    7  A    between atoms: C_25  and  C_28
REMARK                            x       y       z     vdW  Elec       q    Type
REMARK                         _______ _______ _______ _____ _____    ______ ____
ROOT
ATOM      1  O   UNL     1      15.674   6.632  21.296  0.00  0.00    -0.368 OA
ATOM      2  O   UNL     1      16.592   9.509  20.640  0.00  0.00    -0.368 OA
ATOM     11  C   UNL     1      15.860   8.526  19.875  0.00  0.00    +0.177 C 
ATOM     12  C   UNL     1      16.454   7.175  20.218  0.00  0.00    +0.192 C 
ATOM     13  C   UNL     1      14.432   8.454  20.376  0.00  0.00    +0.168 C 
ATOM     14  C   UNL     1      17.852   7.528  20.665  0.00  0.00    +0.235 C 
ATOM     15  C   UNL     1      14.531   7.466  21.533  0.00  0.00    +0.190 C 
ATOM     16  C   UNL     1      17.637   8.850  21.366  0.00  0.00    +0.207 C 
ENDROOT
BRANCH  13   5
ATOM      5  N   UNL     1      13.485   8.089  19.320  0.00  0.00    -0.221 N 
ATOM      6  N   UNL     1      13.913   7.557  18.170  0.00  0.00    -0.043 NA
ATOM      7  N   UNL     1      11.691   7.754  18.159  0.00  0.00    -0.113 NA
ATOM      8  N   UNL     1      12.809   7.353  17.462  0.00  0.00    -0.023 NA
ATOM     17  C   UNL     1      12.135   8.206  19.310  0.00  0.00    +0.156 A 
BRANCH  17  18
ATOM     18  C   UNL     1      11.350   8.755  20.427  0.00  0.00    +0.104 C 
BRANCH  18  20
ATOM     20  C   UNL     1      10.566   7.738  21.238  0.00  0.00    -0.027 C 
ATOM     22  C   UNL     1      11.026   6.536  21.599  0.00  0.00    +0.004 C 
ENDBRANCH  18  20
ENDBRANCH  17  18
ENDBRANCH  13   5
BRANCH  14   3
ATOM      3  O   UNL     1      18.435   6.565  21.512  0.00  0.00    -0.442 OA
BRANCH   3  19
ATOM      4  O   UNL     1      19.168   5.098  19.918  0.00  0.00    -0.226 OA
ATOM      9  N   UNL     1      20.520   5.731  21.721  0.00  0.00    -0.251 N 
ATOM     19  C   UNL     1      19.375   5.726  20.950  0.00  0.00    +0.405 C 
ATOM     29  H   UNL     1      20.501   6.323  22.548  0.00  0.00    +0.158 HD
BRANCH   9  21
ATOM     21  C   UNL     1      21.719   5.015  21.505  0.00  0.00    +0.038 A 
ATOM     23  C   UNL     1      22.011   3.920  22.303  0.00  0.00    +0.042 A 
ATOM     24  C   UNL     1      22.581   5.422  20.499  0.00  0.00    +0.023 A 
ATOM     25  C   UNL     1      23.195   3.215  22.091  0.00  0.00    +0.054 A 
ATOM     26  C   UNL     1      23.765   4.717  20.286  0.00  0.00    +0.003 A 
ATOM     27  C   UNL     1      24.073   3.613  21.082  0.00  0.00    +0.019 A 
BRANCH  25  28
ATOM     10  N   UNL     1      23.767   1.166  23.568  0.00  0.00    -0.191 NA
ATOM     28  C   UNL     1      23.512   2.085  22.906  0.00  0.00    +0.099 C 
ENDBRANCH  25  28
ENDBRANCH   9  21
ENDBRANCH   3  19
ENDBRANCH  14   3
TORSDOF 7
ENDMDL
MODEL 5
REMARK VINA RESULT:      -6.6     17.012     20.698
REMARK  Name = 11886105
REMARK  7 active torsions:
REMARK  status: ('A' for Active; 'I' for Inactive)
REMARK    1  A    between atoms: O_3  and  C_14
REMARK    2  A    between atoms: O_3  and  C_19
REMARK    3  A    between atoms: N_5  and  C_13
REMARK    4  A    between atoms: N_9  and  C_21
REMARK    5  A    between atoms: C_17  and  C_18
REMARK    6  A    between atoms: C_18  and  C_20
REMARK    7  A    between atoms: C_25  and  C_28
REMARK                            x       y       z     vdW  Elec       q    Type
REMARK                         _______ _______ _______ _____ _____    ______ ____
ROOT
ATOM      1  O   UNL     1      11.576   5.835   0.311  0.00  0.00    -0.368 OA
ATOM      2  O   UNL     1      13.545   3.454   0.419  0.00  0.00    -0.368 OA
ATOM     11  C   UNL     1      12.213   3.588  -0.124  0.00  0.00    +0.177 C 
ATOM     12  C   UNL     1      11.446   4.496   0.816  0.00  0.00    +0.192 C 
ATOM     13  C   UNL     1      12.272   4.354  -1.431  0.00  0.00    +0.168 C 
ATOM     14  C   UNL     1      12.181   4.319   2.123  0.00  0.00    +0.235 C 
ATOM     15  C   UNL     1      12.220   5.807  -0.971  0.00  0.00    +0.190 C 
ATOM     16  C   UNL     1      13.612   4.162   1.664  0.00  0.00    +0.207 C 
ENDROOT
BRANCH  13   5
ATOM      5  N   UNL     1      11.216   3.954  -2.364  0.00  0.00    -0.221 N 
ATOM      6  N   UNL     1       9.945   4.309  -2.153  0.00  0.00    -0.043 NA
ATOM      7  N   UNL     1      10.118   3.108  -4.024  0.00  0.00    -0.113 NA
ATOM      8  N   UNL     1       9.275   3.789  -3.173  0.00  0.00    -0.023 NA
ATOM     17  C   UNL     1      11.317   3.226  -3.501  0.00  0.00    +0.156 A 
BRANCH  17  18
ATOM     18  C   UNL     1      12.583   2.682  -4.018  0.00  0.00    +0.104 C 
BRANCH  18  20
ATOM     20  C   UNL     1      12.985   3.159  -5.403  0.00  0.00    -0.027 C 
ATOM     22  C   UNL     1      13.351   2.355  -6.408  0.00  0.00    +0.004 C 
ENDBRANCH  18  20
ENDBRANCH  17  18
ENDBRANCH  13   5
BRANCH  14   3
ATOM      3  O   UNL     1      12.023   5.403   3.010  0.00  0.00    -0.442 OA
BRANCH   3  19
ATOM      4  O   UNL     1      10.107   4.479   3.849  0.00  0.00    -0.226 OA
ATOM      9  N   UNL     1      11.181   6.265   4.917  0.00  0.00    -0.251 N 
ATOM     19  C   UNL     1      11.005   5.308   3.936  0.00  0.00    +0.405 C 
ATOM     29  H   UNL     1      11.994   6.866   4.815  0.00  0.00    +0.158 HD
BRANCH   9  21
ATOM     21  C   UNL     1      10.369   6.513   6.047  0.00  0.00    +0.038 A 
ATOM     23  C   UNL     1      10.533   5.741   7.185  0.00  0.00    +0.042 A 
ATOM     24  C   UNL     1       9.422   7.524   5.993  0.00  0.00    +0.023 A 
ATOM     25  C   UNL     1       9.731   5.985   8.299  0.00  0.00    +0.054 A 
ATOM     26  C   UNL     1       8.619   7.768   7.107  0.00  0.00    +0.003 A 
ATOM     27  C   UNL     1       8.773   6.999   8.261  0.00  0.00    +0.019 A 
BRANCH  25  28
ATOM     10  N   UNL     1      10.016   4.557  10.442  0.00  0.00    -0.191 NA
ATOM     28  C   UNL     1       9.887   5.198   9.481  0.00  0.00    +0.099 C 
ENDBRANCH  25  28
ENDBRANCH   9  21
ENDBRANCH   3  19
ENDBRANCH  14   3
TORSDOF 7
ENDMDL
MODEL 6
REMARK VINA RESULT:      -6.6      3.324      4.793
REMARK  Name = 11886105
REMARK  7 active torsions:
REMARK  status: ('A' for Active; 'I' for Inactive)
REMARK    1  A    between atoms: O_3  and  C_14
REMARK    2  A    between atoms: O_3  and  C_19
REMARK    3  A    between atoms: N_5  and  C_13
REMARK    4  A    between atoms: N_9  and  C_21
REMARK    5  A    between atoms: C_17  and  C_18
REMARK    6  A    between atoms: C_18  and  C_20
REMARK    7  A    between atoms: C_25  and  C_28
REMARK                            x       y       z     vdW  Elec       q    Type
REMARK                         _______ _______ _______ _____ _____    ______ ____
ROOT
ATOM      1  O   UNL     1      13.867   9.397  20.195  0.00  0.00    -0.368 OA
ATOM      2  O   UNL     1      11.179   8.415  19.026  0.00  0.00    -0.368 OA
ATOM     11  C   UNL     1      11.592   8.735  20.373  0.00  0.00    +0.177 C 
ATOM     12  C   UNL     1      13.029   8.274  20.511  0.00  0.00    +0.192 C 
ATOM     13  C   UNL     1      11.657  10.241  20.539  0.00  0.00    +0.168 C 
ATOM     14  C   UNL     1      13.133   7.189  19.466  0.00  0.00    +0.235 C 
ATOM     15  C   UNL     1      13.059  10.573  20.040  0.00  0.00    +0.190 C 
ATOM     16  C   UNL     1      12.247   7.724  18.364  0.00  0.00    +0.207 C 
ENDROOT
BRANCH  13   5
ATOM      5  N   UNL     1      11.362  10.666  21.910  0.00  0.00    -0.221 N 
ATOM      6  N   UNL     1      11.171   9.767  22.880  0.00  0.00    -0.043 NA
ATOM      7  N   UNL     1      10.973  11.836  23.686  0.00  0.00    -0.113 NA
ATOM      8  N   UNL     1      10.933  10.489  23.968  0.00  0.00    -0.023 NA
ATOM     17  C   UNL     1      11.242  11.922  22.403  0.00  0.00    +0.156 A 
BRANCH  17  18
ATOM     18  C   UNL     1      11.396  13.140  21.592  0.00  0.00    +0.104 C 
BRANCH  18  20
ATOM     20  C   UNL     1      10.172  14.037  21.518  0.00  0.00    -0.027 C 
ATOM     22  C   UNL     1       9.821  14.923  22.457  0.00  0.00    +0.004 C 
ENDBRANCH  18  20
ENDBRANCH  17  18
ENDBRANCH  13   5
BRANCH  14   3
ATOM      3  O   UNL     1      14.450   6.957  19.023  0.00  0.00    -0.442 OA
BRANCH   3  19
ATOM      4  O   UNL     1      15.187   5.882  20.903  0.00  0.00    -0.226 OA
ATOM      9  N   UNL     1      16.540   7.402  19.745  0.00  0.00    -0.251 N 
ATOM     19  C   UNL     1      15.393   6.673  19.989  0.00  0.00    +0.405 C 
ATOM     29  H   UNL     1      16.520   8.010  18.930  0.00  0.00    +0.158 HD
BRANCH   9  21
ATOM     21  C   UNL     1      17.742   7.411  20.489  0.00  0.00    +0.038 A 
ATOM     23  C   UNL     1      18.641   6.367  20.340  0.00  0.00    +0.042 A 
ATOM     24  C   UNL     1      17.996   8.462  21.355  0.00  0.00    +0.023 A 
ATOM     25  C   UNL     1      19.826   6.376  21.076  0.00  0.00    +0.054 A 
ATOM     26  C   UNL     1      19.181   8.470  22.091  0.00  0.00    +0.003 A 
ATOM     27  C   UNL     1      20.096   7.427  21.952  0.00  0.00    +0.019 A 
BRANCH  25  28
ATOM     10  N   UNL     1      21.527   4.439  20.818  0.00  0.00    -0.191 NA
ATOM     28  C   UNL     1      20.764   5.307  20.935  0.00  0.00    +0.099 C 
ENDBRANCH  25  28
ENDBRANCH   9  21
ENDBRANCH   3  19
ENDBRANCH  14   3
TORSDOF 7
ENDMDL
MODEL 7
REMARK VINA RESULT:      -6.6     27.719     29.554
REMARK  Name = 11886105
REMARK  7 active torsions:
REMARK  status: ('A' for Active; 'I' for Inactive)
REMARK    1  A    between atoms: O_3  and  C_14
REMARK    2  A    between atoms: O_3  and  C_19
REMARK    3  A    between atoms: N_5  and  C_13
REMARK    4  A    between atoms: N_9  and  C_21
REMARK    5  A    between atoms: C_17  and  C_18
REMARK    6  A    between atoms: C_18  and  C_20
REMARK    7  A    between atoms: C_25  and  C_28
REMARK                            x       y       z     vdW  Elec       q    Type
REMARK                         _______ _______ _______ _____ _____    ______ ____
ROOT
ATOM      1  O   UNL     1      -2.344 -10.306  12.785  0.00  0.00    -0.368 OA
ATOM      2  O   UNL     1      -2.942 -13.059  11.512  0.00  0.00    -0.368 OA
ATOM     11  C   UNL     1      -3.713 -11.840  11.595  0.00  0.00    +0.177 C 
ATOM     12  C   UNL     1      -3.428 -11.234  12.954  0.00  0.00    +0.192 C 
ATOM     13  C   UNL     1      -3.172 -10.828  10.604  0.00  0.00    +0.168 C 
ATOM     14  C   UNL     1      -3.013 -12.433  13.773  0.00  0.00    +0.235 C 
ATOM     15  C   UNL     1      -2.049 -10.159  11.388  0.00  0.00    +0.190 C 
ATOM     16  C   UNL     1      -2.266 -13.268  12.759  0.00  0.00    +0.207 C 
ENDROOT
BRANCH  13   5
ATOM      5  N   UNL     1      -4.211  -9.925  10.102  0.00  0.00    -0.221 N 
ATOM      6  N   UNL     1      -4.551  -8.827  10.783  0.00  0.00    -0.043 NA
ATOM      7  N   UNL     1      -5.757  -8.991   8.915  0.00  0.00    -0.113 NA
ATOM      8  N   UNL     1      -5.499  -8.256  10.052  0.00  0.00    -0.023 NA
ATOM     17  C   UNL     1      -4.945 -10.021   8.968  0.00  0.00    +0.156 A 
BRANCH  17  18
ATOM     18  C   UNL     1      -4.813 -11.117   7.995  0.00  0.00    +0.104 C 
BRANCH  18  20
ATOM     20  C   UNL     1      -5.185 -10.770   6.563  0.00  0.00    -0.027 C 
ATOM     22  C   UNL     1      -5.088 -11.611   5.528  0.00  0.00    +0.004 C 
ENDBRANCH  18  20
ENDBRANCH  17  18
ENDBRANCH  13   5
BRANCH  14   3
ATOM      3  O   UNL     1      -2.213 -12.106  14.886  0.00  0.00    -0.442 OA
BRANCH   3  19
ATOM      4  O   UNL     1      -2.319 -10.244  16.210  0.00  0.00    -0.226 OA
ATOM      9  N   UNL     1      -3.931 -11.937  16.337  0.00  0.00    -0.251 N 
ATOM     19  C   UNL     1      -2.791 -11.320  15.861  0.00  0.00    +0.405 C 
ATOM     29  H   UNL     1      -4.163 -12.834  15.919  0.00  0.00    +0.158 HD
BRANCH   9  21
ATOM     21  C   UNL     1      -4.819 -11.476  17.336  0.00  0.00    +0.038 A 
ATOM     23  C   UNL     1      -5.896 -10.682  16.976  0.00  0.00    +0.042 A 
ATOM     24  C   UNL     1      -4.593 -11.825  18.658  0.00  0.00    +0.023 A 
ATOM     25  C   UNL     1      -6.770 -10.227  17.962  0.00  0.00    +0.054 A 
ATOM     26  C   UNL     1      -5.467 -11.369  19.645  0.00  0.00    +0.003 A 
ATOM     27  C   UNL     1      -6.556 -10.570  19.298  0.00  0.00    +0.019 A 
BRANCH  25  28
ATOM     10  N   UNL     1      -8.793  -8.743  17.319  0.00  0.00    -0.191 NA
ATOM     28  C   UNL     1      -7.886  -9.407  17.608  0.00  0.00    +0.099 C 
ENDBRANCH  25  28
ENDBRANCH   9  21
ENDBRANCH   3  19
ENDBRANCH  14   3
TORSDOF 7
ENDMDL
MODEL 8
REMARK VINA RESULT:      -6.6     13.552     14.658
REMARK  Name = 11886105
REMARK  7 active torsions:
REMARK  status: ('A' for Active; 'I' for Inactive)
REMARK    1  A    between atoms: O_3  and  C_14
REMARK    2  A    between atoms: O_3  and  C_19
REMARK    3  A    between atoms: N_5  and  C_13
REMARK    4  A    between atoms: N_9  and  C_21
REMARK    5  A    between atoms: C_17  and  C_18
REMARK    6  A    between atoms: C_18  and  C_20
REMARK    7  A    between atoms: C_25  and  C_28
REMARK                            x       y       z     vdW  Elec       q    Type
REMARK                         _______ _______ _______ _____ _____    ______ ____
ROOT
ATOM      1  O   UNL     1      12.767   9.224   7.036  0.00  0.00    -0.368 OA
ATOM      2  O   UNL     1      13.234   7.233   4.718  0.00  0.00    -0.368 OA
ATOM     11  C   UNL     1      12.869   7.042   6.103  0.00  0.00    +0.177 C 
ATOM     12  C   UNL     1      13.627   8.081   6.903  0.00  0.00    +0.192 C 
ATOM     13  C   UNL     1      11.409   7.401   6.297  0.00  0.00    +0.168 C 
ATOM     14  C   UNL     1      14.816   8.378   6.021  0.00  0.00    +0.235 C 
ATOM     15  C   UNL     1      11.462   8.907   6.529  0.00  0.00    +0.190 C 
ATOM     16  C   UNL     1      14.219   8.271   4.637  0.00  0.00    +0.207 C 
ENDROOT
BRANCH  13   5
ATOM      5  N   UNL     1      10.778   6.624   7.367  0.00  0.00    -0.221 N 
ATOM      6  N   UNL     1      11.509   5.849   8.173  0.00  0.00    -0.043 NA
ATOM      7  N   UNL     1       9.353   5.735   8.728  0.00  0.00    -0.113 NA
ATOM      8  N   UNL     1      10.632   5.306   9.007  0.00  0.00    -0.023 NA
ATOM     17  C   UNL     1       9.469   6.553   7.707  0.00  0.00    +0.156 A 
BRANCH  17  18
ATOM     18  C   UNL     1       8.399   7.289   7.015  0.00  0.00    +0.104 C 
BRANCH  18  20
ATOM     20  C   UNL     1       8.014   6.753   5.647  0.00  0.00    -0.027 C 
ATOM     22  C   UNL     1       8.229   7.394   4.492  0.00  0.00    +0.004 C 
ENDBRANCH  18  20
ENDBRANCH  17  18
ENDBRANCH  13   5
BRANCH  14   3
ATOM      3  O   UNL     1      15.391   9.644   6.256  0.00  0.00    -0.442 OA
BRANCH   3  19
ATOM      4  O   UNL     1      17.096  10.846   5.319  0.00  0.00    -0.226 OA
ATOM      9  N   UNL     1      17.431   8.686   6.158  0.00  0.00    -0.251 N 
ATOM     19  C   UNL     1      16.699   9.818   5.855  0.00  0.00    +0.405 C 
ATOM     29  H   UNL     1      16.921   7.930   6.608  0.00  0.00    +0.158 HD
BRANCH   9  21
ATOM     21  C   UNL     1      18.803   8.446   5.919  0.00  0.00    +0.038 A 
ATOM     23  C   UNL     1      19.217   8.065   4.653  0.00  0.00    +0.042 A 
ATOM     24  C   UNL     1      19.708   8.593   6.958  0.00  0.00    +0.023 A 
ATOM     25  C   UNL     1      20.571   7.826   4.419  0.00  0.00    +0.054 A 
ATOM     26  C   UNL     1      21.062   8.355   6.724  0.00  0.00    +0.003 A 
ATOM     27  C   UNL     1      21.494   7.971   5.454  0.00  0.00    +0.019 A 
BRANCH  25  28
ATOM     10  N   UNL     1      21.376   7.112   2.062  0.00  0.00    -0.191 NA
ATOM     28  C   UNL     1      21.014   7.433   3.118  0.00  0.00    +0.099 C 
ENDBRANCH  25  28
ENDBRANCH   9  21
ENDBRANCH   3  19
ENDBRANCH  14   3
TORSDOF 7
ENDMDL
MODEL 9
REMARK VINA RESULT:      -6.5     27.656     30.004
REMARK  Name = 11886105
REMARK  7 active torsions:
REMARK  status: ('A' for Active; 'I' for Inactive)
REMARK    1  A    between atoms: O_3  and  C_14
REMARK    2  A    between atoms: O_3  and  C_19
REMARK    3  A    between atoms: N_5  and  C_13
REMARK    4  A    between atoms: N_9  and  C_21
REMARK    5  A    between atoms: C_17  and  C_18
REMARK    6  A    between atoms: C_18  and  C_20
REMARK    7  A    between atoms: C_25  and  C_28
REMARK                            x       y       z     vdW  Elec       q    Type
REMARK                         _______ _______ _______ _____ _____    ______ ____
ROOT
ATOM      1  O   UNL     1      -6.802 -11.414  16.331  0.00  0.00    -0.368 OA
ATOM      2  O   UNL     1      -6.473 -11.206  19.398  0.00  0.00    -0.368 OA
ATOM     11  C   UNL     1      -6.975 -10.279  18.411  0.00  0.00    +0.177 C 
ATOM     12  C   UNL     1      -6.127 -10.460  17.168  0.00  0.00    +0.192 C 
ATOM     13  C   UNL     1      -8.369 -10.696  17.986  0.00  0.00    +0.168 C 
ATOM     14  C   UNL     1      -4.838 -11.018  17.722  0.00  0.00    +0.235 C 
ATOM     15  C   UNL     1      -8.094 -11.709  16.880  0.00  0.00    +0.190 C 
ATOM     16  C   UNL     1      -5.330 -11.885  18.859  0.00  0.00    +0.207 C 
ENDROOT
BRANCH  13   5
ATOM      5  N   UNL     1      -9.202  -9.554  17.598  0.00  0.00    -0.221 N 
ATOM      6  N   UNL     1      -8.692  -8.546  16.884  0.00  0.00    -0.043 NA
ATOM      7  N   UNL     1     -10.848  -8.181  17.320  0.00  0.00    -0.113 NA
ATOM      8  N   UNL     1      -9.705  -7.706  16.715  0.00  0.00    -0.023 NA
ATOM     17  C   UNL     1     -10.511  -9.330  17.860  0.00  0.00    +0.156 A 
BRANCH  17  18
ATOM     18  C   UNL     1     -11.366 -10.251  18.626  0.00  0.00    +0.104 C 
BRANCH  18  20
ATOM     20  C   UNL     1     -11.606  -9.869  20.077  0.00  0.00    -0.027 C 
ATOM     22  C   UNL     1     -12.775 -10.001  20.713  0.00  0.00    +0.004 C 
ENDBRANCH  18  20
ENDBRANCH  17  18
ENDBRANCH  13   5
BRANCH  14   3
ATOM      3  O   UNL     1      -4.089 -11.751  16.780  0.00  0.00    -0.442 OA
BRANCH   3  19
ATOM      4  O   UNL     1      -2.463 -10.296  16.097  0.00  0.00    -0.226 OA
ATOM      9  N   UNL     1      -3.959 -11.268  14.581  0.00  0.00    -0.251 N 
ATOM     19  C   UNL     1      -3.408 -11.027  15.825  0.00  0.00    +0.405 C 
ATOM     29  H   UNL     1      -4.746 -11.912  14.557  0.00  0.00    +0.158 HD
BRANCH   9  21
ATOM     21  C   UNL     1      -3.566 -10.730  13.335  0.00  0.00    +0.038 A 
ATOM     23  C   UNL     1      -4.515 -10.134  12.521  0.00  0.00    +0.042 A 
ATOM     24  C   UNL     1      -2.237 -10.812  12.950  0.00  0.00    +0.023 A 
ATOM     25  C   UNL     1      -4.126  -9.605  11.290  0.00  0.00    +0.054 A 
ATOM     26  C   UNL     1      -1.848 -10.283  11.719  0.00  0.00    +0.003 A 
ATOM     27  C   UNL     1      -2.792  -9.680  10.889  0.00  0.00    +0.019 A 
BRANCH  25  28
ATOM     10  N   UNL     1      -5.880  -8.487   9.746  0.00  0.00    -0.191 NA
ATOM     28  C   UNL     1      -5.093  -8.988  10.439  0.00  0.00    +0.099 C 
ENDBRANCH  25  28
ENDBRANCH   9  21
ENDBRANCH   3  19
ENDBRANCH  14   3
TORSDOF 7
ENDMDL
MODEL 10
REMARK VINA RESULT:      -6.4      5.669      7.628
REMARK  Name = 11886105
REMARK  7 active torsions:
REMARK  status: ('A' for Active; 'I' for Inactive)
REMARK    1  A    between atoms: O_3  and  C_14
REMARK    2  A    between atoms: O_3  and  C_19
REMARK    3  A    between atoms: N_5  and  C_13
REMARK    4  A    between atoms: N_9  and  C_21
REMARK    5  A    between atoms: C_17  and  C_18
REMARK    6  A    between atoms: C_18  and  C_20
REMARK    7  A    between atoms: C_25  and  C_28
REMARK                            x       y       z     vdW  Elec       q    Type
REMARK                         _______ _______ _______ _____ _____    ______ ____
ROOT
ATOM      1  O   UNL     1      14.106  10.337  17.759  0.00  0.00    -0.368 OA
ATOM      2  O   UNL     1      12.098   8.398  16.432  0.00  0.00    -0.368 OA
ATOM     11  C   UNL     1      13.379   8.184  17.066  0.00  0.00    +0.177 C 
ATOM     12  C   UNL     1      14.249   9.372  16.705  0.00  0.00    +0.192 C 
ATOM     13  C   UNL     1      13.220   8.270  18.571  0.00  0.00    +0.168 C 
ATOM     14  C   UNL     1      13.630   9.858  15.416  0.00  0.00    +0.235 C 
ATOM     15  C   UNL     1      13.349   9.766  18.837  0.00  0.00    +0.190 C 
ATOM     16  C   UNL     1      12.160   9.599  15.651  0.00  0.00    +0.207 C 
ENDROOT
BRANCH  13   5
ATOM      5  N   UNL     1      14.178   7.422  19.284  0.00  0.00    -0.221 N 
ATOM      6  N   UNL     1      15.236   6.902  18.653  0.00  0.00    -0.043 NA
ATOM      7  N   UNL     1      15.225   6.285  20.796  0.00  0.00    -0.113 NA
ATOM      8  N   UNL     1      15.875   6.206  19.584  0.00  0.00    -0.023 NA
ATOM     17  C   UNL     1      14.176   7.046  20.585  0.00  0.00    +0.156 A 
BRANCH  17  18
ATOM     18  C   UNL     1      13.145   7.450  21.555  0.00  0.00    +0.104 C 
BRANCH  18  20
ATOM     20  C   UNL     1      11.827   6.701  21.462  0.00  0.00    -0.027 C 
ATOM     22  C   UNL     1      10.635   7.219  21.775  0.00  0.00    +0.004 C 
ENDBRANCH  18  20
ENDBRANCH  17  18
ENDBRANCH  13   5
BRANCH  14   3
ATOM      3  O   UNL     1      13.893  11.215  15.141  0.00  0.00    -0.442 OA
BRANCH   3  19
ATOM      4  O   UNL     1      15.066  11.267  13.178  0.00  0.00    -0.226 OA
ATOM      9  N   UNL     1      15.992  12.040  15.184  0.00  0.00    -0.251 N 
ATOM     19  C   UNL     1      15.010  11.493  14.381  0.00  0.00    +0.405 C 
ATOM     29  H   UNL     1      15.756  12.152  16.167  0.00  0.00    +0.158 HD
BRANCH   9  21
ATOM     21  C   UNL     1      17.287  12.466  14.810  0.00  0.00    +0.038 A 
ATOM     23  C   UNL     1      18.282  11.523  14.612  0.00  0.00    +0.042 A 
ATOM     24  C   UNL     1      17.536  13.820  14.650  0.00  0.00    +0.023 A 
ATOM     25  C   UNL     1      19.560  11.944  14.245  0.00  0.00    +0.054 A 
ATOM     26  C   UNL     1      18.814  14.241  14.283  0.00  0.00    +0.003 A 
ATOM     27  C   UNL     1      19.826  13.304  14.080  0.00  0.00    +0.019 A 
BRANCH  25  28
ATOM     10  N   UNL     1      21.441  10.203  13.868  0.00  0.00    -0.191 NA
ATOM     28  C   UNL     1      20.598  10.985  14.037  0.00  0.00    +0.099 C 
ENDBRANCH  25  28
ENDBRANCH   9  21
ENDBRANCH   3  19
ENDBRANCH  14   3
TORSDOF 7
ENDMDL
