MODEL 1
REMARK VINA RESULT:      -7.2      0.000      0.000
REMARK  Name = 75536705
REMARK  9 active torsions:
REMARK  status: ('A' for Active; 'I' for Inactive)
REMARK    1  A    between atoms: S_1  and  N_7
REMARK    2  A    between atoms: S_1  and  C_16
REMARK    3  A    between atoms: O_3  and  C_10
REMARK    4  A    between atoms: N_6  and  C_9
REMARK    5  A    between atoms: N_6  and  C_14
REMARK    6  A    between atoms: N_7  and  C_13
REMARK    7  A    between atoms: C_11  and  C_13
REMARK    8  A    between atoms: C_14  and  C_15
REMARK    9  A    between atoms: C_22  and  C_26
REMARK                            x       y       z     vdW  Elec       q    Type
REMARK                         _______ _______ _______ _____ _____    ______ ____
ROOT
ATOM      2  O   UNL     1      10.580   8.474  19.650  0.00  0.00    -0.371 OA
ATOM      9  C   UNL     1      12.457   7.083  19.225  0.00  0.00    +0.111 C 
ATOM     10  C   UNL     1      12.380   7.368  20.713  0.00  0.00    +0.164 C 
ATOM     11  C   UNL     1      10.921   7.774  20.858  0.00  0.00    +0.164 C 
ATOM     12  C   UNL     1      11.586   8.191  18.660  0.00  0.00    +0.181 C 
ENDROOT
BRANCH  10   3
ATOM      3  O   UNL     1      12.695   6.238  21.503  0.00  0.00    -0.388 OA
ATOM     29  H   UNL     1      13.644   6.270  21.718  0.00  0.00    +0.210 HD
ENDBRANCH  10   3
BRANCH   9   6
ATOM      6  N   UNL     1      13.813   7.104  18.696  0.00  0.00    -0.303 NA
ATOM     27  H   UNL     1      13.802   7.524  17.766  0.00  0.00    +0.123 HD
BRANCH   6  14
ATOM     14  C   UNL     1      14.698   7.881  19.554  0.00  0.00    +0.137 C 
BRANCH  14  15
ATOM      8  N   UNL     1      16.312   6.182  18.902  0.00  0.00    -0.259 NA
ATOM     15  C   UNL     1      16.037   7.213  19.730  0.00  0.00    +0.055 A 
ATOM     17  C   UNL     1      16.902   7.676  20.708  0.00  0.00    +0.024 A 
ATOM     23  C   UNL     1      18.131   7.038  20.844  0.00  0.00    +0.003 A 
ATOM     24  C   UNL     1      17.515   5.586  19.064  0.00  0.00    +0.111 A 
ATOM     25  C   UNL     1      18.451   5.973  20.010  0.00  0.00    +0.020 A 
ENDBRANCH  14  15
ENDBRANCH   6  14
ENDBRANCH   9   6
BRANCH  11  13
ATOM     13  C   UNL     1      10.662   8.667  22.059  0.00  0.00    +0.140 C 
BRANCH  13   7
ATOM      7  N   UNL     1      11.947   9.067  22.664  0.00  0.00    -0.187 NA
ATOM     28  H   UNL     1      12.112   8.736  23.623  0.00  0.00    +0.148 HD
BRANCH   7   1
ATOM      1  S   UNL     1      12.718  10.497  22.158  0.00  0.00    +0.058 S 
ATOM      4  O   UNL     1      12.166  10.916  20.884  0.00  0.00    -0.153 OA
ATOM      5  O   UNL     1      14.151  10.343  22.317  0.00  0.00    -0.153 OA
BRANCH   1  16
ATOM     16  C   UNL     1      12.184  11.650  23.388  0.00  0.00    +0.105 A 
ATOM     18  C   UNL     1      11.286  11.248  24.376  0.00  0.00    +0.029 A 
ATOM     19  C   UNL     1      12.659  12.961  23.368  0.00  0.00    +0.029 A 
ATOM     20  C   UNL     1      10.862  12.158  25.344  0.00  0.00    +0.005 A 
ATOM     21  C   UNL     1      12.236  13.871  24.336  0.00  0.00    +0.005 A 
ATOM     22  C   UNL     1      11.337  13.470  25.324  0.00  0.00    -0.050 A 
ATOM     26  C   UNL     1      10.884  14.443  26.360  0.00  0.00    +0.044 C 
ENDBRANCH   1  16
ENDBRANCH   7   1
ENDBRANCH  13   7
ENDBRANCH  11  13
TORSDOF 8
ENDMDL
MODEL 2
REMARK VINA RESULT:      -7.1      1.870      2.737
REMARK  Name = 75536705
REMARK  9 active torsions:
REMARK  status: ('A' for Active; 'I' for Inactive)
REMARK    1  A    between atoms: S_1  and  N_7
REMARK    2  A    between atoms: S_1  and  C_16
REMARK    3  A    between atoms: O_3  and  C_10
REMARK    4  A    between atoms: N_6  and  C_9
REMARK    5  A    between atoms: N_6  and  C_14
REMARK    6  A    between atoms: N_7  and  C_13
REMARK    7  A    between atoms: C_11  and  C_13
REMARK    8  A    between atoms: C_14  and  C_15
REMARK    9  A    between atoms: C_22  and  C_26
REMARK                            x       y       z     vdW  Elec       q    Type
REMARK                         _______ _______ _______ _____ _____    ______ ____
ROOT
ATOM      2  O   UNL     1      10.545   8.347  19.877  0.00  0.00    -0.371 OA
ATOM      9  C   UNL     1      12.737   7.612  19.334  0.00  0.00    +0.111 C 
ATOM     10  C   UNL     1      12.572   7.603  20.842  0.00  0.00    +0.164 C 
ATOM     11  C   UNL     1      11.055   7.567  20.971  0.00  0.00    +0.164 C 
ATOM     12  C   UNL     1      11.597   8.523  18.911  0.00  0.00    +0.181 C 
ENDROOT
BRANCH  10   3
ATOM      3  O   UNL     1      13.181   6.482  21.452  0.00  0.00    -0.388 OA
ATOM     29  H   UNL     1      12.827   6.396  22.355  0.00  0.00    +0.210 HD
ENDBRANCH  10   3
BRANCH   9   6
ATOM      6  N   UNL     1      14.038   8.090  18.892  0.00  0.00    -0.303 NA
ATOM     27  H   UNL     1      14.488   8.590  19.659  0.00  0.00    +0.123 HD
BRANCH   6  14
ATOM     14  C   UNL     1      14.893   6.982  18.484  0.00  0.00    +0.137 C 
BRANCH  14  15
ATOM      8  N   UNL     1      16.128   7.628  20.479  0.00  0.00    -0.259 NA
ATOM     15  C   UNL     1      16.104   6.854  19.371  0.00  0.00    +0.055 A 
ATOM     17  C   UNL     1      17.112   5.971  19.019  0.00  0.00    +0.024 A 
ATOM     23  C   UNL     1      18.215   5.876  19.860  0.00  0.00    +0.003 A 
ATOM     24  C   UNL     1      17.216   7.508  21.272  0.00  0.00    +0.111 A 
ATOM     25  C   UNL     1      18.277   6.655  21.010  0.00  0.00    +0.020 A 
ENDBRANCH  14  15
ENDBRANCH   6  14
ENDBRANCH   9   6
BRANCH  11  13
ATOM     13  C   UNL     1      10.551   8.134  22.286  0.00  0.00    +0.140 C 
BRANCH  13   7
ATOM      7  N   UNL     1      11.622   8.919  22.930  0.00  0.00    -0.187 NA
ATOM     28  H   UNL     1      12.142   8.439  23.674  0.00  0.00    +0.148 HD
BRANCH   7   1
ATOM      1  S   UNL     1      11.521  10.617  22.979  0.00  0.00    +0.058 S 
ATOM      4  O   UNL     1      10.851  11.023  24.200  0.00  0.00    -0.153 OA
ATOM      5  O   UNL     1      11.051  11.100  21.695  0.00  0.00    -0.153 OA
BRANCH   1  16
ATOM     16  C   UNL     1      13.222  11.077  23.113  0.00  0.00    +0.105 A 
ATOM     18  C   UNL     1      14.179  10.446  22.319  0.00  0.00    +0.029 A 
ATOM     19  C   UNL     1      13.608  12.069  24.015  0.00  0.00    +0.029 A 
ATOM     20  C   UNL     1      15.522  10.806  22.426  0.00  0.00    +0.005 A 
ATOM     21  C   UNL     1      14.951  12.430  24.122  0.00  0.00    +0.005 A 
ATOM     22  C   UNL     1      15.908  11.799  23.328  0.00  0.00    -0.050 A 
ATOM     26  C   UNL     1      17.345  12.184  23.443  0.00  0.00    +0.044 C 
ENDBRANCH   1  16
ENDBRANCH   7   1
ENDBRANCH  13   7
ENDBRANCH  11  13
TORSDOF 8
ENDMDL
MODEL 3
REMARK VINA RESULT:      -6.9     27.383     29.832
REMARK  Name = 75536705
REMARK  9 active torsions:
REMARK  status: ('A' for Active; 'I' for Inactive)
REMARK    1  A    between atoms: S_1  and  N_7
REMARK    2  A    between atoms: S_1  and  C_16
REMARK    3  A    between atoms: O_3  and  C_10
REMARK    4  A    between atoms: N_6  and  C_9
REMARK    5  A    between atoms: N_6  and  C_14
REMARK    6  A    between atoms: N_7  and  C_13
REMARK    7  A    between atoms: C_11  and  C_13
REMARK    8  A    between atoms: C_14  and  C_15
REMARK    9  A    between atoms: C_22  and  C_26
REMARK                            x       y       z     vdW  Elec       q    Type
REMARK                         _______ _______ _______ _____ _____    ______ ____
ROOT
ATOM      2  O   UNL     1     -17.455   5.414  24.405  0.00  0.00    -0.371 OA
ATOM      9  C   UNL     1     -15.969   4.196  23.008  0.00  0.00    +0.111 C 
ATOM     10  C   UNL     1     -15.709   3.819  24.455  0.00  0.00    +0.164 C 
ATOM     11  C   UNL     1     -17.020   4.238  25.107  0.00  0.00    +0.164 C 
ATOM     12  C   UNL     1     -16.723   5.505  23.169  0.00  0.00    +0.181 C 
ENDROOT
BRANCH  10   3
ATOM      3  O   UNL     1     -15.454   2.438  24.622  0.00  0.00    -0.388 OA
ATOM     29  H   UNL     1     -14.615   2.339  25.105  0.00  0.00    +0.210 HD
ENDBRANCH  10   3
BRANCH   9   6
ATOM      6  N   UNL     1     -14.757   4.334  22.215  0.00  0.00    -0.303 NA
ATOM     27  H   UNL     1     -15.012   4.433  21.232  0.00  0.00    +0.123 HD
BRANCH   6  14
ATOM     14  C   UNL     1     -13.994   5.507  22.625  0.00  0.00    +0.137 C 
BRANCH  14  15
ATOM      8  N   UNL     1     -14.423   6.906  20.681  0.00  0.00    -0.259 NA
ATOM     15  C   UNL     1     -13.490   6.289  21.440  0.00  0.00    +0.055 A 
ATOM     17  C   UNL     1     -12.129   6.339  21.189  0.00  0.00    +0.024 A 
ATOM     23  C   UNL     1     -11.697   7.071  20.088  0.00  0.00    +0.003 A 
ATOM     24  C   UNL     1     -13.966   7.608  19.620  0.00  0.00    +0.111 A 
ATOM     25  C   UNL     1     -12.626   7.721  19.284  0.00  0.00    +0.020 A 
ENDBRANCH  14  15
ENDBRANCH   6  14
ENDBRANCH   9   6
BRANCH  11  13
ATOM     13  C   UNL     1     -16.883   4.545  26.588  0.00  0.00    +0.140 C 
BRANCH  13   7
ATOM      7  N   UNL     1     -16.087   3.488  27.240  0.00  0.00    -0.187 NA
ATOM     28  H   UNL     1     -15.107   3.417  26.942  0.00  0.00    +0.148 HD
BRANCH   7   1
ATOM      1  S   UNL     1     -16.854   2.090  27.834  0.00  0.00    +0.058 S 
ATOM      4  O   UNL     1     -16.418   0.939  27.066  0.00  0.00    -0.153 OA
ATOM      5  O   UNL     1     -18.269   2.362  28.000  0.00  0.00    -0.153 OA
BRANCH   1  16
ATOM     16  C   UNL     1     -16.161   1.958  29.455  0.00  0.00    +0.105 A 
ATOM     18  C   UNL     1     -16.180   3.057  30.313  0.00  0.00    +0.029 A 
ATOM     19  C   UNL     1     -15.593   0.754  29.875  0.00  0.00    +0.029 A 
ATOM     20  C   UNL     1     -15.630   2.954  31.591  0.00  0.00    +0.005 A 
ATOM     21  C   UNL     1     -15.044   0.651  31.153  0.00  0.00    +0.005 A 
ATOM     22  C   UNL     1     -15.062   1.751  32.011  0.00  0.00    -0.050 A 
ATOM     26  C   UNL     1     -14.475   1.641  33.378  0.00  0.00    +0.044 C 
ENDBRANCH   1  16
ENDBRANCH   7   1
ENDBRANCH  13   7
ENDBRANCH  11  13
TORSDOF 8
ENDMDL
MODEL 4
REMARK VINA RESULT:      -6.8      3.013      7.047
REMARK  Name = 75536705
REMARK  9 active torsions:
REMARK  status: ('A' for Active; 'I' for Inactive)
REMARK    1  A    between atoms: S_1  and  N_7
REMARK    2  A    between atoms: S_1  and  C_16
REMARK    3  A    between atoms: O_3  and  C_10
REMARK    4  A    between atoms: N_6  and  C_9
REMARK    5  A    between atoms: N_6  and  C_14
REMARK    6  A    between atoms: N_7  and  C_13
REMARK    7  A    between atoms: C_11  and  C_13
REMARK    8  A    between atoms: C_14  and  C_15
REMARK    9  A    between atoms: C_22  and  C_26
REMARK                            x       y       z     vdW  Elec       q    Type
REMARK                         _______ _______ _______ _____ _____    ______ ____
ROOT
ATOM      2  O   UNL     1      13.453   8.195  21.359  0.00  0.00    -0.371 OA
ATOM      9  C   UNL     1      11.438   8.888  22.409  0.00  0.00    +0.111 C 
ATOM     10  C   UNL     1      11.098   8.108  21.153  0.00  0.00    +0.164 C 
ATOM     11  C   UNL     1      12.388   7.329  20.933  0.00  0.00    +0.164 C 
ATOM     12  C   UNL     1      12.889   9.256  22.152  0.00  0.00    +0.181 C 
ENDROOT
BRANCH  10   3
ATOM      3  O   UNL     1       9.987   7.250  21.325  0.00  0.00    -0.388 OA
ATOM     29  H   UNL     1      10.071   6.811  22.190  0.00  0.00    +0.210 HD
ENDBRANCH  10   3
BRANCH   9   6
ATOM      6  N   UNL     1      10.589  10.049  22.622  0.00  0.00    -0.303 NA
ATOM     27  H   UNL     1      10.386  10.137  23.618  0.00  0.00    +0.123 HD
BRANCH   6  14
ATOM     14  C   UNL     1      11.244  11.269  22.165  0.00  0.00    +0.137 C 
BRANCH  14  15
ATOM      8  N   UNL     1      10.494  13.579  22.313  0.00  0.00    -0.259 NA
ATOM     15  C   UNL     1      10.844  12.463  22.991  0.00  0.00    +0.055 A 
ATOM     17  C   UNL     1      10.851  12.366  24.373  0.00  0.00    +0.024 A 
ATOM     23  C   UNL     1      10.475  13.486  25.106  0.00  0.00    +0.003 A 
ATOM     24  C   UNL     1      10.135  14.647  23.059  0.00  0.00    +0.111 A 
ATOM     25  C   UNL     1      10.108  14.653  24.444  0.00  0.00    +0.020 A 
ENDBRANCH  14  15
ENDBRANCH   6  14
ENDBRANCH   9   6
BRANCH  11  13
ATOM     13  C   UNL     1      12.605   6.921  19.487  0.00  0.00    +0.140 C 
BRANCH  13   7
ATOM      7  N   UNL     1      11.853   7.828  18.599  0.00  0.00    -0.187 NA
ATOM     28  H   UNL     1      10.829   7.767  18.661  0.00  0.00    +0.148 HD
BRANCH   7   1
ATOM      1  S   UNL     1      12.544   8.354  17.136  0.00  0.00    +0.058 S 
ATOM      4  O   UNL     1      11.488   8.713  16.207  0.00  0.00    -0.153 OA
ATOM      5  O   UNL     1      13.578   7.417  16.738  0.00  0.00    -0.153 OA
BRANCH   1  16
ATOM     16  C   UNL     1      13.359   9.841  17.635  0.00  0.00    +0.105 A 
ATOM     18  C   UNL     1      12.903  10.546  18.749  0.00  0.00    +0.029 A 
ATOM     19  C   UNL     1      14.457  10.311  16.913  0.00  0.00    +0.029 A 
ATOM     20  C   UNL     1      13.544  11.721  19.140  0.00  0.00    +0.005 A 
ATOM     21  C   UNL     1      15.098  11.486  17.306  0.00  0.00    +0.005 A 
ATOM     22  C   UNL     1      14.642  12.191  18.418  0.00  0.00    -0.050 A 
ATOM     26  C   UNL     1      15.327  13.447  18.838  0.00  0.00    +0.044 C 
ENDBRANCH   1  16
ENDBRANCH   7   1
ENDBRANCH  13   7
ENDBRANCH  11  13
TORSDOF 8
ENDMDL
MODEL 5
REMARK VINA RESULT:      -6.6      2.578      4.094
REMARK  Name = 75536705
REMARK  9 active torsions:
REMARK  status: ('A' for Active; 'I' for Inactive)
REMARK    1  A    between atoms: S_1  and  N_7
REMARK    2  A    between atoms: S_1  and  C_16
REMARK    3  A    between atoms: O_3  and  C_10
REMARK    4  A    between atoms: N_6  and  C_9
REMARK    5  A    between atoms: N_6  and  C_14
REMARK    6  A    between atoms: N_7  and  C_13
REMARK    7  A    between atoms: C_11  and  C_13
REMARK    8  A    between atoms: C_14  and  C_15
REMARK    9  A    between atoms: C_22  and  C_26
REMARK                            x       y       z     vdW  Elec       q    Type
REMARK                         _______ _______ _______ _____ _____    ______ ____
ROOT
ATOM      2  O   UNL     1      14.831   8.774  20.766  0.00  0.00    -0.371 OA
ATOM      9  C   UNL     1      16.810   7.461  20.831  0.00  0.00    +0.111 C 
ATOM     10  C   UNL     1      15.709   6.664  20.157  0.00  0.00    +0.164 C 
ATOM     11  C   UNL     1      14.758   7.775  19.735  0.00  0.00    +0.164 C 
ATOM     12  C   UNL     1      16.007   8.527  21.558  0.00  0.00    +0.181 C 
ENDROOT
BRANCH  10   3
ATOM      3  O   UNL     1      16.175   5.919  19.048  0.00  0.00    -0.388 OA
ATOM     29  H   UNL     1      17.060   5.575  19.261  0.00  0.00    +0.210 HD
ENDBRANCH  10   3
BRANCH   9   6
ATOM      6  N   UNL     1      17.639   6.669  21.726  0.00  0.00    -0.303 NA
ATOM     27  H   UNL     1      17.736   5.727  21.345  0.00  0.00    +0.123 HD
BRANCH   6  14
ATOM     14  C   UNL     1      18.965   7.258  21.870  0.00  0.00    +0.137 C 
BRANCH  14  15
ATOM      8  N   UNL     1      20.791   6.060  22.943  0.00  0.00    -0.259 NA
ATOM     15  C   UNL     1      20.050   6.213  21.823  0.00  0.00    +0.055 A 
ATOM     17  C   UNL     1      20.234   5.477  20.664  0.00  0.00    +0.024 A 
ATOM     23  C   UNL     1      21.243   4.520  20.654  0.00  0.00    +0.003 A 
ATOM     24  C   UNL     1      21.763   5.120  22.896  0.00  0.00    +0.111 A 
ATOM     25  C   UNL     1      22.026   4.332  21.787  0.00  0.00    +0.020 A 
ENDBRANCH  14  15
ENDBRANCH   6  14
ENDBRANCH   9   6
BRANCH  11  13
ATOM     13  C   UNL     1      13.322   7.308  19.573  0.00  0.00    +0.140 C 
BRANCH  13   7
ATOM      7  N   UNL     1      12.608   7.451  20.857  0.00  0.00    -0.187 NA
ATOM     28  H   UNL     1      12.885   6.794  21.597  0.00  0.00    +0.148 HD
BRANCH   7   1
ATOM      1  S   UNL     1      11.030   8.085  20.887  0.00  0.00    +0.058 S 
ATOM      4  O   UNL     1      10.206   7.283  21.773  0.00  0.00    -0.153 OA
ATOM      5  O   UNL     1      10.598   8.344  19.527  0.00  0.00    -0.153 OA
BRANCH   1  16
ATOM     16  C   UNL     1      11.285   9.656  21.656  0.00  0.00    +0.105 A 
ATOM     18  C   UNL     1      10.851   9.871  22.963  0.00  0.00    +0.029 A 
ATOM     19  C   UNL     1      11.920  10.681  20.953  0.00  0.00    +0.029 A 
ATOM     20  C   UNL     1      11.049  11.112  23.569  0.00  0.00    +0.005 A 
ATOM     21  C   UNL     1      12.119  11.922  21.559  0.00  0.00    +0.005 A 
ATOM     22  C   UNL     1      11.684  12.137  22.866  0.00  0.00    -0.050 A 
ATOM     26  C   UNL     1      11.897  13.464  23.514  0.00  0.00    +0.044 C 
ENDBRANCH   1  16
ENDBRANCH   7   1
ENDBRANCH  13   7
ENDBRANCH  11  13
TORSDOF 8
ENDMDL
MODEL 6
REMARK VINA RESULT:      -6.6      2.900      4.747
REMARK  Name = 75536705
REMARK  9 active torsions:
REMARK  status: ('A' for Active; 'I' for Inactive)
REMARK    1  A    between atoms: S_1  and  N_7
REMARK    2  A    between atoms: S_1  and  C_16
REMARK    3  A    between atoms: O_3  and  C_10
REMARK    4  A    between atoms: N_6  and  C_9
REMARK    5  A    between atoms: N_6  and  C_14
REMARK    6  A    between atoms: N_7  and  C_13
REMARK    7  A    between atoms: C_11  and  C_13
REMARK    8  A    between atoms: C_14  and  C_15
REMARK    9  A    between atoms: C_22  and  C_26
REMARK                            x       y       z     vdW  Elec       q    Type
REMARK                         _______ _______ _______ _____ _____    ______ ____
ROOT
ATOM      2  O   UNL     1      16.375   5.808  18.833  0.00  0.00    -0.371 OA
ATOM      9  C   UNL     1      17.708   6.516  20.666  0.00  0.00    +0.111 C 
ATOM     10  C   UNL     1      16.502   7.428  20.551  0.00  0.00    +0.164 C 
ATOM     11  C   UNL     1      15.551   6.557  19.742  0.00  0.00    +0.164 C 
ATOM     12  C   UNL     1      17.738   5.881  19.287  0.00  0.00    +0.181 C 
ENDROOT
BRANCH  10   3
ATOM      3  O   UNL     1      15.957   7.776  21.809  0.00  0.00    -0.388 OA
ATOM     29  H   UNL     1      14.989   7.816  21.723  0.00  0.00    +0.210 HD
ENDBRANCH  10   3
BRANCH   9   6
ATOM      6  N   UNL     1      18.940   7.217  20.994  0.00  0.00    -0.303 NA
ATOM     27  H   UNL     1      18.738   8.210  21.111  0.00  0.00    +0.123 HD
BRANCH   6  14
ATOM     14  C   UNL     1      19.522   6.704  22.228  0.00  0.00    +0.137 C 
BRANCH  14  15
ATOM      8  N   UNL     1      21.316   5.270  23.032  0.00  0.00    -0.259 NA
ATOM     15  C   UNL     1      20.768   5.898  21.968  0.00  0.00    +0.055 A 
ATOM     17  C   UNL     1      21.282   5.840  20.684  0.00  0.00    +0.024 A 
ATOM     23  C   UNL     1      22.433   5.086  20.477  0.00  0.00    +0.003 A 
ATOM     24  C   UNL     1      22.433   4.547  22.793  0.00  0.00    +0.111 A 
ATOM     25  C   UNL     1      23.025   4.424  21.547  0.00  0.00    +0.020 A 
ENDBRANCH  14  15
ENDBRANCH   6  14
ENDBRANCH   9   6
BRANCH  11  13
ATOM     13  C   UNL     1      14.520   7.355  18.963  0.00  0.00    +0.140 C 
BRANCH  13   7
ATOM      7  N   UNL     1      13.609   8.036  19.903  0.00  0.00    -0.187 NA
ATOM     28  H   UNL     1      13.502   7.591  20.823  0.00  0.00    +0.148 HD
BRANCH   7   1
ATOM      1  S   UNL     1      12.329   8.987  19.310  0.00  0.00    +0.058 S 
ATOM      4  O   UNL     1      11.223   8.126  18.937  0.00  0.00    -0.153 OA
ATOM      5  O   UNL     1      12.856   9.950  18.361  0.00  0.00    -0.153 OA
BRANCH   1  16
ATOM     16  C   UNL     1      11.853   9.892  20.752  0.00  0.00    +0.105 A 
ATOM     18  C   UNL     1      12.210  11.234  20.883  0.00  0.00    +0.029 A 
ATOM     19  C   UNL     1      11.121   9.264  21.760  0.00  0.00    +0.029 A 
ATOM     20  C   UNL     1      11.838  11.947  22.021  0.00  0.00    +0.005 A 
ATOM     21  C   UNL     1      10.747   9.978  22.899  0.00  0.00    +0.005 A 
ATOM     22  C   UNL     1      11.106  11.319  23.030  0.00  0.00    -0.050 A 
ATOM     26  C   UNL     1      10.706  12.082  24.247  0.00  0.00    +0.044 C 
ENDBRANCH   1  16
ENDBRANCH   7   1
ENDBRANCH  13   7
ENDBRANCH  11  13
TORSDOF 8
ENDMDL
MODEL 7
REMARK VINA RESULT:      -6.5     26.792     29.408
REMARK  Name = 75536705
REMARK  9 active torsions:
REMARK  status: ('A' for Active; 'I' for Inactive)
REMARK    1  A    between atoms: S_1  and  N_7
REMARK    2  A    between atoms: S_1  and  C_16
REMARK    3  A    between atoms: O_3  and  C_10
REMARK    4  A    between atoms: N_6  and  C_9
REMARK    5  A    between atoms: N_6  and  C_14
REMARK    6  A    between atoms: N_7  and  C_13
REMARK    7  A    between atoms: C_11  and  C_13
REMARK    8  A    between atoms: C_14  and  C_15
REMARK    9  A    between atoms: C_22  and  C_26
REMARK                            x       y       z     vdW  Elec       q    Type
REMARK                         _______ _______ _______ _____ _____    ______ ____
ROOT
ATOM      2  O   UNL     1      -6.698 -11.494  18.570  0.00  0.00    -0.371 OA
ATOM      9  C   UNL     1      -8.545 -10.190  17.845  0.00  0.00    +0.111 C 
ATOM     10  C   UNL     1      -7.267  -9.587  17.292  0.00  0.00    +0.164 C 
ATOM     11  C   UNL     1      -6.319 -10.775  17.385  0.00  0.00    +0.164 C 
ATOM     12  C   UNL     1      -8.008 -11.054  18.972  0.00  0.00    +0.181 C 
ENDROOT
BRANCH  10   3
ATOM      3  O   UNL     1      -7.410  -9.128  15.962  0.00  0.00    -0.388 OA
ATOM     29  H   UNL     1      -6.592  -9.336  15.478  0.00  0.00    +0.210 HD
ENDBRANCH  10   3
BRANCH   9   6
ATOM      6  N   UNL     1      -9.508  -9.199  18.301  0.00  0.00    -0.303 NA
ATOM     27  H   UNL     1      -9.235  -8.281  17.948  0.00  0.00    +0.123 HD
BRANCH   6  14
ATOM     14  C   UNL     1     -10.848  -9.510  17.819  0.00  0.00    +0.137 C 
BRANCH  14  15
ATOM      8  N   UNL     1     -12.724  -8.516  16.630  0.00  0.00    -0.259 NA
ATOM     15  C   UNL     1     -11.460  -8.350  17.077  0.00  0.00    +0.055 A 
ATOM     17  C   UNL     1     -10.717  -7.196  16.891  0.00  0.00    +0.024 A 
ATOM     23  C   UNL     1     -11.311  -6.144  16.203  0.00  0.00    +0.003 A 
ATOM     24  C   UNL     1     -13.269  -7.472  15.966  0.00  0.00    +0.111 A 
ATOM     25  C   UNL     1     -12.611  -6.276  15.729  0.00  0.00    +0.020 A 
ENDBRANCH  14  15
ENDBRANCH   6  14
ENDBRANCH   9   6
BRANCH  11  13
ATOM     13  C   UNL     1      -4.858 -10.371  17.473  0.00  0.00    +0.140 C 
BRANCH  13   7
ATOM      7  N   UNL     1      -4.345 -10.071  16.123  0.00  0.00    -0.187 NA
ATOM     28  H   UNL     1      -4.948  -9.478  15.538  0.00  0.00    +0.148 HD
BRANCH   7   1
ATOM      1  S   UNL     1      -3.287 -11.158  15.352  0.00  0.00    +0.058 S 
ATOM      4  O   UNL     1      -3.825 -12.501  15.447  0.00  0.00    -0.153 OA
ATOM      5  O   UNL     1      -1.930 -10.883  15.785  0.00  0.00    -0.153 OA
BRANCH   1  16
ATOM     16  C   UNL     1      -3.404 -10.642  13.665  0.00  0.00    +0.105 A 
ATOM     18  C   UNL     1      -4.646 -10.315  13.121  0.00  0.00    +0.029 A 
ATOM     19  C   UNL     1      -2.254 -10.565  12.878  0.00  0.00    +0.029 A 
ATOM     20  C   UNL     1      -4.739  -9.911  11.789  0.00  0.00    +0.005 A 
ATOM     21  C   UNL     1      -2.348 -10.160  11.546  0.00  0.00    +0.005 A 
ATOM     22  C   UNL     1      -3.589  -9.834  11.002  0.00  0.00    -0.050 A 
ATOM     26  C   UNL     1      -3.689  -9.402   9.577  0.00  0.00    +0.044 C 
ENDBRANCH   1  16
ENDBRANCH   7   1
ENDBRANCH  13   7
ENDBRANCH  11  13
TORSDOF 8
ENDMDL
MODEL 8
REMARK VINA RESULT:      -6.3      3.860      7.606
REMARK  Name = 75536705
REMARK  9 active torsions:
REMARK  status: ('A' for Active; 'I' for Inactive)
REMARK    1  A    between atoms: S_1  and  N_7
REMARK    2  A    between atoms: S_1  and  C_16
REMARK    3  A    between atoms: O_3  and  C_10
REMARK    4  A    between atoms: N_6  and  C_9
REMARK    5  A    between atoms: N_6  and  C_14
REMARK    6  A    between atoms: N_7  and  C_13
REMARK    7  A    between atoms: C_11  and  C_13
REMARK    8  A    between atoms: C_14  and  C_15
REMARK    9  A    between atoms: C_22  and  C_26
REMARK                            x       y       z     vdW  Elec       q    Type
REMARK                         _______ _______ _______ _____ _____    ______ ____
ROOT
ATOM      2  O   UNL     1      13.339   6.798  20.413  0.00  0.00    -0.371 OA
ATOM      9  C   UNL     1      11.329   7.994  20.823  0.00  0.00    +0.111 C 
ATOM     10  C   UNL     1      11.823   8.322  19.427  0.00  0.00    +0.164 C 
ATOM     11  C   UNL     1      12.735   7.134  19.153  0.00  0.00    +0.164 C 
ATOM     12  C   UNL     1      12.586   7.432  21.463  0.00  0.00    +0.181 C 
ENDROOT
BRANCH  10   3
ATOM      3  O   UNL     1      10.773   8.409  18.482  0.00  0.00    -0.388 OA
ATOM     29  H   UNL     1      10.841   9.267  18.029  0.00  0.00    +0.210 HD
ENDBRANCH  10   3
BRANCH   9   6
ATOM      6  N   UNL     1      10.796   9.144  21.538  0.00  0.00    -0.303 NA
ATOM     27  H   UNL     1      10.480   8.847  22.461  0.00  0.00    +0.123 HD
BRANCH   6  14
ATOM     14  C   UNL     1      11.812  10.178  21.698  0.00  0.00    +0.137 C 
BRANCH  14  15
ATOM      8  N   UNL     1      11.047  12.488  21.753  0.00  0.00    -0.259 NA
ATOM     15  C   UNL     1      11.288  11.364  22.465  0.00  0.00    +0.055 A 
ATOM     17  C   UNL     1      11.082  11.252  23.830  0.00  0.00    +0.024 A 
ATOM     23  C   UNL     1      10.596  12.364  24.508  0.00  0.00    +0.003 A 
ATOM     24  C   UNL     1      10.576  13.549  22.446  0.00  0.00    +0.111 A 
ATOM     25  C   UNL     1      10.336  13.538  23.811  0.00  0.00    +0.020 A 
ENDBRANCH  14  15
ENDBRANCH   6  14
ENDBRANCH   9   6
BRANCH  11  13
ATOM     13  C   UNL     1      13.816   7.431  18.128  0.00  0.00    +0.140 C 
BRANCH  13   7
ATOM      7  N   UNL     1      13.733   8.846  17.717  0.00  0.00    -0.187 NA
ATOM     28  H   UNL     1      13.436   9.506  18.446  0.00  0.00    +0.148 HD
BRANCH   7   1
ATOM      1  S   UNL     1      13.425   9.244  16.092  0.00  0.00    +0.058 S 
ATOM      4  O   UNL     1      12.039   9.648  15.950  0.00  0.00    -0.153 OA
ATOM      5  O   UNL     1      13.972   8.205  15.240  0.00  0.00    -0.153 OA
BRANCH   1  16
ATOM     16  C   UNL     1      14.436  10.677  15.872  0.00  0.00    +0.105 A 
ATOM     18  C   UNL     1      14.328  11.749  16.758  0.00  0.00    +0.029 A 
ATOM     19  C   UNL     1      15.341  10.737  14.812  0.00  0.00    +0.029 A 
ATOM     20  C   UNL     1      15.123  12.881  16.583  0.00  0.00    +0.005 A 
ATOM     21  C   UNL     1      16.136  11.870  14.637  0.00  0.00    +0.005 A 
ATOM     22  C   UNL     1      16.027  12.941  15.523  0.00  0.00    -0.050 A 
ATOM     26  C   UNL     1      16.878  14.152  15.336  0.00  0.00    +0.044 C 
ENDBRANCH   1  16
ENDBRANCH   7   1
ENDBRANCH  13   7
ENDBRANCH  11  13
TORSDOF 8
ENDMDL
MODEL 9
REMARK VINA RESULT:      -6.3     27.240     30.089
REMARK  Name = 75536705
REMARK  9 active torsions:
REMARK  status: ('A' for Active; 'I' for Inactive)
REMARK    1  A    between atoms: S_1  and  N_7
REMARK    2  A    between atoms: S_1  and  C_16
REMARK    3  A    between atoms: O_3  and  C_10
REMARK    4  A    between atoms: N_6  and  C_9
REMARK    5  A    between atoms: N_6  and  C_14
REMARK    6  A    between atoms: N_7  and  C_13
REMARK    7  A    between atoms: C_11  and  C_13
REMARK    8  A    between atoms: C_14  and  C_15
REMARK    9  A    between atoms: C_22  and  C_26
REMARK                            x       y       z     vdW  Elec       q    Type
REMARK                         _______ _______ _______ _____ _____    ______ ____
ROOT
ATOM      2  O   UNL     1     -12.269  -8.885  16.905  0.00  0.00    -0.371 OA
ATOM      9  C   UNL     1     -11.361  -7.270  15.420  0.00  0.00    +0.111 C 
ATOM     10  C   UNL     1     -10.291  -7.686  16.412  0.00  0.00    +0.164 C 
ATOM     11  C   UNL     1     -10.839  -9.024  16.889  0.00  0.00    +0.164 C 
ATOM     12  C   UNL     1     -12.624  -7.726  16.130  0.00  0.00    +0.181 C 
ENDROOT
BRANCH  10   3
ATOM      3  O   UNL     1      -9.016  -7.820  15.816  0.00  0.00    -0.388 OA
ATOM     29  H   UNL     1      -8.356  -7.921  16.524  0.00  0.00    +0.210 HD
ENDBRANCH  10   3
BRANCH   9   6
ATOM      6  N   UNL     1     -11.360  -5.845  15.125  0.00  0.00    -0.303 NA
ATOM     27  H   UNL     1     -10.601  -5.639  14.476  0.00  0.00    +0.123 HD
BRANCH   6  14
ATOM     14  C   UNL     1     -12.622  -5.434  14.520  0.00  0.00    +0.137 C 
BRANCH  14  15
ATOM      8  N   UNL     1     -12.331  -3.667  12.873  0.00  0.00    -0.259 NA
ATOM     15  C   UNL     1     -12.441  -4.997  13.090  0.00  0.00    +0.055 A 
ATOM     17  C   UNL     1     -12.397  -5.952  12.088  0.00  0.00    +0.024 A 
ATOM     23  C   UNL     1     -12.228  -5.516  10.779  0.00  0.00    +0.003 A 
ATOM     24  C   UNL     1     -12.168  -3.280  11.588  0.00  0.00    +0.111 A 
ATOM     25  C   UNL     1     -12.110  -4.155  10.516  0.00  0.00    +0.020 A 
ENDBRANCH  14  15
ENDBRANCH   6  14
ENDBRANCH   9   6
BRANCH  11  13
ATOM     13  C   UNL     1     -10.346  -9.417  18.271  0.00  0.00    +0.140 C 
BRANCH  13   7
ATOM      7  N   UNL     1      -8.878  -9.569  18.247  0.00  0.00    -0.187 NA
ATOM     28  H   UNL     1      -8.374  -8.940  17.609  0.00  0.00    +0.148 HD
BRANCH   7   1
ATOM      1  S   UNL     1      -8.171 -11.068  18.630  0.00  0.00    +0.058 S 
ATOM      4  O   UNL     1      -8.874 -12.125  17.928  0.00  0.00    -0.153 OA
ATOM      5  O   UNL     1      -7.981 -11.147  20.066  0.00  0.00    -0.153 OA
BRANCH   1  16
ATOM     16  C   UNL     1      -6.567 -10.907  17.905  0.00  0.00    +0.105 A 
ATOM     18  C   UNL     1      -5.479 -11.579  18.463  0.00  0.00    +0.029 A 
ATOM     19  C   UNL     1      -6.387 -10.106  16.777  0.00  0.00    +0.029 A 
ATOM     20  C   UNL     1      -4.213 -11.450  17.894  0.00  0.00    +0.005 A 
ATOM     21  C   UNL     1      -5.120  -9.977  16.208  0.00  0.00    +0.005 A 
ATOM     22  C   UNL     1      -4.033 -10.649  16.766  0.00  0.00    -0.050 A 
ATOM     26  C   UNL     1      -2.679 -10.511  16.157  0.00  0.00    +0.044 C 
ENDBRANCH   1  16
ENDBRANCH   7   1
ENDBRANCH  13   7
ENDBRANCH  11  13
TORSDOF 8
ENDMDL
MODEL 10
REMARK VINA RESULT:      -6.2     26.381     29.525
REMARK  Name = 75536705
REMARK  9 active torsions:
REMARK  status: ('A' for Active; 'I' for Inactive)
REMARK    1  A    between atoms: S_1  and  N_7
REMARK    2  A    between atoms: S_1  and  C_16
REMARK    3  A    between atoms: O_3  and  C_10
REMARK    4  A    between atoms: N_6  and  C_9
REMARK    5  A    between atoms: N_6  and  C_14
REMARK    6  A    between atoms: N_7  and  C_13
REMARK    7  A    between atoms: C_11  and  C_13
REMARK    8  A    between atoms: C_14  and  C_15
REMARK    9  A    between atoms: C_22  and  C_26
REMARK                            x       y       z     vdW  Elec       q    Type
REMARK                         _______ _______ _______ _____ _____    ______ ____
ROOT
ATOM      2  O   UNL     1      -5.882 -12.618  17.316  0.00  0.00    -0.371 OA
ATOM      9  C   UNL     1      -7.556 -10.949  17.546  0.00  0.00    +0.111 C 
ATOM     10  C   UNL     1      -6.233 -10.281  17.220  0.00  0.00    +0.164 C 
ATOM     11  C   UNL     1      -5.462 -11.442  16.606  0.00  0.00    +0.164 C 
ATOM     12  C   UNL     1      -7.094 -12.312  18.030  0.00  0.00    +0.181 C 
ENDROOT
BRANCH  10   3
ATOM      3  O   UNL     1      -6.373  -9.203  16.315  0.00  0.00    -0.388 OA
ATOM     29  H   UNL     1      -7.292  -8.886  16.357  0.00  0.00    +0.210 HD
ENDBRANCH  10   3
BRANCH   9   6
ATOM      6  N   UNL     1      -8.341 -10.232  18.538  0.00  0.00    -0.303 NA
ATOM     27  H   UNL     1      -9.214  -9.920  18.111  0.00  0.00    +0.123 HD
BRANCH   6  14
ATOM     14  C   UNL     1      -8.652 -11.086  19.678  0.00  0.00    +0.137 C 
BRANCH  14  15
ATOM      8  N   UNL     1     -10.635 -12.296  20.402  0.00  0.00    -0.259 NA
ATOM     15  C   UNL     1     -10.131 -11.121  19.965  0.00  0.00    +0.055 A 
ATOM     17  C   UNL     1     -10.886  -9.976  19.774  0.00  0.00    +0.024 A 
ATOM     23  C   UNL     1     -12.247 -10.040  20.050  0.00  0.00    +0.003 A 
ATOM     24  C   UNL     1     -11.962 -12.321  20.660  0.00  0.00    +0.111 A 
ATOM     25  C   UNL     1     -12.804 -11.232  20.502  0.00  0.00    +0.020 A 
ENDBRANCH  14  15
ENDBRANCH   6  14
ENDBRANCH   9   6
BRANCH  11  13
ATOM     13  C   UNL     1      -3.955 -11.287  16.713  0.00  0.00    +0.140 C 
BRANCH  13   7
ATOM      7  N   UNL     1      -3.481 -10.345  15.681  0.00  0.00    -0.187 NA
ATOM     28  H   UNL     1      -4.192  -9.715  15.289  0.00  0.00    +0.148 HD
BRANCH   7   1
ATOM      1  S   UNL     1      -2.135 -10.742  14.719  0.00  0.00    +0.058 S 
ATOM      4  O   UNL     1      -1.914 -12.175  14.770  0.00  0.00    -0.153 OA
ATOM      5  O   UNL     1      -1.051  -9.826  15.021  0.00  0.00    -0.153 OA
BRANCH   1  16
ATOM     16  C   UNL     1      -2.716 -10.338  13.099  0.00  0.00    +0.105 A 
ATOM     18  C   UNL     1      -4.081 -10.381  12.818  0.00  0.00    +0.029 A 
ATOM     19  C   UNL     1      -1.809  -9.979  12.102  0.00  0.00    +0.029 A 
ATOM     20  C   UNL     1      -4.540 -10.066  11.539  0.00  0.00    +0.005 A 
ATOM     21  C   UNL     1      -2.267  -9.663  10.823  0.00  0.00    +0.005 A 
ATOM     22  C   UNL     1      -3.632  -9.707  10.541  0.00  0.00    -0.050 A 
ATOM     26  C   UNL     1      -4.123  -9.369   9.174  0.00  0.00    +0.044 C 
ENDBRANCH   1  16
ENDBRANCH   7   1
ENDBRANCH  13   7
ENDBRANCH  11  13
TORSDOF 8
ENDMDL
