MODEL 1
REMARK VINA RESULT:      -6.6      0.000      0.000
REMARK  Name = 71693196
REMARK  15 active torsions:
REMARK  status: ('A' for Active; 'I' for Inactive)
REMARK    1  A    between atoms: O_2  and  C_25
REMARK    2  A    between atoms: O_2  and  C_30
REMARK    3  A    between atoms: O_3  and  C_28
REMARK    4  A    between atoms: O_3  and  C_31
REMARK    5  A    between atoms: O_4  and  C_32
REMARK    6  A    between atoms: N_6  and  C_16
REMARK    7  A    between atoms: C_9  and  C_13
REMARK    8  A    between atoms: C_10  and  C_16
REMARK    9  A    between atoms: C_12  and  C_17
REMARK   10  A    between atoms: C_13  and  C_18
REMARK   11  A    between atoms: C_13  and  C_19
REMARK   12  A    between atoms: C_14  and  C_20
REMARK   13  A    between atoms: C_17  and  C_21
REMARK   14  A    between atoms: C_22  and  C_25
REMARK   15  A    between atoms: C_30  and  C_32
REMARK                            x       y       z     vdW  Elec       q    Type
REMARK                         _______ _______ _______ _____ _____    ______ ____
ROOT
ATOM      9  C   UNL     1      12.272   7.563  20.504  0.00  0.00    +0.000 C 
ATOM     10  C   UNL     1      12.070   8.975  19.897  0.00  0.00    +0.032 C 
ATOM     11  C   UNL     1      13.452   7.566  21.488  0.00  0.00    +0.012 C 
ATOM     12  C   UNL     1      14.768   8.003  20.819  0.00  0.00    +0.022 C 
ATOM     14  C   UNL     1      14.585   9.250  19.977  0.00  0.00    -0.073 C 
ATOM     15  C   UNL     1      13.371   9.677  19.586  0.00  0.00    -0.022 C 
ATOM     20  C   UNL     1      15.829  10.022  19.633  0.00  0.00    +0.039 C 
ENDROOT
BRANCH   9  13
ATOM     13  C   UNL     1      11.009   7.062  21.210  0.00  0.00    -0.013 C 
ATOM     18  C   UNL     1      10.680   7.949  22.407  0.00  0.00    +0.007 C 
ATOM     19  C   UNL     1      11.183   5.610  21.645  0.00  0.00    +0.007 C 
ENDBRANCH   9  13
BRANCH  10  16
ATOM     16  C   UNL     1      11.207   8.915  18.632  0.00  0.00    +0.112 C 
BRANCH  16   6
ATOM      1  O   UNL     1      10.658   8.433  15.833  0.00  0.00    -0.273 OA
ATOM      6  N   UNL     1      11.915   9.447  17.510  0.00  0.00    -0.313 N 
ATOM     22  C   UNL     1      11.581   9.161  16.186  0.00  0.00    +0.239 C 
ATOM     33  H   UNL     1      12.664  10.109  17.686  0.00  0.00    +0.149 HD
BRANCH  22  25
ATOM     25  C   UNL     1      12.496   9.860  15.202  0.00  0.00    +0.256 C 
BRANCH  25   2
ATOM      2  O   UNL     1      13.826   9.864  15.676  0.00  0.00    -0.359 OA
BRANCH   2  30
ATOM     30  C   UNL     1      14.454  11.129  15.484  0.00  0.00    +0.280 C 
BRANCH  30  32
ATOM      5  O   UNL     1      16.757  11.591  14.864  0.00  0.00    -0.248 OA
ATOM     32  C   UNL     1      15.727  10.952  14.706  0.00  0.00    +0.331 C 
BRANCH  32   4
ATOM      4  O   UNL     1      15.580   9.967  13.784  0.00  0.00    -0.479 OA
ATOM     35  H   UNL     1      16.223  10.055  13.048  0.00  0.00    +0.295 HD
ENDBRANCH  32   4
ENDBRANCH  30  32
ENDBRANCH   2  30
ENDBRANCH  25   2
ENDBRANCH  22  25
ENDBRANCH  16   6
ENDBRANCH  10  16
BRANCH  12  17
ATOM     17  C   UNL     1      15.370   6.864  19.987  0.00  0.00    +0.082 C 
BRANCH  17  21
ATOM      7  N   UNL     1      17.323   7.091  21.536  0.00  0.00    -0.342 N 
ATOM      8  N   UNL     1      17.679   5.903  19.691  0.00  0.00    -0.232 NA
ATOM     21  C   UNL     1      16.797   6.599  20.373  0.00  0.00    +0.109 A 
ATOM     23  C   UNL     1      18.631   6.685  21.608  0.00  0.00    +0.070 A 
ATOM     24  C   UNL     1      18.829   5.946  20.446  0.00  0.00    +0.089 A 
ATOM     26  C   UNL     1      19.627   6.896  22.562  0.00  0.00    +0.073 A 
ATOM     27  C   UNL     1      20.090   5.376  20.204  0.00  0.00    +0.033 A 
ATOM     28  C   UNL     1      20.875   6.320  22.305  0.00  0.00    +0.122 A 
ATOM     29  C   UNL     1      21.106   5.574  21.148  0.00  0.00    +0.048 A 
ATOM     34  H   UNL     1      16.835   7.652  22.222  0.00  0.00    +0.167 HD
BRANCH  28   3
ATOM      3  O   UNL     1      21.888   6.494  23.203  0.00  0.00    -0.495 OA
ATOM     31  C   UNL     1      21.622   7.338  24.322  0.00  0.00    +0.277 C 
ENDBRANCH  28   3
ENDBRANCH  17  21
ENDBRANCH  12  17
TORSDOF 11
ENDMDL
MODEL 2
REMARK VINA RESULT:      -6.2     26.448     29.957
REMARK  Name = 71693196
REMARK  15 active torsions:
REMARK  status: ('A' for Active; 'I' for Inactive)
REMARK    1  A    between atoms: O_2  and  C_25
REMARK    2  A    between atoms: O_2  and  C_30
REMARK    3  A    between atoms: O_3  and  C_28
REMARK    4  A    between atoms: O_3  and  C_31
REMARK    5  A    between atoms: O_4  and  C_32
REMARK    6  A    between atoms: N_6  and  C_16
REMARK    7  A    between atoms: C_9  and  C_13
REMARK    8  A    between atoms: C_10  and  C_16
REMARK    9  A    between atoms: C_12  and  C_17
REMARK   10  A    between atoms: C_13  and  C_18
REMARK   11  A    between atoms: C_13  and  C_19
REMARK   12  A    between atoms: C_14  and  C_20
REMARK   13  A    between atoms: C_17  and  C_21
REMARK   14  A    between atoms: C_22  and  C_25
REMARK   15  A    between atoms: C_30  and  C_32
REMARK                            x       y       z     vdW  Elec       q    Type
REMARK                         _______ _______ _______ _____ _____    ______ ____
ROOT
ATOM      9  C   UNL     1      -3.396 -12.128  13.622  0.00  0.00    +0.000 C 
ATOM     10  C   UNL     1      -2.153 -11.399  14.191  0.00  0.00    +0.032 C 
ATOM     11  C   UNL     1      -3.221 -12.393  12.119  0.00  0.00    +0.012 C 
ATOM     12  C   UNL     1      -3.008 -11.095  11.319  0.00  0.00    +0.022 C 
ATOM     14  C   UNL     1      -1.980 -10.193  11.972  0.00  0.00    -0.073 C 
ATOM     15  C   UNL     1      -1.599 -10.352  13.252  0.00  0.00    -0.022 C 
ATOM     20  C   UNL     1      -1.364  -9.131  11.104  0.00  0.00    +0.039 C 
ENDROOT
BRANCH   9  13
ATOM     13  C   UNL     1      -3.664 -13.447  14.353  0.00  0.00    -0.013 C 
ATOM     18  C   UNL     1      -2.494 -14.407  14.169  0.00  0.00    +0.007 C 
ATOM     19  C   UNL     1      -4.963 -14.076  13.856  0.00  0.00    +0.007 C 
ENDBRANCH   9  13
BRANCH  10  16
ATOM     16  C   UNL     1      -2.461 -10.756  15.548  0.00  0.00    +0.112 C 
BRANCH  16   6
ATOM      1  O   UNL     1      -4.289 -10.903  17.784  0.00  0.00    -0.273 OA
ATOM      6  N   UNL     1      -3.811 -10.286  15.591  0.00  0.00    -0.313 N 
ATOM     22  C   UNL     1      -4.626 -10.398  16.717  0.00  0.00    +0.239 C 
ATOM     33  H   UNL     1      -4.175  -9.798  14.779  0.00  0.00    +0.149 HD
BRANCH  22  25
ATOM     25  C   UNL     1      -6.005  -9.817  16.484  0.00  0.00    +0.256 C 
BRANCH  25   2
ATOM      2  O   UNL     1      -7.000 -10.674  17.003  0.00  0.00    -0.359 OA
BRANCH   2  30
ATOM     30  C   UNL     1      -7.724 -10.063  18.067  0.00  0.00    +0.280 C 
BRANCH  30  32
ATOM      5  O   UNL     1      -7.878 -11.739  19.820  0.00  0.00    -0.248 OA
ATOM     32  C   UNL     1      -7.368 -10.724  19.369  0.00  0.00    +0.331 C 
BRANCH  32   4
ATOM      4  O   UNL     1      -6.383 -10.030  19.993  0.00  0.00    -0.479 OA
ATOM     35  H   UNL     1      -5.855 -10.601  20.592  0.00  0.00    +0.295 HD
ENDBRANCH  32   4
ENDBRANCH  30  32
ENDBRANCH   2  30
ENDBRANCH  25   2
ENDBRANCH  22  25
ENDBRANCH  16   6
ENDBRANCH  10  16
BRANCH  12  17
ATOM     17  C   UNL     1      -4.333 -10.352  11.109  0.00  0.00    +0.082 C 
BRANCH  17  21
ATOM      7  N   UNL     1      -4.249 -11.318   8.802  0.00  0.00    -0.342 N 
ATOM      8  N   UNL     1      -5.638  -9.607   9.087  0.00  0.00    -0.232 NA
ATOM     21  C   UNL     1      -4.764 -10.396   9.670  0.00  0.00    +0.109 A 
ATOM     23  C   UNL     1      -4.830 -11.109   7.577  0.00  0.00    +0.070 A 
ATOM     24  C   UNL     1      -5.692 -10.036   7.782  0.00  0.00    +0.089 A 
ATOM     26  C   UNL     1      -4.678 -11.748   6.346  0.00  0.00    +0.073 A 
ATOM     27  C   UNL     1      -6.457  -9.558   6.704  0.00  0.00    +0.033 A 
ATOM     28  C   UNL     1      -5.447 -11.259   5.285  0.00  0.00    +0.122 A 
ATOM     29  C   UNL     1      -6.321 -10.184   5.458  0.00  0.00    +0.048 A 
ATOM     34  H   UNL     1      -3.564 -12.029   9.022  0.00  0.00    +0.167 HD
BRANCH  28   3
ATOM      3  O   UNL     1      -5.340 -11.844   4.058  0.00  0.00    -0.495 OA
ATOM     31  C   UNL     1      -6.510 -11.858   3.244  0.00  0.00    +0.277 C 
ENDBRANCH  28   3
ENDBRANCH  17  21
ENDBRANCH  12  17
TORSDOF 11
ENDMDL
MODEL 3
REMARK VINA RESULT:      -6.1     26.786     29.959
REMARK  Name = 71693196
REMARK  15 active torsions:
REMARK  status: ('A' for Active; 'I' for Inactive)
REMARK    1  A    between atoms: O_2  and  C_25
REMARK    2  A    between atoms: O_2  and  C_30
REMARK    3  A    between atoms: O_3  and  C_28
REMARK    4  A    between atoms: O_3  and  C_31
REMARK    5  A    between atoms: O_4  and  C_32
REMARK    6  A    between atoms: N_6  and  C_16
REMARK    7  A    between atoms: C_9  and  C_13
REMARK    8  A    between atoms: C_10  and  C_16
REMARK    9  A    between atoms: C_12  and  C_17
REMARK   10  A    between atoms: C_13  and  C_18
REMARK   11  A    between atoms: C_13  and  C_19
REMARK   12  A    between atoms: C_14  and  C_20
REMARK   13  A    between atoms: C_17  and  C_21
REMARK   14  A    between atoms: C_22  and  C_25
REMARK   15  A    between atoms: C_30  and  C_32
REMARK                            x       y       z     vdW  Elec       q    Type
REMARK                         _______ _______ _______ _____ _____    ______ ____
ROOT
ATOM      9  C   UNL     1      -3.000 -12.497  13.484  0.00  0.00    +0.000 C 
ATOM     10  C   UNL     1      -1.918 -11.429  13.783  0.00  0.00    +0.032 C 
ATOM     11  C   UNL     1      -3.054 -12.800  11.979  0.00  0.00    +0.012 C 
ATOM     12  C   UNL     1      -3.363 -11.544  11.142  0.00  0.00    +0.022 C 
ATOM     14  C   UNL     1      -2.515 -10.362  11.565  0.00  0.00    -0.073 C 
ATOM     15  C   UNL     1      -1.865 -10.333  12.742  0.00  0.00    -0.022 C 
ATOM     20  C   UNL     1      -2.392  -9.231  10.582  0.00  0.00    +0.039 C 
ENDROOT
BRANCH   9  13
ATOM     13  C   UNL     1      -2.751 -13.791  14.265  0.00  0.00    -0.013 C 
ATOM     18  C   UNL     1      -1.597 -14.573  13.646  0.00  0.00    +0.007 C 
ATOM     19  C   UNL     1      -4.019 -14.639  14.306  0.00  0.00    +0.007 C 
ENDBRANCH   9  13
BRANCH  10  16
ATOM     16  C   UNL     1      -2.123 -10.807  15.168  0.00  0.00    +0.112 C 
BRANCH  16   6
ATOM      1  O   UNL     1      -3.853 -11.405  17.408  0.00  0.00    -0.273 OA
ATOM      6  N   UNL     1      -3.480 -10.395  15.345  0.00  0.00    -0.313 N 
ATOM     22  C   UNL     1      -4.246 -10.730  16.461  0.00  0.00    +0.239 C 
ATOM     33  H   UNL     1      -3.889  -9.782  14.646  0.00  0.00    +0.149 HD
BRANCH  22  25
ATOM     25  C   UNL     1      -5.646 -10.160  16.387  0.00  0.00    +0.256 C 
BRANCH  25   2
ATOM      2  O   UNL     1      -6.555 -10.978  17.094  0.00  0.00    -0.359 OA
BRANCH   2  30
ATOM     30  C   UNL     1      -7.349 -10.223  18.005  0.00  0.00    +0.280 C 
BRANCH  30  32
ATOM      5  O   UNL     1      -7.641 -11.799  19.832  0.00  0.00    -0.248 OA
ATOM     32  C   UNL     1      -7.170 -10.758  19.398  0.00  0.00    +0.331 C 
BRANCH  32   4
ATOM      4  O   UNL     1      -6.398  -9.914  20.129  0.00  0.00    -0.479 OA
ATOM     35  H   UNL     1      -5.441 -10.077  19.985  0.00  0.00    +0.295 HD
ENDBRANCH  32   4
ENDBRANCH  30  32
ENDBRANCH   2  30
ENDBRANCH  25   2
ENDBRANCH  22  25
ENDBRANCH  16   6
ENDBRANCH  10  16
BRANCH  12  17
ATOM     17  C   UNL     1      -4.855 -11.196  11.200  0.00  0.00    +0.082 C 
BRANCH  17  21
ATOM      7  N   UNL     1      -6.290  -9.702   9.796  0.00  0.00    -0.342 N 
ATOM      8  N   UNL     1      -4.981 -11.114   8.685  0.00  0.00    -0.232 NA
ATOM     21  C   UNL     1      -5.353 -10.695   9.874  0.00  0.00    +0.109 A 
ATOM     23  C   UNL     1      -6.538  -9.465   8.468  0.00  0.00    +0.070 A 
ATOM     24  C   UNL     1      -5.709 -10.359   7.796  0.00  0.00    +0.089 A 
ATOM     26  C   UNL     1      -7.391  -8.573   7.817  0.00  0.00    +0.073 A 
ATOM     27  C   UNL     1      -5.719 -10.378   6.391  0.00  0.00    +0.033 A 
ATOM     28  C   UNL     1      -7.388  -8.605   6.419  0.00  0.00    +0.122 A 
ATOM     29  C   UNL     1      -6.568  -9.491   5.716  0.00  0.00    +0.048 A 
ATOM     34  H   UNL     1      -6.721  -9.225  10.576  0.00  0.00    +0.167 HD
BRANCH  28   3
ATOM      3  O   UNL     1      -8.203  -7.755   5.730  0.00  0.00    -0.495 OA
ATOM     31  C   UNL     1      -9.245  -7.120   6.467  0.00  0.00    +0.277 C 
ENDBRANCH  28   3
ENDBRANCH  17  21
ENDBRANCH  12  17
TORSDOF 11
ENDMDL
MODEL 4
REMARK VINA RESULT:      -6.1      3.339      5.696
REMARK  Name = 71693196
REMARK  15 active torsions:
REMARK  status: ('A' for Active; 'I' for Inactive)
REMARK    1  A    between atoms: O_2  and  C_25
REMARK    2  A    between atoms: O_2  and  C_30
REMARK    3  A    between atoms: O_3  and  C_28
REMARK    4  A    between atoms: O_3  and  C_31
REMARK    5  A    between atoms: O_4  and  C_32
REMARK    6  A    between atoms: N_6  and  C_16
REMARK    7  A    between atoms: C_9  and  C_13
REMARK    8  A    between atoms: C_10  and  C_16
REMARK    9  A    between atoms: C_12  and  C_17
REMARK   10  A    between atoms: C_13  and  C_18
REMARK   11  A    between atoms: C_13  and  C_19
REMARK   12  A    between atoms: C_14  and  C_20
REMARK   13  A    between atoms: C_17  and  C_21
REMARK   14  A    between atoms: C_22  and  C_25
REMARK   15  A    between atoms: C_30  and  C_32
REMARK                            x       y       z     vdW  Elec       q    Type
REMARK                         _______ _______ _______ _____ _____    ______ ____
ROOT
ATOM      9  C   UNL     1      17.723   7.445  20.329  0.00  0.00    +0.000 C 
ATOM     10  C   UNL     1      17.424   8.605  21.310  0.00  0.00    +0.032 C 
ATOM     11  C   UNL     1      18.501   6.327  21.041  0.00  0.00    +0.012 C 
ATOM     12  C   UNL     1      19.834   6.826  21.626  0.00  0.00    +0.022 C 
ATOM     14  C   UNL     1      19.664   8.125  22.389  0.00  0.00    -0.073 C 
ATOM     15  C   UNL     1      18.574   8.900  22.246  0.00  0.00    -0.022 C 
ATOM     20  C   UNL     1      20.755   8.489  23.356  0.00  0.00    +0.039 C 
ENDROOT
BRANCH   9  13
ATOM     13  C   UNL     1      16.440   6.874  19.716  0.00  0.00    -0.013 C 
ATOM     18  C   UNL     1      15.534   6.309  20.806  0.00  0.00    +0.007 C 
ATOM     19  C   UNL     1      16.775   5.804  18.682  0.00  0.00    +0.007 C 
ENDBRANCH   9  13
BRANCH  10  16
ATOM     16  C   UNL     1      17.041   9.883  20.556  0.00  0.00    +0.112 C 
BRANCH  16   6
ATOM      1  O   UNL     1      14.836   9.870  22.428  0.00  0.00    -0.273 OA
ATOM      6  N   UNL     1      15.645   9.890  20.246  0.00  0.00    -0.313 N 
ATOM     22  C   UNL     1      14.643   9.883  21.216  0.00  0.00    +0.239 C 
ATOM     33  H   UNL     1      15.371   9.959  19.270  0.00  0.00    +0.149 HD
BRANCH  22  25
ATOM     25  C   UNL     1      13.257   9.895  20.607  0.00  0.00    +0.256 C 
BRANCH  25   2
ATOM      2  O   UNL     1      13.286   9.380  19.293  0.00  0.00    -0.359 OA
BRANCH   2  30
ATOM     30  C   UNL     1      12.699   8.083  19.217  0.00  0.00    +0.280 C 
BRANCH  30  32
ATOM      5  O   UNL     1      13.893   7.528  17.175  0.00  0.00    -0.248 OA
ATOM     32  C   UNL     1      12.860   7.533  17.828  0.00  0.00    +0.331 C 
BRANCH  32   4
ATOM      4  O   UNL     1      11.680   7.030  17.384  0.00  0.00    -0.479 OA
ATOM     35  H   UNL     1      11.722   6.058  17.253  0.00  0.00    +0.295 HD
ENDBRANCH  32   4
ENDBRANCH  30  32
ENDBRANCH   2  30
ENDBRANCH  25   2
ENDBRANCH  22  25
ENDBRANCH  16   6
ENDBRANCH  10  16
BRANCH  12  17
ATOM     17  C   UNL     1      20.898   6.970  20.531  0.00  0.00    +0.082 C 
BRANCH  17  21
ATOM      7  N   UNL     1      21.560   4.597  20.970  0.00  0.00    -0.342 N 
ATOM      8  N   UNL     1      23.200   5.963  20.349  0.00  0.00    -0.232 NA
ATOM     21  C   UNL     1      21.915   5.867  20.606  0.00  0.00    +0.109 A 
ATOM     23  C   UNL     1      22.692   3.823  20.946  0.00  0.00    +0.070 A 
ATOM     24  C   UNL     1      23.702   4.699  20.556  0.00  0.00    +0.089 A 
ATOM     26  C   UNL     1      22.913   2.474  21.224  0.00  0.00    +0.073 A 
ATOM     27  C   UNL     1      25.016   4.217  20.431  0.00  0.00    +0.033 A 
ATOM     28  C   UNL     1      24.226   2.011  21.094  0.00  0.00    +0.122 A 
ATOM     29  C   UNL     1      25.261   2.865  20.705  0.00  0.00    +0.048 A 
ATOM     34  H   UNL     1      20.630   4.283  21.211  0.00  0.00    +0.167 HD
BRANCH  28   3
ATOM      3  O   UNL     1      24.500   0.700  21.354  0.00  0.00    -0.495 OA
ATOM     31  C   UNL     1      25.608   0.429  22.209  0.00  0.00    +0.277 C 
ENDBRANCH  28   3
ENDBRANCH  17  21
ENDBRANCH  12  17
TORSDOF 11
ENDMDL
MODEL 5
REMARK VINA RESULT:      -6.1     13.266     17.049
REMARK  Name = 71693196
REMARK  15 active torsions:
REMARK  status: ('A' for Active; 'I' for Inactive)
REMARK    1  A    between atoms: O_2  and  C_25
REMARK    2  A    between atoms: O_2  and  C_30
REMARK    3  A    between atoms: O_3  and  C_28
REMARK    4  A    between atoms: O_3  and  C_31
REMARK    5  A    between atoms: O_4  and  C_32
REMARK    6  A    between atoms: N_6  and  C_16
REMARK    7  A    between atoms: C_9  and  C_13
REMARK    8  A    between atoms: C_10  and  C_16
REMARK    9  A    between atoms: C_12  and  C_17
REMARK   10  A    between atoms: C_13  and  C_18
REMARK   11  A    between atoms: C_13  and  C_19
REMARK   12  A    between atoms: C_14  and  C_20
REMARK   13  A    between atoms: C_17  and  C_21
REMARK   14  A    between atoms: C_22  and  C_25
REMARK   15  A    between atoms: C_30  and  C_32
REMARK                            x       y       z     vdW  Elec       q    Type
REMARK                         _______ _______ _______ _____ _____    ______ ____
ROOT
ATOM      9  C   UNL     1       8.956   8.293   5.730  0.00  0.00    +0.000 C 
ATOM     10  C   UNL     1       8.664   8.100   7.239  0.00  0.00    +0.032 C 
ATOM     11  C   UNL     1       8.644   7.003   4.954  0.00  0.00    +0.012 C 
ATOM     12  C   UNL     1       9.467   5.805   5.461  0.00  0.00    +0.022 C 
ATOM     14  C   UNL     1       9.448   5.707   6.973  0.00  0.00    -0.073 C 
ATOM     15  C   UNL     1       9.072   6.738   7.751  0.00  0.00    -0.022 C 
ATOM     20  C   UNL     1       9.825   4.380   7.570  0.00  0.00    +0.039 C 
ENDROOT
BRANCH   9  13
ATOM     13  C   UNL     1       8.155   9.458   5.141  0.00  0.00    -0.013 C 
ATOM     18  C   UNL     1       7.326   8.988   3.950  0.00  0.00    +0.007 C 
ATOM     19  C   UNL     1       9.090  10.593   4.734  0.00  0.00    +0.007 C 
ENDBRANCH   9  13
BRANCH  10  16
ATOM     16  C   UNL     1       9.346   9.186   8.077  0.00  0.00    +0.112 C 
BRANCH  16   6
ATOM      1  O   UNL     1      10.906  11.605   7.790  0.00  0.00    -0.273 OA
ATOM      6  N   UNL     1      10.734   9.284   7.748  0.00  0.00    -0.313 N 
ATOM     22  C   UNL     1      11.411  10.498   7.630  0.00  0.00    +0.239 C 
ATOM     33  H   UNL     1      11.265   8.425   7.650  0.00  0.00    +0.149 HD
BRANCH  22  25
ATOM     25  C   UNL     1      12.870  10.307   7.275  0.00  0.00    +0.256 C 
BRANCH  25   2
ATOM      2  O   UNL     1      13.181   8.934   7.169  0.00  0.00    -0.359 OA
BRANCH   2  30
ATOM     30  C   UNL     1      14.347   8.713   6.379  0.00  0.00    +0.280 C 
BRANCH  30  32
ATOM      5  O   UNL     1      14.379   7.177   4.496  0.00  0.00    -0.248 OA
ATOM     32  C   UNL     1      14.252   7.378   5.695  0.00  0.00    +0.331 C 
BRANCH  32   4
ATOM      4  O   UNL     1      14.001   6.402   6.604  0.00  0.00    -0.479 OA
ATOM     35  H   UNL     1      14.294   5.521   6.287  0.00  0.00    +0.295 HD
ENDBRANCH  32   4
ENDBRANCH  30  32
ENDBRANCH   2  30
ENDBRANCH  25   2
ENDBRANCH  22  25
ENDBRANCH  16   6
ENDBRANCH  10  16
BRANCH  12  17
ATOM     17  C   UNL     1      10.907   5.861   4.935  0.00  0.00    +0.082 C 
BRANCH  17  21
ATOM      7  N   UNL     1      12.013   4.653   3.043  0.00  0.00    -0.342 N 
ATOM      8  N   UNL     1      10.125   5.715   2.544  0.00  0.00    -0.232 NA
ATOM     21  C   UNL     1      10.982   5.428   3.498  0.00  0.00    +0.109 A 
ATOM     23  C   UNL     1      11.806   4.425   1.707  0.00  0.00    +0.070 A 
ATOM     24  C   UNL     1      10.622   5.098   1.420  0.00  0.00    +0.089 A 
ATOM     26  C   UNL     1      12.532   3.710   0.753  0.00  0.00    +0.073 A 
ATOM     27  C   UNL     1      10.117   5.067   0.108  0.00  0.00    +0.033 A 
ATOM     28  C   UNL     1      12.014   3.689  -0.546  0.00  0.00    +0.122 A 
ATOM     29  C   UNL     1      10.829   4.355  -0.865  0.00  0.00    +0.048 A 
ATOM     34  H   UNL     1      12.788   4.307   3.592  0.00  0.00    +0.167 HD
BRANCH  28   3
ATOM      3  O   UNL     1      12.683   3.006  -1.519  0.00  0.00    -0.495 OA
ATOM     31  C   UNL     1      13.326   3.782  -2.528  0.00  0.00    +0.277 C 
ENDBRANCH  28   3
ENDBRANCH  17  21
ENDBRANCH  12  17
TORSDOF 11
ENDMDL
MODEL 6
REMARK VINA RESULT:      -6.0     10.885     14.900
REMARK  Name = 71693196
REMARK  15 active torsions:
REMARK  status: ('A' for Active; 'I' for Inactive)
REMARK    1  A    between atoms: O_2  and  C_25
REMARK    2  A    between atoms: O_2  and  C_30
REMARK    3  A    between atoms: O_3  and  C_28
REMARK    4  A    between atoms: O_3  and  C_31
REMARK    5  A    between atoms: O_4  and  C_32
REMARK    6  A    between atoms: N_6  and  C_16
REMARK    7  A    between atoms: C_9  and  C_13
REMARK    8  A    between atoms: C_10  and  C_16
REMARK    9  A    between atoms: C_12  and  C_17
REMARK   10  A    between atoms: C_13  and  C_18
REMARK   11  A    between atoms: C_13  and  C_19
REMARK   12  A    between atoms: C_14  and  C_20
REMARK   13  A    between atoms: C_17  and  C_21
REMARK   14  A    between atoms: C_22  and  C_25
REMARK   15  A    between atoms: C_30  and  C_32
REMARK                            x       y       z     vdW  Elec       q    Type
REMARK                         _______ _______ _______ _____ _____    ______ ____
ROOT
ATOM      9  C   UNL     1       9.890   5.992   6.969  0.00  0.00    +0.000 C 
ATOM     10  C   UNL     1       9.205   5.405   5.710  0.00  0.00    +0.032 C 
ATOM     11  C   UNL     1       9.037   7.121   7.568  0.00  0.00    +0.012 C 
ATOM     12  C   UNL     1       8.797   8.265   6.565  0.00  0.00    +0.022 C 
ATOM     14  C   UNL     1       8.374   7.743   5.206  0.00  0.00    -0.073 C 
ATOM     15  C   UNL     1       8.551   6.459   4.847  0.00  0.00    -0.022 C 
ATOM     20  C   UNL     1       7.699   8.722   4.286  0.00  0.00    +0.039 C 
ENDROOT
BRANCH   9  13
ATOM     13  C   UNL     1      10.145   4.917   8.030  0.00  0.00    -0.013 C 
ATOM     18  C   UNL     1       9.455   3.613   7.645  0.00  0.00    +0.007 C 
ATOM     19  C   UNL     1       9.669   5.397   9.398  0.00  0.00    +0.007 C 
ENDBRANCH   9  13
BRANCH  10  16
ATOM     16  C   UNL     1      10.196   4.597   4.866  0.00  0.00    +0.112 C 
BRANCH  16   6
ATOM      1  O   UNL     1      10.795   4.901   2.053  0.00  0.00    -0.273 OA
ATOM      6  N   UNL     1      11.180   5.453   4.281  0.00  0.00    -0.313 N 
ATOM     22  C   UNL     1      11.404   5.539   2.907  0.00  0.00    +0.239 C 
ATOM     33  H   UNL     1      11.704   6.071   4.894  0.00  0.00    +0.149 HD
BRANCH  22  25
ATOM     25  C   UNL     1      12.501   6.524   2.566  0.00  0.00    +0.256 C 
BRANCH  25   2
ATOM      2  O   UNL     1      13.769   5.909   2.657  0.00  0.00    -0.359 OA
BRANCH   2  30
ATOM     30  C   UNL     1      14.106   5.210   1.461  0.00  0.00    +0.280 C 
BRANCH  30  32
ATOM      5  O   UNL     1      13.489   2.861   1.515  0.00  0.00    -0.248 OA
ATOM     32  C   UNL     1      14.291   3.749   1.762  0.00  0.00    +0.331 C 
BRANCH  32   4
ATOM      4  O   UNL     1      15.492   3.541   2.358  0.00  0.00    -0.479 OA
ATOM     35  H   UNL     1      16.206   4.067   1.937  0.00  0.00    +0.295 HD
ENDBRANCH  32   4
ENDBRANCH  30  32
ENDBRANCH   2  30
ENDBRANCH  25   2
ENDBRANCH  22  25
ENDBRANCH  16   6
ENDBRANCH  10  16
BRANCH  12  17
ATOM     17  C   UNL     1      10.034   9.163   6.445  0.00  0.00    +0.082 C 
BRANCH  17  21
ATOM      7  N   UNL     1      11.480  10.444   8.035  0.00  0.00    -0.342 N 
ATOM      8  N   UNL     1       9.323  10.331   8.561  0.00  0.00    -0.232 NA
ATOM     21  C   UNL     1      10.242   9.978   7.690  0.00  0.00    +0.109 A 
ATOM     23  C   UNL     1      11.351  11.145   9.207  0.00  0.00    +0.070 A 
ATOM     24  C   UNL     1       9.996  11.059   9.514  0.00  0.00    +0.089 A 
ATOM     26  C   UNL     1      12.276  11.825  10.000  0.00  0.00    +0.073 A 
ATOM     27  C   UNL     1       9.518  11.683  10.679  0.00  0.00    +0.033 A 
ATOM     28  C   UNL     1      11.782  12.440  11.155  0.00  0.00    +0.122 A 
ATOM     29  C   UNL     1      10.428  12.372  11.491  0.00  0.00    +0.048 A 
ATOM     34  H   UNL     1      12.338  10.301   7.519  0.00  0.00    +0.167 HD
BRANCH  28   3
ATOM      3  O   UNL     1      12.641  13.119  11.969  0.00  0.00    -0.495 OA
ATOM     31  C   UNL     1      13.942  13.390  11.453  0.00  0.00    +0.277 C 
ENDBRANCH  28   3
ENDBRANCH  17  21
ENDBRANCH  12  17
TORSDOF 11
ENDMDL
MODEL 7
REMARK VINA RESULT:      -6.0      3.647      6.454
REMARK  Name = 71693196
REMARK  15 active torsions:
REMARK  status: ('A' for Active; 'I' for Inactive)
REMARK    1  A    between atoms: O_2  and  C_25
REMARK    2  A    between atoms: O_2  and  C_30
REMARK    3  A    between atoms: O_3  and  C_28
REMARK    4  A    between atoms: O_3  and  C_31
REMARK    5  A    between atoms: O_4  and  C_32
REMARK    6  A    between atoms: N_6  and  C_16
REMARK    7  A    between atoms: C_9  and  C_13
REMARK    8  A    between atoms: C_10  and  C_16
REMARK    9  A    between atoms: C_12  and  C_17
REMARK   10  A    between atoms: C_13  and  C_18
REMARK   11  A    between atoms: C_13  and  C_19
REMARK   12  A    between atoms: C_14  and  C_20
REMARK   13  A    between atoms: C_17  and  C_21
REMARK   14  A    between atoms: C_22  and  C_25
REMARK   15  A    between atoms: C_30  and  C_32
REMARK                            x       y       z     vdW  Elec       q    Type
REMARK                         _______ _______ _______ _____ _____    ______ ____
ROOT
ATOM      9  C   UNL     1      18.134   7.154  20.340  0.00  0.00    +0.000 C 
ATOM     10  C   UNL     1      17.916   8.196  21.465  0.00  0.00    +0.032 C 
ATOM     11  C   UNL     1      18.828   5.901  20.895  0.00  0.00    +0.012 C 
ATOM     12  C   UNL     1      20.192   6.224  21.531  0.00  0.00    +0.022 C 
ATOM     14  C   UNL     1      20.113   7.421  22.457  0.00  0.00    -0.073 C 
ATOM     15  C   UNL     1      19.081   8.284  22.423  0.00  0.00    -0.022 C 
ATOM     20  C   UNL     1      21.225   7.578  23.456  0.00  0.00    +0.039 C 
ENDROOT
BRANCH   9  13
ATOM     13  C   UNL     1      16.815   6.760  19.667  0.00  0.00    -0.013 C 
ATOM     18  C   UNL     1      15.785   6.347  20.714  0.00  0.00    +0.007 C 
ATOM     19  C   UNL     1      17.045   5.636  18.662  0.00  0.00    +0.007 C 
ENDBRANCH   9  13
BRANCH  10  16
ATOM     16  C   UNL     1      17.626   9.584  20.885  0.00  0.00    +0.112 C 
BRANCH  16   6
ATOM      1  O   UNL     1      15.346   9.847  19.126  0.00  0.00    -0.273 OA
ATOM      6  N   UNL     1      16.310  10.017  21.237  0.00  0.00    -0.313 N 
ATOM     22  C   UNL     1      15.263  10.115  20.321  0.00  0.00    +0.239 C 
ATOM     33  H   UNL     1      16.114  10.210  22.215  0.00  0.00    +0.149 HD
BRANCH  22  25
ATOM     25  C   UNL     1      13.981  10.597  20.966  0.00  0.00    +0.256 C 
BRANCH  25   2
ATOM      2  O   UNL     1      12.862   9.957  20.390  0.00  0.00    -0.359 OA
BRANCH   2  30
ATOM     30  C   UNL     1      12.486   8.789  21.115  0.00  0.00    +0.280 C 
BRANCH  30  32
ATOM      5  O   UNL     1      10.354   8.996  22.262  0.00  0.00    -0.248 OA
ATOM     32  C   UNL     1      10.991   8.735  21.252  0.00  0.00    +0.331 C 
BRANCH  32   4
ATOM      4  O   UNL     1      10.427   8.349  20.079  0.00  0.00    -0.479 OA
ATOM     35  H   UNL     1      10.088   7.430  20.120  0.00  0.00    +0.295 HD
ENDBRANCH  32   4
ENDBRANCH  30  32
ENDBRANCH   2  30
ENDBRANCH  25   2
ENDBRANCH  22  25
ENDBRANCH  16   6
ENDBRANCH  10  16
BRANCH  12  17
ATOM     17  C   UNL     1      21.267   6.433  20.457  0.00  0.00    +0.082 C 
BRANCH  17  21
ATOM      7  N   UNL     1      22.111   4.128  20.942  0.00  0.00    -0.342 N 
ATOM      8  N   UNL     1      23.652   5.626  20.374  0.00  0.00    -0.232 NA
ATOM     21  C   UNL     1      22.370   5.421  20.581  0.00  0.00    +0.109 A 
ATOM     23  C   UNL     1      23.305   3.454  20.968  0.00  0.00    +0.070 A 
ATOM     24  C   UNL     1      24.251   4.410  20.610  0.00  0.00    +0.089 A 
ATOM     26  C   UNL     1      23.628   2.129  21.267  0.00  0.00    +0.073 A 
ATOM     27  C   UNL     1      25.605   4.041  20.541  0.00  0.00    +0.033 A 
ATOM     28  C   UNL     1      24.980   1.780  21.191  0.00  0.00    +0.122 A 
ATOM     29  C   UNL     1      25.953   2.717  20.836  0.00  0.00    +0.048 A 
ATOM     34  H   UNL     1      21.202   3.736  21.150  0.00  0.00    +0.167 HD
BRANCH  28   3
ATOM      3  O   UNL     1      25.355   0.499  21.473  0.00  0.00    -0.495 OA
ATOM     31  C   UNL     1      25.746   0.220  22.815  0.00  0.00    +0.277 C 
ENDBRANCH  28   3
ENDBRANCH  17  21
ENDBRANCH  12  17
TORSDOF 11
ENDMDL
MODEL 8
REMARK VINA RESULT:      -6.0      3.007      5.431
REMARK  Name = 71693196
REMARK  15 active torsions:
REMARK  status: ('A' for Active; 'I' for Inactive)
REMARK    1  A    between atoms: O_2  and  C_25
REMARK    2  A    between atoms: O_2  and  C_30
REMARK    3  A    between atoms: O_3  and  C_28
REMARK    4  A    between atoms: O_3  and  C_31
REMARK    5  A    between atoms: O_4  and  C_32
REMARK    6  A    between atoms: N_6  and  C_16
REMARK    7  A    between atoms: C_9  and  C_13
REMARK    8  A    between atoms: C_10  and  C_16
REMARK    9  A    between atoms: C_12  and  C_17
REMARK   10  A    between atoms: C_13  and  C_18
REMARK   11  A    between atoms: C_13  and  C_19
REMARK   12  A    between atoms: C_14  and  C_20
REMARK   13  A    between atoms: C_17  and  C_21
REMARK   14  A    between atoms: C_22  and  C_25
REMARK   15  A    between atoms: C_30  and  C_32
REMARK                            x       y       z     vdW  Elec       q    Type
REMARK                         _______ _______ _______ _____ _____    ______ ____
ROOT
ATOM      9  C   UNL     1      17.407   9.567  21.885  0.00  0.00    +0.000 C 
ATOM     10  C   UNL     1      16.255   9.069  20.977  0.00  0.00    +0.032 C 
ATOM     11  C   UNL     1      18.768   9.231  21.258  0.00  0.00    +0.012 C 
ATOM     12  C   UNL     1      18.947   7.719  21.029  0.00  0.00    +0.022 C 
ATOM     14  C   UNL     1      17.729   7.100  20.374  0.00  0.00    -0.073 C 
ATOM     15  C   UNL     1      16.537   7.724  20.348  0.00  0.00    -0.022 C 
ATOM     20  C   UNL     1      17.923   5.767  19.707  0.00  0.00    +0.039 C 
ENDROOT
BRANCH   9  13
ATOM     13  C   UNL     1      17.313  11.074  22.145  0.00  0.00    -0.013 C 
ATOM     18  C   UNL     1      17.184  11.835  20.830  0.00  0.00    +0.007 C 
ATOM     19  C   UNL     1      18.530  11.554  22.931  0.00  0.00    +0.007 C 
ENDBRANCH   9  13
BRANCH  10  16
ATOM     16  C   UNL     1      14.931   9.003  21.747  0.00  0.00    +0.112 C 
BRANCH  16   6
ATOM      1  O   UNL     1      12.082   8.757  22.179  0.00  0.00    -0.273 OA
ATOM      6  N   UNL     1      14.050   8.043  21.161  0.00  0.00    -0.313 N 
ATOM     22  C   UNL     1      12.681   7.995  21.425  0.00  0.00    +0.239 C 
ATOM     33  H   UNL     1      14.431   7.399  20.475  0.00  0.00    +0.149 HD
BRANCH  22  25
ATOM     25  C   UNL     1      11.991   6.881  20.668  0.00  0.00    +0.256 C 
BRANCH  25   2
ATOM      2  O   UNL     1      12.160   7.046  19.276  0.00  0.00    -0.359 OA
BRANCH   2  30
ATOM     30  C   UNL     1      11.591   8.268  18.813  0.00  0.00    +0.280 C 
BRANCH  30  32
ATOM      5  O   UNL     1      10.446   8.220  16.671  0.00  0.00    -0.248 OA
ATOM     32  C   UNL     1      11.485   8.243  17.314  0.00  0.00    +0.331 C 
BRANCH  32   4
ATOM      4  O   UNL     1      12.722   8.250  16.756  0.00  0.00    -0.479 OA
ATOM     35  H   UNL     1      13.103   7.347  16.699  0.00  0.00    +0.295 HD
ENDBRANCH  32   4
ENDBRANCH  30  32
ENDBRANCH   2  30
ENDBRANCH  25   2
ENDBRANCH  22  25
ENDBRANCH  16   6
ENDBRANCH  10  16
BRANCH  12  17
ATOM     17  C   UNL     1      19.290   6.998  22.338  0.00  0.00    +0.082 C 
BRANCH  17  21
ATOM      7  N   UNL     1      21.204   6.087  21.009  0.00  0.00    -0.342 N 
ATOM      8  N   UNL     1      21.119   5.463  23.141  0.00  0.00    -0.232 NA
ATOM     21  C   UNL     1      20.537   6.172  22.199  0.00  0.00    +0.109 A 
ATOM     23  C   UNL     1      22.289   5.269  21.195  0.00  0.00    +0.070 A 
ATOM     24  C   UNL     1      22.214   4.893  22.533  0.00  0.00    +0.089 A 
ATOM     26  C   UNL     1      23.299   4.839  20.333  0.00  0.00    +0.073 A 
ATOM     27  C   UNL     1      23.196   4.037  23.060  0.00  0.00    +0.033 A 
ATOM     28  C   UNL     1      24.268   3.989  20.875  0.00  0.00    +0.122 A 
ATOM     29  C   UNL     1      24.220   3.593  22.213  0.00  0.00    +0.048 A 
ATOM     34  H   UNL     1      20.947   6.546  20.146  0.00  0.00    +0.167 HD
BRANCH  28   3
ATOM      3  O   UNL     1      25.280   3.537  20.078  0.00  0.00    -0.495 OA
ATOM     31  C   UNL     1      26.368   2.882  20.726  0.00  0.00    +0.277 C 
ENDBRANCH  28   3
ENDBRANCH  17  21
ENDBRANCH  12  17
TORSDOF 11
ENDMDL
MODEL 9
REMARK VINA RESULT:      -5.9      3.621      5.466
REMARK  Name = 71693196
REMARK  15 active torsions:
REMARK  status: ('A' for Active; 'I' for Inactive)
REMARK    1  A    between atoms: O_2  and  C_25
REMARK    2  A    between atoms: O_2  and  C_30
REMARK    3  A    between atoms: O_3  and  C_28
REMARK    4  A    between atoms: O_3  and  C_31
REMARK    5  A    between atoms: O_4  and  C_32
REMARK    6  A    between atoms: N_6  and  C_16
REMARK    7  A    between atoms: C_9  and  C_13
REMARK    8  A    between atoms: C_10  and  C_16
REMARK    9  A    between atoms: C_12  and  C_17
REMARK   10  A    between atoms: C_13  and  C_18
REMARK   11  A    between atoms: C_13  and  C_19
REMARK   12  A    between atoms: C_14  and  C_20
REMARK   13  A    between atoms: C_17  and  C_21
REMARK   14  A    between atoms: C_22  and  C_25
REMARK   15  A    between atoms: C_30  and  C_32
REMARK                            x       y       z     vdW  Elec       q    Type
REMARK                         _______ _______ _______ _____ _____    ______ ____
ROOT
ATOM      9  C   UNL     1      15.674   7.281  20.466  0.00  0.00    +0.000 C 
ATOM     10  C   UNL     1      15.718   8.735  21.000  0.00  0.00    +0.032 C 
ATOM     11  C   UNL     1      16.562   6.367  21.325  0.00  0.00    +0.012 C 
ATOM     12  C   UNL     1      18.029   6.834  21.347  0.00  0.00    +0.022 C 
ATOM     14  C   UNL     1      18.143   8.323  21.603  0.00  0.00    -0.073 C 
ATOM     15  C   UNL     1      17.096   9.155  21.457  0.00  0.00    -0.022 C 
ATOM     20  C   UNL     1      19.477   8.828  22.078  0.00  0.00    +0.039 C 
ENDROOT
BRANCH   9  13
ATOM     13  C   UNL     1      14.244   6.732  20.433  0.00  0.00    -0.013 C 
ATOM     18  C   UNL     1      13.603   6.997  19.075  0.00  0.00    +0.007 C 
ATOM     19  C   UNL     1      13.412   7.349  21.553  0.00  0.00    +0.007 C 
ENDBRANCH   9  13
BRANCH  10  16
ATOM     16  C   UNL     1      15.204   9.726  19.950  0.00  0.00    +0.112 C 
BRANCH  16   6
ATOM      1  O   UNL     1      12.388  10.085  19.399  0.00  0.00    -0.273 OA
ATOM      6  N   UNL     1      14.324  10.683  20.544  0.00  0.00    -0.313 N 
ATOM     22  C   UNL     1      12.972  10.789  20.219  0.00  0.00    +0.239 C 
ATOM     33  H   UNL     1      14.691  11.280  21.279  0.00  0.00    +0.149 HD
BRANCH  22  25
ATOM     25  C   UNL     1      12.279  11.885  20.999  0.00  0.00    +0.256 C 
BRANCH  25   2
ATOM      2  O   UNL     1      11.262  11.348  21.817  0.00  0.00    -0.359 OA
BRANCH   2  30
ATOM     30  C   UNL     1      11.236  11.960  23.104  0.00  0.00    +0.280 C 
BRANCH  30  32
ATOM      5  O   UNL     1      11.185  11.099  25.375  0.00  0.00    -0.248 OA
ATOM     32  C   UNL     1      11.213  10.901  24.170  0.00  0.00    +0.331 C 
BRANCH  32   4
ATOM      4  O   UNL     1      11.228   9.667  23.605  0.00  0.00    -0.479 OA
ATOM     35  H   UNL     1      10.383   9.188  23.747  0.00  0.00    +0.295 HD
ENDBRANCH  32   4
ENDBRANCH  30  32
ENDBRANCH   2  30
ENDBRANCH  25   2
ENDBRANCH  22  25
ENDBRANCH  16   6
ENDBRANCH  10  16
BRANCH  12  17
ATOM     17  C   UNL     1      18.752   6.445  20.052  0.00  0.00    +0.082 C 
BRANCH  17  21
ATOM      7  N   UNL     1      21.245   6.282  20.194  0.00  0.00    -0.342 N 
ATOM      8  N   UNL     1      20.121   4.444  20.739  0.00  0.00    -0.232 NA
ATOM     21  C   UNL     1      20.021   5.692  20.338  0.00  0.00    +0.109 A 
ATOM     23  C   UNL     1      22.199   5.353  20.525  0.00  0.00    +0.070 A 
ATOM     24  C   UNL     1      21.472   4.215  20.861  0.00  0.00    +0.089 A 
ATOM     26  C   UNL     1      23.593   5.410  20.557  0.00  0.00    +0.073 A 
ATOM     27  C   UNL     1      22.159   3.055  21.255  0.00  0.00    +0.033 A 
ATOM     28  C   UNL     1      24.260   4.246  20.952  0.00  0.00    +0.122 A 
ATOM     29  C   UNL     1      23.559   3.088  21.295  0.00  0.00    +0.048 A 
ATOM     34  H   UNL     1      21.419   7.234  19.899  0.00  0.00    +0.167 HD
BRANCH  28   3
ATOM      3  O   UNL     1      25.624   4.243  21.001  0.00  0.00    -0.495 OA
ATOM     31  C   UNL     1      26.309   3.645  19.903  0.00  0.00    +0.277 C 
ENDBRANCH  28   3
ENDBRANCH  17  21
ENDBRANCH  12  17
TORSDOF 11
ENDMDL
MODEL 10
REMARK VINA RESULT:      -5.9      9.662     14.091
REMARK  Name = 71693196
REMARK  15 active torsions:
REMARK  status: ('A' for Active; 'I' for Inactive)
REMARK    1  A    between atoms: O_2  and  C_25
REMARK    2  A    between atoms: O_2  and  C_30
REMARK    3  A    between atoms: O_3  and  C_28
REMARK    4  A    between atoms: O_3  and  C_31
REMARK    5  A    between atoms: O_4  and  C_32
REMARK    6  A    between atoms: N_6  and  C_16
REMARK    7  A    between atoms: C_9  and  C_13
REMARK    8  A    between atoms: C_10  and  C_16
REMARK    9  A    between atoms: C_12  and  C_17
REMARK   10  A    between atoms: C_13  and  C_18
REMARK   11  A    between atoms: C_13  and  C_19
REMARK   12  A    between atoms: C_14  and  C_20
REMARK   13  A    between atoms: C_17  and  C_21
REMARK   14  A    between atoms: C_22  and  C_25
REMARK   15  A    between atoms: C_30  and  C_32
REMARK                            x       y       z     vdW  Elec       q    Type
REMARK                         _______ _______ _______ _____ _____    ______ ____
ROOT
ATOM      9  C   UNL     1       9.470   6.252   7.124  0.00  0.00    +0.000 C 
ATOM     10  C   UNL     1       8.778   5.762   5.827  0.00  0.00    +0.032 C 
ATOM     11  C   UNL     1       8.698   7.434   7.731  0.00  0.00    +0.012 C 
ATOM     12  C   UNL     1       8.591   8.621   6.757  0.00  0.00    +0.022 C 
ATOM     14  C   UNL     1       8.169   8.177   5.371  0.00  0.00    -0.073 C 
ATOM     15  C   UNL     1       8.247   6.893   4.977  0.00  0.00    -0.022 C 
ATOM     20  C   UNL     1       7.611   9.236   4.461  0.00  0.00    +0.039 C 
ENDROOT
BRANCH   9  13
ATOM     13  C   UNL     1       9.597   5.129   8.159  0.00  0.00    -0.013 C 
ATOM     18  C   UNL     1       8.790   5.463   9.409  0.00  0.00    +0.007 C 
ATOM     19  C   UNL     1      11.063   4.892   8.509  0.00  0.00    +0.007 C 
ENDBRANCH   9  13
BRANCH  10  16
ATOM     16  C   UNL     1       9.724   4.895   4.989  0.00  0.00    +0.112 C 
BRANCH  16   6
ATOM      1  O   UNL     1      11.262   4.373   2.596  0.00  0.00    -0.273 OA
ATOM      6  N   UNL     1      10.801   5.677   4.468  0.00  0.00    -0.313 N 
ATOM     22  C   UNL     1      11.492   5.351   3.301  0.00  0.00    +0.239 C 
ATOM     33  H   UNL     1      11.038   6.543   4.942  0.00  0.00    +0.149 HD
BRANCH  22  25
ATOM     25  C   UNL     1      12.581   6.353   2.982  0.00  0.00    +0.256 C 
BRANCH  25   2
ATOM      2  O   UNL     1      12.506   7.464   3.850  0.00  0.00    -0.359 OA
BRANCH   2  30
ATOM     30  C   UNL     1      13.707   7.637   4.596  0.00  0.00    +0.280 C 
BRANCH  30  32
ATOM      5  O   UNL     1      13.380   8.622   6.793  0.00  0.00    -0.248 OA
ATOM     32  C   UNL     1      13.396   7.639   6.067  0.00  0.00    +0.331 C 
BRANCH  32   4
ATOM      4  O   UNL     1      13.131   6.378   6.492  0.00  0.00    -0.479 OA
ATOM     35  H   UNL     1      13.117   5.737   5.749  0.00  0.00    +0.295 HD
ENDBRANCH  32   4
ENDBRANCH  30  32
ENDBRANCH   2  30
ENDBRANCH  25   2
ENDBRANCH  22  25
ENDBRANCH  16   6
ENDBRANCH  10  16
BRANCH  12  17
ATOM     17  C   UNL     1       9.903   9.412   6.703  0.00  0.00    +0.082 C 
BRANCH  17  21
ATOM      7  N   UNL     1      11.382  10.606   8.331  0.00  0.00    -0.342 N 
ATOM      8  N   UNL     1       9.223  10.532   8.854  0.00  0.00    -0.232 NA
ATOM     21  C   UNL     1      10.132  10.182   7.972  0.00  0.00    +0.109 A 
ATOM     23  C   UNL     1      11.271  11.273   9.524  0.00  0.00    +0.070 A 
ATOM     24  C   UNL     1       9.914  11.213   9.829  0.00  0.00    +0.089 A 
ATOM     26  C   UNL     1      12.212  11.905  10.337  0.00  0.00    +0.073 A 
ATOM     27  C   UNL     1       9.451  11.813  11.013  0.00  0.00    +0.033 A 
ATOM     28  C   UNL     1      11.734  12.497  11.510  0.00  0.00    +0.122 A 
ATOM     29  C   UNL     1      10.379  12.453  11.845  0.00  0.00    +0.048 A 
ATOM     34  H   UNL     1      12.236  10.457   7.810  0.00  0.00    +0.167 HD
BRANCH  28   3
ATOM      3  O   UNL     1      12.610  13.128  12.344  0.00  0.00    -0.495 OA
ATOM     31  C   UNL     1      13.125  12.369  13.436  0.00  0.00    +0.277 C 
ENDBRANCH  28   3
ENDBRANCH  17  21
ENDBRANCH  12  17
TORSDOF 11
ENDMDL
