MODEL 1
REMARK VINA RESULT:      -7.7      0.000      0.000
REMARK  Name = 11883392
REMARK  6 active torsions:
REMARK  status: ('A' for Active; 'I' for Inactive)
REMARK    1  A    between atoms: O_6  and  C_14
REMARK    2  A    between atoms: O_6  and  C_24
REMARK    3  A    between atoms: N_9  and  C_13
REMARK    4  A    between atoms: N_10  and  C_25
REMARK    5  A    between atoms: C_17  and  C_20
REMARK    6  A    between atoms: C_28  and  C_31
REMARK                            x       y       z     vdW  Elec       q    Type
REMARK                         _______ _______ _______ _____ _____    ______ ____
ROOT
ATOM      4  O   UNL     1     -16.482   4.692  25.675  0.00  0.00    -0.368 OA
ATOM      5  O   UNL     1     -17.451   1.873  24.955  0.00  0.00    -0.368 OA
ATOM     11  C   UNL     1     -16.329   2.326  25.742  0.00  0.00    +0.173 C 
ATOM     12  C   UNL     1     -15.801   3.579  25.073  0.00  0.00    +0.192 C 
ATOM     13  C   UNL     1     -16.806   2.811  27.092  0.00  0.00    +0.130 C 
ATOM     14  C   UNL     1     -16.216   3.381  23.634  0.00  0.00    +0.235 C 
ATOM     15  C   UNL     1     -17.268   4.225  26.782  0.00  0.00    +0.185 C 
ATOM     16  C   UNL     1     -17.554   2.692  23.781  0.00  0.00    +0.207 C 
ENDROOT
BRANCH  13   9
ATOM      7  O   UNL     1     -15.966   0.610  28.790  0.00  0.00    -0.276 OA
ATOM      9  N   UNL     1     -15.734   2.808  28.057  0.00  0.00    -0.307 N 
ATOM     20  C   UNL     1     -15.405   1.703  28.826  0.00  0.00    +0.216 C 
ATOM     32  H   UNL     1     -15.157   3.642  28.122  0.00  0.00    +0.149 HD
BRANCH  20  17
ATOM     17  C   UNL     1     -14.235   1.962  29.729  0.00  0.00    +0.075 C 
ATOM     18  C   UNL     1     -14.477   3.196  30.603  0.00  0.00    +0.013 C 
ATOM     19  C   UNL     1     -13.914   0.711  30.549  0.00  0.00    +0.013 C 
ATOM     21  C   UNL     1     -15.437   2.939  31.764  0.00  0.00    +0.001 C 
ATOM     22  C   UNL     1     -14.894   0.480  31.698  0.00  0.00    +0.001 C 
ATOM     23  C   UNL     1     -15.030   1.717  32.578  0.00  0.00    +0.000 C 
ENDBRANCH  20  17
ENDBRANCH  13   9
BRANCH  14   6
ATOM      6  O   UNL     1     -16.315   4.583  22.906  0.00  0.00    -0.442 OA
BRANCH   6  24
ATOM      8  O   UNL     1     -14.186   4.394  22.092  0.00  0.00    -0.226 OA
ATOM     10  N   UNL     1     -15.252   6.471  22.276  0.00  0.00    -0.251 N 
ATOM     24  C   UNL     1     -15.143   5.098  22.389  0.00  0.00    +0.405 C 
ATOM     33  H   UNL     1     -16.134   6.878  22.577  0.00  0.00    +0.158 HD
BRANCH  10  25
ATOM     25  C   UNL     1     -14.286   7.383  21.795  0.00  0.00    +0.037 A 
ATOM     26  C   UNL     1     -13.543   7.076  20.655  0.00  0.00    +0.035 A 
ATOM     27  C   UNL     1     -14.076   8.591  22.460  0.00  0.00    +0.023 A 
ATOM     28  C   UNL     1     -12.589   7.976  20.181  0.00  0.00    +0.057 A 
ATOM     29  C   UNL     1     -13.123   9.492  21.985  0.00  0.00    +0.002 A 
ATOM     30  C   UNL     1     -12.380   9.185  20.846  0.00  0.00    +0.012 A 
BRANCH  28  31
ATOM      1  F   UNL     1     -12.534   7.621  17.815  0.00  0.00    -0.166 F 
ATOM      2  F   UNL     1     -10.786   8.536  18.713  0.00  0.00    -0.166 F 
ATOM      3  F   UNL     1     -11.193   6.425  19.041  0.00  0.00    -0.166 F 
ATOM     31  C   UNL     1     -11.794   7.649  18.963  0.00  0.00    +0.417 C 
ENDBRANCH  28  31
ENDBRANCH  10  25
ENDBRANCH   6  24
ENDBRANCH  14   6
TORSDOF 6
ENDMDL
MODEL 2
REMARK VINA RESULT:      -7.5      1.754      2.322
REMARK  Name = 11883392
REMARK  6 active torsions:
REMARK  status: ('A' for Active; 'I' for Inactive)
REMARK    1  A    between atoms: O_6  and  C_14
REMARK    2  A    between atoms: O_6  and  C_24
REMARK    3  A    between atoms: N_9  and  C_13
REMARK    4  A    between atoms: N_10  and  C_25
REMARK    5  A    between atoms: C_17  and  C_20
REMARK    6  A    between atoms: C_28  and  C_31
REMARK                            x       y       z     vdW  Elec       q    Type
REMARK                         _______ _______ _______ _____ _____    ______ ____
ROOT
ATOM      4  O   UNL     1     -17.723   3.141  26.301  0.00  0.00    -0.368 OA
ATOM      5  O   UNL     1     -17.611   0.202  25.432  0.00  0.00    -0.368 OA
ATOM     11  C   UNL     1     -16.641   1.040  26.095  0.00  0.00    +0.173 C 
ATOM     12  C   UNL     1     -16.774   2.425  25.493  0.00  0.00    +0.192 C 
ATOM     13  C   UNL     1     -17.028   1.237  27.543  0.00  0.00    +0.130 C 
ATOM     14  C   UNL     1     -17.320   2.131  24.115  0.00  0.00    +0.235 C 
ATOM     15  C   UNL     1     -18.056   2.352  27.453  0.00  0.00    +0.185 C 
ATOM     16  C   UNL     1     -18.231   0.954  24.378  0.00  0.00    +0.207 C 
ENDROOT
BRANCH  13   9
ATOM      7  O   UNL     1     -15.996  -0.076  29.918  0.00  0.00    -0.276 OA
ATOM      9  N   UNL     1     -15.892   1.632  28.338  0.00  0.00    -0.307 N 
ATOM     20  C   UNL     1     -15.473   0.937  29.463  0.00  0.00    +0.216 C 
ATOM     32  H   UNL     1     -15.341   2.421  28.014  0.00  0.00    +0.149 HD
BRANCH  20  17
ATOM     17  C   UNL     1     -14.252   1.547  30.088  0.00  0.00    +0.075 C 
ATOM     18  C   UNL     1     -14.364   3.073  30.138  0.00  0.00    +0.013 C 
ATOM     19  C   UNL     1     -13.999   0.927  31.464  0.00  0.00    +0.013 C 
ATOM     21  C   UNL     1     -15.296   3.579  31.238  0.00  0.00    +0.001 C 
ATOM     22  C   UNL     1     -14.950   1.450  32.540  0.00  0.00    +0.001 C 
ATOM     23  C   UNL     1     -14.955   2.974  32.594  0.00  0.00    +0.000 C 
ENDBRANCH  20  17
ENDBRANCH  13   9
BRANCH  14   6
ATOM      6  O   UNL     1     -18.009   3.218  23.540  0.00  0.00    -0.442 OA
BRANCH   6  24
ATOM      8  O   UNL     1     -17.760   3.189  21.267  0.00  0.00    -0.226 OA
ATOM     10  N   UNL     1     -16.746   4.830  22.594  0.00  0.00    -0.251 N 
ATOM     24  C   UNL     1     -17.516   3.709  22.348  0.00  0.00    +0.405 C 
ATOM     33  H   UNL     1     -16.661   5.111  23.567  0.00  0.00    +0.158 HD
BRANCH  10  25
ATOM     25  C   UNL     1     -16.060   5.635  21.658  0.00  0.00    +0.037 A 
ATOM     26  C   UNL     1     -14.681   5.810  21.765  0.00  0.00    +0.035 A 
ATOM     27  C   UNL     1     -16.763   6.256  20.625  0.00  0.00    +0.023 A 
ATOM     28  C   UNL     1     -14.004   6.607  20.842  0.00  0.00    +0.057 A 
ATOM     29  C   UNL     1     -16.086   7.052  19.700  0.00  0.00    +0.002 A 
ATOM     30  C   UNL     1     -14.707   7.227  19.809  0.00  0.00    +0.012 A 
BRANCH  28  31
ATOM      1  F   UNL     1     -12.170   7.975  21.543  0.00  0.00    -0.166 F 
ATOM      2  F   UNL     1     -11.911   5.828  21.699  0.00  0.00    -0.166 F 
ATOM      3  F   UNL     1     -11.902   6.782  19.744  0.00  0.00    -0.166 F 
ATOM     31  C   UNL     1     -12.529   6.795  20.957  0.00  0.00    +0.417 C 
ENDBRANCH  28  31
ENDBRANCH  10  25
ENDBRANCH   6  24
ENDBRANCH  14   6
TORSDOF 6
ENDMDL
MODEL 3
REMARK VINA RESULT:      -7.5     30.360     35.917
REMARK  Name = 11883392
REMARK  6 active torsions:
REMARK  status: ('A' for Active; 'I' for Inactive)
REMARK    1  A    between atoms: O_6  and  C_14
REMARK    2  A    between atoms: O_6  and  C_24
REMARK    3  A    between atoms: N_9  and  C_13
REMARK    4  A    between atoms: N_10  and  C_25
REMARK    5  A    between atoms: C_17  and  C_20
REMARK    6  A    between atoms: C_28  and  C_31
REMARK                            x       y       z     vdW  Elec       q    Type
REMARK                         _______ _______ _______ _____ _____    ______ ____
ROOT
ATOM      4  O   UNL     1      14.106   7.642   3.838  0.00  0.00    -0.368 OA
ATOM      5  O   UNL     1      16.753   9.187   3.732  0.00  0.00    -0.368 OA
ATOM     11  C   UNL     1      16.437   7.810   3.435  0.00  0.00    +0.173 C 
ATOM     12  C   UNL     1      15.386   7.376   4.437  0.00  0.00    +0.192 C 
ATOM     13  C   UNL     1      15.729   7.716   2.103  0.00  0.00    +0.130 C 
ATOM     14  C   UNL     1      15.656   8.288   5.610  0.00  0.00    +0.235 C 
ATOM     15  C   UNL     1      14.296   8.053   2.476  0.00  0.00    +0.185 C 
ATOM     16  C   UNL     1      16.060   9.574   4.927  0.00  0.00    +0.207 C 
ENDROOT
BRANCH  13   9
ATOM      7  O   UNL     1      15.198   6.899  -0.632  0.00  0.00    -0.276 OA
ATOM      9  N   UNL     1      15.830   6.388   1.551  0.00  0.00    -0.307 N 
ATOM     20  C   UNL     1      15.554   6.093   0.224  0.00  0.00    +0.216 C 
ATOM     32  H   UNL     1      16.183   5.651   2.155  0.00  0.00    +0.149 HD
BRANCH  20  17
ATOM     17  C   UNL     1      15.763   4.641  -0.094  0.00  0.00    +0.075 C 
ATOM     18  C   UNL     1      15.263   3.751   1.047  0.00  0.00    +0.013 C 
ATOM     19  C   UNL     1      15.119   4.298  -1.438  0.00  0.00    +0.013 C 
ATOM     21  C   UNL     1      13.741   3.620   1.092  0.00  0.00    +0.001 C 
ATOM     22  C   UNL     1      13.597   4.178  -1.360  0.00  0.00    +0.001 C 
ATOM     23  C   UNL     1      13.165   3.216  -0.260  0.00  0.00    +0.000 C 
ENDBRANCH  20  17
ENDBRANCH  13   9
BRANCH  14   6
ATOM      6  O   UNL     1      14.541   8.462   6.456  0.00  0.00    -0.442 OA
BRANCH   6  24
ATOM      8  O   UNL     1      14.347   6.400   7.425  0.00  0.00    -0.226 OA
ATOM     10  N   UNL     1      12.538   7.430   6.355  0.00  0.00    -0.251 N 
ATOM     24  C   UNL     1      13.840   7.327   6.806  0.00  0.00    +0.405 C 
ATOM     33  H   UNL     1      12.302   8.284   5.855  0.00  0.00    +0.158 HD
BRANCH  10  25
ATOM     25  C   UNL     1      11.490   6.494   6.500  0.00  0.00    +0.037 A 
ATOM     26  C   UNL     1      11.007   6.177   7.769  0.00  0.00    +0.035 A 
ATOM     27  C   UNL     1      10.938   5.885   5.372  0.00  0.00    +0.023 A 
ATOM     28  C   UNL     1       9.974   5.252   7.912  0.00  0.00    +0.057 A 
ATOM     29  C   UNL     1       9.903   4.960   5.515  0.00  0.00    +0.002 A 
ATOM     30  C   UNL     1       9.421   4.644   6.785  0.00  0.00    +0.012 A 
BRANCH  28  31
ATOM      1  F   UNL     1       8.973   3.639   9.370  0.00  0.00    -0.166 F 
ATOM      2  F   UNL     1      10.399   5.014  10.254  0.00  0.00    -0.166 F 
ATOM      3  F   UNL     1       8.432   5.726   9.659  0.00  0.00    -0.166 F 
ATOM     31  C   UNL     1       9.457   4.913   9.269  0.00  0.00    +0.417 C 
ENDBRANCH  28  31
ENDBRANCH  10  25
ENDBRANCH   6  24
ENDBRANCH  14   6
TORSDOF 6
ENDMDL
MODEL 4
REMARK VINA RESULT:      -7.3     16.453     19.104
REMARK  Name = 11883392
REMARK  6 active torsions:
REMARK  status: ('A' for Active; 'I' for Inactive)
REMARK    1  A    between atoms: O_6  and  C_14
REMARK    2  A    between atoms: O_6  and  C_24
REMARK    3  A    between atoms: N_9  and  C_13
REMARK    4  A    between atoms: N_10  and  C_25
REMARK    5  A    between atoms: C_17  and  C_20
REMARK    6  A    between atoms: C_28  and  C_31
REMARK                            x       y       z     vdW  Elec       q    Type
REMARK                         _______ _______ _______ _____ _____    ______ ____
ROOT
ATOM      4  O   UNL     1     -12.657  -8.222  15.010  0.00  0.00    -0.368 OA
ATOM      5  O   UNL     1     -11.214  -5.780  16.175  0.00  0.00    -0.368 OA
ATOM     11  C   UNL     1     -11.572  -6.122  14.819  0.00  0.00    +0.173 C 
ATOM     12  C   UNL     1     -11.393  -7.621  14.683  0.00  0.00    +0.192 C 
ATOM     13  C   UNL     1     -13.053  -5.913  14.606  0.00  0.00    +0.130 C 
ATOM     14  C   UNL     1     -10.344  -7.921  15.728  0.00  0.00    +0.235 C 
ATOM     15  C   UNL     1     -13.644  -7.192  15.174  0.00  0.00    +0.185 C 
ATOM     16  C   UNL     1     -10.705  -6.951  16.830  0.00  0.00    +0.207 C 
ENDROOT
BRANCH  13   9
ATOM      7  O   UNL     1     -12.896  -3.495  13.005  0.00  0.00    -0.276 OA
ATOM      9  N   UNL     1     -13.364  -5.768  13.205  0.00  0.00    -0.307 N 
ATOM     20  C   UNL     1     -13.258  -4.565  12.523  0.00  0.00    +0.216 C 
ATOM     32  H   UNL     1     -13.610  -6.606  12.687  0.00  0.00    +0.149 HD
BRANCH  20  17
ATOM     17  C   UNL     1     -13.617  -4.698  11.072  0.00  0.00    +0.075 C 
ATOM     18  C   UNL     1     -13.073  -3.520  10.260  0.00  0.00    +0.013 C 
ATOM     19  C   UNL     1     -13.149  -6.053  10.535  0.00  0.00    +0.013 C 
ATOM     21  C   UNL     1     -11.570  -3.608   9.994  0.00  0.00    +0.001 C 
ATOM     22  C   UNL     1     -11.643  -6.109  10.284  0.00  0.00    +0.001 C 
ATOM     23  C   UNL     1     -11.176  -4.956   9.403  0.00  0.00    +0.000 C 
ENDBRANCH  20  17
ENDBRANCH  13   9
BRANCH  14   6
ATOM      6  O   UNL     1     -10.358  -9.258  16.171  0.00  0.00    -0.442 OA
BRANCH   6  24
ATOM      8  O   UNL     1      -9.234 -10.970  15.152  0.00  0.00    -0.226 OA
ATOM     10  N   UNL     1      -8.165  -9.509  16.637  0.00  0.00    -0.251 N 
ATOM     24  C   UNL     1      -9.231 -10.012  15.916  0.00  0.00    +0.405 C 
ATOM     33  H   UNL     1      -8.360  -8.700  17.222  0.00  0.00    +0.158 HD
BRANCH  10  25
ATOM     25  C   UNL     1      -6.834  -9.982  16.666  0.00  0.00    +0.037 A 
ATOM     26  C   UNL     1      -6.367 -10.689  17.774  0.00  0.00    +0.035 A 
ATOM     27  C   UNL     1      -5.985  -9.742  15.585  0.00  0.00    +0.023 A 
ATOM     28  C   UNL     1      -5.053 -11.153  17.802  0.00  0.00    +0.057 A 
ATOM     29  C   UNL     1      -4.671 -10.208  15.612  0.00  0.00    +0.002 A 
ATOM     30  C   UNL     1      -4.205 -10.914  16.721  0.00  0.00    +0.012 A 
BRANCH  28  31
ATOM      1  F   UNL     1      -5.247 -11.651  20.135  0.00  0.00    -0.166 F 
ATOM      2  F   UNL     1      -4.610 -13.265  18.835  0.00  0.00    -0.166 F 
ATOM      3  F   UNL     1      -3.249 -11.628  19.277  0.00  0.00    -0.166 F 
ATOM     31  C   UNL     1      -4.553 -11.909  18.988  0.00  0.00    +0.417 C 
ENDBRANCH  28  31
ENDBRANCH  10  25
ENDBRANCH   6  24
ENDBRANCH  14   6
TORSDOF 6
ENDMDL
MODEL 5
REMARK VINA RESULT:      -7.3     18.421     19.949
REMARK  Name = 11883392
REMARK  6 active torsions:
REMARK  status: ('A' for Active; 'I' for Inactive)
REMARK    1  A    between atoms: O_6  and  C_14
REMARK    2  A    between atoms: O_6  and  C_24
REMARK    3  A    between atoms: N_9  and  C_13
REMARK    4  A    between atoms: N_10  and  C_25
REMARK    5  A    between atoms: C_17  and  C_20
REMARK    6  A    between atoms: C_28  and  C_31
REMARK                            x       y       z     vdW  Elec       q    Type
REMARK                         _______ _______ _______ _____ _____    ______ ____
ROOT
ATOM      4  O   UNL     1      -6.785 -11.558  17.058  0.00  0.00    -0.368 OA
ATOM      5  O   UNL     1      -6.286 -11.158  20.058  0.00  0.00    -0.368 OA
ATOM     11  C   UNL     1      -6.818 -10.272  19.050  0.00  0.00    +0.173 C 
ATOM     12  C   UNL     1      -6.051 -10.549  17.773  0.00  0.00    +0.192 C 
ATOM     13  C   UNL     1      -8.238 -10.663  18.712  0.00  0.00    +0.130 C 
ATOM     14  C   UNL     1      -4.733 -11.076  18.290  0.00  0.00    +0.235 C 
ATOM     15  C   UNL     1      -8.033 -11.799  17.725  0.00  0.00    +0.185 C 
ATOM     16  C   UNL     1      -5.161 -11.861  19.510  0.00  0.00    +0.207 C 
ENDROOT
BRANCH  13   9
ATOM      7  O   UNL     1     -11.116 -10.334  18.504  0.00  0.00    -0.276 OA
ATOM      9  N   UNL     1      -8.953  -9.565  18.109  0.00  0.00    -0.307 N 
ATOM     20  C   UNL     1     -10.337  -9.496  18.057  0.00  0.00    +0.216 C 
ATOM     32  H   UNL     1      -8.408  -8.780  17.766  0.00  0.00    +0.149 HD
BRANCH  20  17
ATOM     17  C   UNL     1     -10.821  -8.237  17.399  0.00  0.00    +0.075 C 
ATOM     18  C   UNL     1      -9.826  -7.750  16.343  0.00  0.00    +0.013 C 
ATOM     19  C   UNL     1     -12.228  -8.445  16.834  0.00  0.00    +0.013 C 
ATOM     21  C   UNL     1      -9.871  -8.558  15.047  0.00  0.00    +0.001 C 
ATOM     22  C   UNL     1     -12.240  -9.260  15.541  0.00  0.00    +0.001 C 
ATOM     23  C   UNL     1     -11.289  -8.678  14.501  0.00  0.00    +0.000 C 
ENDBRANCH  20  17
ENDBRANCH  13   9
BRANCH  14   6
ATOM      6  O   UNL     1      -4.042 -11.877  17.359  0.00  0.00    -0.442 OA
BRANCH   6  24
ATOM      8  O   UNL     1      -2.525 -10.446  16.421  0.00  0.00    -0.226 OA
ATOM     10  N   UNL     1      -4.085 -11.609  15.120  0.00  0.00    -0.251 N 
ATOM     24  C   UNL     1      -3.458 -11.228  16.291  0.00  0.00    +0.405 C 
ATOM     33  H   UNL     1      -4.847 -12.276  15.215  0.00  0.00    +0.158 HD
BRANCH  10  25
ATOM     25  C   UNL     1      -3.800 -11.184  13.803  0.00  0.00    +0.037 A 
ATOM     26  C   UNL     1      -4.680 -10.330  13.138  0.00  0.00    +0.035 A 
ATOM     27  C   UNL     1      -2.637 -11.620  13.166  0.00  0.00    +0.023 A 
ATOM     28  C   UNL     1      -4.399  -9.913  11.838  0.00  0.00    +0.057 A 
ATOM     29  C   UNL     1      -2.355 -11.202  11.866  0.00  0.00    +0.002 A 
ATOM     30  C   UNL     1      -3.236 -10.348  11.202  0.00  0.00    +0.012 A 
BRANCH  28  31
ATOM      1  F   UNL     1      -4.716  -8.000  10.435  0.00  0.00    -0.166 F 
ATOM      2  F   UNL     1      -6.124  -9.633  10.205  0.00  0.00    -0.166 F 
ATOM      3  F   UNL     1      -6.206  -8.373  11.976  0.00  0.00    -0.166 F 
ATOM     31  C   UNL     1      -5.339  -9.000  11.126  0.00  0.00    +0.417 C 
ENDBRANCH  28  31
ENDBRANCH  10  25
ENDBRANCH   6  24
ENDBRANCH  14   6
TORSDOF 6
ENDMDL
MODEL 6
REMARK VINA RESULT:      -7.2     16.237     18.882
REMARK  Name = 11883392
REMARK  6 active torsions:
REMARK  status: ('A' for Active; 'I' for Inactive)
REMARK    1  A    between atoms: O_6  and  C_14
REMARK    2  A    between atoms: O_6  and  C_24
REMARK    3  A    between atoms: N_9  and  C_13
REMARK    4  A    between atoms: N_10  and  C_25
REMARK    5  A    between atoms: C_17  and  C_20
REMARK    6  A    between atoms: C_28  and  C_31
REMARK                            x       y       z     vdW  Elec       q    Type
REMARK                         _______ _______ _______ _____ _____    ______ ____
ROOT
ATOM      4  O   UNL     1     -12.230  -7.955  14.539  0.00  0.00    -0.368 OA
ATOM      5  O   UNL     1     -11.120  -6.053  16.672  0.00  0.00    -0.368 OA
ATOM     11  C   UNL     1     -11.026  -6.033  15.232  0.00  0.00    +0.173 C 
ATOM     12  C   UNL     1     -10.897  -7.474  14.781  0.00  0.00    +0.192 C 
ATOM     13  C   UNL     1     -12.339  -5.582  14.633  0.00  0.00    +0.130 C 
ATOM     14  C   UNL     1     -10.273  -8.139  15.986  0.00  0.00    +0.235 C 
ATOM     15  C   UNL     1     -13.156  -6.863  14.647  0.00  0.00    +0.185 C 
ATOM     16  C   UNL     1     -10.924  -7.398  17.132  0.00  0.00    +0.207 C 
ENDROOT
BRANCH  13   9
ATOM      7  O   UNL     1     -13.848  -3.486  13.307  0.00  0.00    -0.276 OA
ATOM      9  N   UNL     1     -12.158  -5.089  13.291  0.00  0.00    -0.307 N 
ATOM     20  C   UNL     1     -12.933  -4.079  12.741  0.00  0.00    +0.216 C 
ATOM     32  H   UNL     1     -11.383  -5.462  12.751  0.00  0.00    +0.149 HD
BRANCH  20  17
ATOM     17  C   UNL     1     -12.519  -3.740  11.339  0.00  0.00    +0.075 C 
ATOM     18  C   UNL     1     -11.873  -4.945  10.650  0.00  0.00    +0.013 C 
ATOM     19  C   UNL     1     -13.710  -3.181  10.558  0.00  0.00    +0.013 C 
ATOM     21  C   UNL     1     -12.882  -6.000  10.198  0.00  0.00    +0.001 C 
ATOM     22  C   UNL     1     -14.702  -4.259  10.125  0.00  0.00    +0.001 C 
ATOM     23  C   UNL     1     -14.010  -5.391   9.374  0.00  0.00    +0.000 C 
ENDBRANCH  20  17
ENDBRANCH  13   9
BRANCH  14   6
ATOM      6  O   UNL     1     -10.508  -9.527  16.048  0.00  0.00    -0.442 OA
BRANCH   6  24
ATOM      8  O   UNL     1      -9.360 -11.499  15.898  0.00  0.00    -0.226 OA
ATOM     10  N   UNL     1      -8.452  -9.626  16.970  0.00  0.00    -0.251 N 
ATOM     24  C   UNL     1      -9.415 -10.336  16.277  0.00  0.00    +0.405 C 
ATOM     33  H   UNL     1      -8.682  -8.662  17.198  0.00  0.00    +0.158 HD
BRANCH  10  25
ATOM     25  C   UNL     1      -7.185 -10.075  17.404  0.00  0.00    +0.037 A 
ATOM     26  C   UNL     1      -6.136 -10.196  16.492  0.00  0.00    +0.035 A 
ATOM     27  C   UNL     1      -6.982 -10.398  18.746  0.00  0.00    +0.023 A 
ATOM     28  C   UNL     1      -4.886 -10.640  16.921  0.00  0.00    +0.057 A 
ATOM     29  C   UNL     1      -5.731 -10.842  19.176  0.00  0.00    +0.002 A 
ATOM     30  C   UNL     1      -4.683 -10.962  18.263  0.00  0.00    +0.012 A 
BRANCH  28  31
ATOM      1  F   UNL     1      -3.384 -12.061  15.715  0.00  0.00    -0.166 F 
ATOM      2  F   UNL     1      -4.052 -10.258  14.712  0.00  0.00    -0.166 F 
ATOM      3  F   UNL     1      -2.635 -10.122  16.356  0.00  0.00    -0.166 F 
ATOM     31  C   UNL     1      -3.765 -10.770  15.946  0.00  0.00    +0.417 C 
ENDBRANCH  28  31
ENDBRANCH  10  25
ENDBRANCH   6  24
ENDBRANCH  14   6
TORSDOF 6
ENDMDL
MODEL 7
REMARK VINA RESULT:      -7.1     18.083     20.317
REMARK  Name = 11883392
REMARK  6 active torsions:
REMARK  status: ('A' for Active; 'I' for Inactive)
REMARK    1  A    between atoms: O_6  and  C_14
REMARK    2  A    between atoms: O_6  and  C_24
REMARK    3  A    between atoms: N_9  and  C_13
REMARK    4  A    between atoms: N_10  and  C_25
REMARK    5  A    between atoms: C_17  and  C_20
REMARK    6  A    between atoms: C_28  and  C_31
REMARK                            x       y       z     vdW  Elec       q    Type
REMARK                         _______ _______ _______ _____ _____    ______ ____
ROOT
ATOM      4  O   UNL     1      -6.129 -10.224  17.099  0.00  0.00    -0.368 OA
ATOM      5  O   UNL     1      -4.039 -12.117  18.305  0.00  0.00    -0.368 OA
ATOM     11  C   UNL     1      -4.721 -12.131  17.033  0.00  0.00    +0.173 C 
ATOM     12  C   UNL     1      -6.135 -11.649  17.287  0.00  0.00    +0.192 C 
ATOM     13  C   UNL     1      -4.138 -11.077  16.120  0.00  0.00    +0.130 C 
ATOM     14  C   UNL     1      -6.352 -12.022  18.735  0.00  0.00    +0.235 C 
ATOM     15  C   UNL     1      -4.852  -9.819  16.584  0.00  0.00    +0.185 C 
ATOM     16  C   UNL     1      -4.984 -11.784  19.333  0.00  0.00    +0.207 C 
ENDROOT
BRANCH  13   9
ATOM      7  O   UNL     1      -2.580 -10.304  13.794  0.00  0.00    -0.276 OA
ATOM      9  N   UNL     1      -4.427 -11.365  14.737  0.00  0.00    -0.307 N 
ATOM     20  C   UNL     1      -3.619 -10.952  13.689  0.00  0.00    +0.216 C 
ATOM     32  H   UNL     1      -5.229 -11.955  14.536  0.00  0.00    +0.149 HD
BRANCH  20  17
ATOM     17  C   UNL     1      -4.135 -11.407  12.355  0.00  0.00    +0.075 C 
ATOM     18  C   UNL     1      -5.425 -10.672  11.984  0.00  0.00    +0.013 C 
ATOM     19  C   UNL     1      -3.045 -11.264  11.291  0.00  0.00    +0.013 C 
ATOM     21  C   UNL     1      -5.192  -9.237  11.510  0.00  0.00    +0.001 C 
ATOM     22  C   UNL     1      -2.833  -9.818  10.842  0.00  0.00    +0.001 C 
ATOM     23  C   UNL     1      -4.142  -9.167  10.408  0.00  0.00    +0.000 C 
ENDBRANCH  20  17
ENDBRANCH  13   9
BRANCH  14   6
ATOM      6  O   UNL     1      -7.350 -11.255  19.370  0.00  0.00    -0.442 OA
BRANCH   6  24
ATOM      8  O   UNL     1      -9.199 -12.179  18.392  0.00  0.00    -0.226 OA
ATOM     10  N   UNL     1      -8.945  -9.861  18.597  0.00  0.00    -0.251 N 
ATOM     24  C   UNL     1      -8.576 -11.185  18.742  0.00  0.00    +0.405 C 
ATOM     33  H   UNL     1      -8.290  -9.170  18.954  0.00  0.00    +0.158 HD
BRANCH  10  25
ATOM     25  C   UNL     1     -10.122  -9.346  18.009  0.00  0.00    +0.037 A 
ATOM     26  C   UNL     1     -10.046  -8.283  17.109  0.00  0.00    +0.035 A 
ATOM     27  C   UNL     1     -11.362  -9.901  18.330  0.00  0.00    +0.023 A 
ATOM     28  C   UNL     1     -11.209  -7.774  16.531  0.00  0.00    +0.057 A 
ATOM     29  C   UNL     1     -12.524  -9.393  17.750  0.00  0.00    +0.002 A 
ATOM     30  C   UNL     1     -12.448  -8.329  16.851  0.00  0.00    +0.012 A 
BRANCH  28  31
ATOM      1  F   UNL     1     -11.509  -6.965  14.299  0.00  0.00    -0.166 F 
ATOM      2  F   UNL     1     -11.915  -5.574  15.912  0.00  0.00    -0.166 F 
ATOM      3  F   UNL     1      -9.864  -6.135  15.455  0.00  0.00    -0.166 F 
ATOM     31  C   UNL     1     -11.128  -6.637  15.569  0.00  0.00    +0.417 C 
ENDBRANCH  28  31
ENDBRANCH  10  25
ENDBRANCH   6  24
ENDBRANCH  14   6
TORSDOF 6
ENDMDL
MODEL 8
REMARK VINA RESULT:      -7.0      4.419      7.525
REMARK  Name = 11883392
REMARK  6 active torsions:
REMARK  status: ('A' for Active; 'I' for Inactive)
REMARK    1  A    between atoms: O_6  and  C_14
REMARK    2  A    between atoms: O_6  and  C_24
REMARK    3  A    between atoms: N_9  and  C_13
REMARK    4  A    between atoms: N_10  and  C_25
REMARK    5  A    between atoms: C_17  and  C_20
REMARK    6  A    between atoms: C_28  and  C_31
REMARK                            x       y       z     vdW  Elec       q    Type
REMARK                         _______ _______ _______ _____ _____    ______ ____
ROOT
ATOM      4  O   UNL     1     -16.079   3.798  32.076  0.00  0.00    -0.368 OA
ATOM      5  O   UNL     1     -13.258   2.631  32.372  0.00  0.00    -0.368 OA
ATOM     11  C   UNL     1     -13.713   3.965  32.060  0.00  0.00    +0.173 C 
ATOM     12  C   UNL     1     -14.946   3.815  31.191  0.00  0.00    +0.192 C 
ATOM     13  C   UNL     1     -14.229   4.643  33.308  0.00  0.00    +0.130 C 
ATOM     14  C   UNL     1     -14.725   2.471  30.538  0.00  0.00    +0.235 C 
ATOM     15  C   UNL     1     -15.642   4.094  33.411  0.00  0.00    +0.185 C 
ATOM     16  C   UNL     1     -14.055   1.687  31.644  0.00  0.00    +0.207 C 
ENDROOT
BRANCH  13   9
ATOM      7  O   UNL     1     -13.427   6.620  35.277  0.00  0.00    -0.276 OA
ATOM      9  N   UNL     1     -14.233   6.077  33.160  0.00  0.00    -0.307 N 
ATOM     20  C   UNL     1     -13.829   6.946  34.163  0.00  0.00    +0.216 C 
ATOM     32  H   UNL     1     -14.484   6.457  32.252  0.00  0.00    +0.149 HD
BRANCH  20  17
ATOM     17  C   UNL     1     -13.907   8.383  33.738  0.00  0.00    +0.075 C 
ATOM     18  C   UNL     1     -13.147   9.287  34.713  0.00  0.00    +0.013 C 
ATOM     19  C   UNL     1     -13.424   8.534  32.294  0.00  0.00    +0.013 C 
ATOM     21  C   UNL     1     -11.630   9.221  34.546  0.00  0.00    +0.001 C 
ATOM     22  C   UNL     1     -11.904   8.459  32.160  0.00  0.00    +0.001 C 
ATOM     23  C   UNL     1     -11.208   9.440  33.098  0.00  0.00    +0.000 C 
ENDBRANCH  20  17
ENDBRANCH  13   9
BRANCH  14   6
ATOM      6  O   UNL     1     -15.914   1.858  30.096  0.00  0.00    -0.442 OA
BRANCH   6  24
ATOM      8  O   UNL     1     -15.716   0.353  28.385  0.00  0.00    -0.226 OA
ATOM     10  N   UNL     1     -16.344   2.575  28.002  0.00  0.00    -0.251 N 
ATOM     24  C   UNL     1     -15.969   1.488  28.768  0.00  0.00    +0.405 C 
ATOM     33  H   UNL     1     -16.514   3.443  28.505  0.00  0.00    +0.158 HD
BRANCH  10  25
ATOM     25  C   UNL     1     -16.521   2.632  26.601  0.00  0.00    +0.037 A 
ATOM     26  C   UNL     1     -15.787   3.543  25.841  0.00  0.00    +0.035 A 
ATOM     27  C   UNL     1     -17.430   1.777  25.977  0.00  0.00    +0.023 A 
ATOM     28  C   UNL     1     -15.963   3.600  24.459  0.00  0.00    +0.057 A 
ATOM     29  C   UNL     1     -17.605   1.833  24.595  0.00  0.00    +0.002 A 
ATOM     30  C   UNL     1     -16.871   2.744  23.835  0.00  0.00    +0.012 A 
BRANCH  28  31
ATOM      1  F   UNL     1     -15.266   4.360  22.299  0.00  0.00    -0.166 F 
ATOM      2  F   UNL     1     -15.566   5.871  23.825  0.00  0.00    -0.166 F 
ATOM      3  F   UNL     1     -13.845   4.546  23.936  0.00  0.00    -0.166 F 
ATOM     31  C   UNL     1     -15.179   4.574  23.646  0.00  0.00    +0.417 C 
ENDBRANCH  28  31
ENDBRANCH  10  25
ENDBRANCH   6  24
ENDBRANCH  14   6
TORSDOF 6
ENDMDL
MODEL 9
REMARK VINA RESULT:      -7.0     41.354     43.164
REMARK  Name = 11883392
REMARK  6 active torsions:
REMARK  status: ('A' for Active; 'I' for Inactive)
REMARK    1  A    between atoms: O_6  and  C_14
REMARK    2  A    between atoms: O_6  and  C_24
REMARK    3  A    between atoms: N_9  and  C_13
REMARK    4  A    between atoms: N_10  and  C_25
REMARK    5  A    between atoms: C_17  and  C_20
REMARK    6  A    between atoms: C_28  and  C_31
REMARK                            x       y       z     vdW  Elec       q    Type
REMARK                         _______ _______ _______ _____ _____    ______ ____
ROOT
ATOM      4  O   UNL     1      19.596  -8.423  -0.093  0.00  0.00    -0.368 OA
ATOM      5  O   UNL     1      21.357  -9.571   2.139  0.00  0.00    -0.368 OA
ATOM     11  C   UNL     1      19.926  -9.423   2.032  0.00  0.00    +0.173 C 
ATOM     12  C   UNL     1      19.673  -8.115   1.309  0.00  0.00    +0.192 C 
ATOM     13  C   UNL     1      19.365 -10.469   1.095  0.00  0.00    +0.130 C 
ATOM     14  C   UNL     1      20.911  -7.315   1.640  0.00  0.00    +0.235 C 
ATOM     15  C   UNL     1      19.616  -9.847  -0.268  0.00  0.00    +0.185 C 
ATOM     16  C   UNL     1      21.985  -8.379   1.647  0.00  0.00    +0.207 C 
ENDROOT
BRANCH  13   9
ATOM      7  O   UNL     1      17.851 -12.912   0.683  0.00  0.00    -0.276 OA
ATOM      9  N   UNL     1      17.957 -10.676   1.326  0.00  0.00    -0.307 N 
ATOM     20  C   UNL     1      17.319 -11.886   1.099  0.00  0.00    +0.216 C 
ATOM     32  H   UNL     1      17.428  -9.911   1.735  0.00  0.00    +0.149 HD
BRANCH  20  17
ATOM     17  C   UNL     1      15.859 -11.835   1.445  0.00  0.00    +0.075 C 
ATOM     18  C   UNL     1      15.266 -13.244   1.535  0.00  0.00    +0.013 C 
ATOM     19  C   UNL     1      15.648 -11.022   2.724  0.00  0.00    +0.013 C 
ATOM     21  C   UNL     1      15.642 -13.981   2.820  0.00  0.00    +0.001 C 
ATOM     22  C   UNL     1      16.038 -11.784   3.989  0.00  0.00    +0.001 C 
ATOM     23  C   UNL     1      15.352 -13.144   4.060  0.00  0.00    +0.000 C 
ENDBRANCH  20  17
ENDBRANCH  13   9
BRANCH  14   6
ATOM      6  O   UNL     1      21.184  -6.291   0.711  0.00  0.00    -0.442 OA
BRANCH   6  24
ATOM      8  O   UNL     1      19.642  -4.727   1.350  0.00  0.00    -0.226 OA
ATOM     10  N   UNL     1      19.889  -5.366  -0.889  0.00  0.00    -0.251 N 
ATOM     24  C   UNL     1      20.171  -5.386   0.464  0.00  0.00    +0.405 C 
ATOM     33  H   UNL     1      20.441  -5.991  -1.472  0.00  0.00    +0.158 HD
BRANCH  10  25
ATOM     25  C   UNL     1      18.926  -4.585  -1.565  0.00  0.00    +0.037 A 
ATOM     26  C   UNL     1      17.839  -5.200  -2.187  0.00  0.00    +0.035 A 
ATOM     27  C   UNL     1      19.062  -3.197  -1.611  0.00  0.00    +0.023 A 
ATOM     28  C   UNL     1      16.890  -4.428  -2.855  0.00  0.00    +0.057 A 
ATOM     29  C   UNL     1      18.111  -2.425  -2.278  0.00  0.00    +0.002 A 
ATOM     30  C   UNL     1      17.025  -3.040  -2.900  0.00  0.00    +0.012 A 
BRANCH  28  31
ATOM      1  F   UNL     1      15.673  -6.435  -3.322  0.00  0.00    -0.166 F 
ATOM      2  F   UNL     1      14.517  -4.614  -3.097  0.00  0.00    -0.166 F 
ATOM      3  F   UNL     1      15.733  -4.913  -4.875  0.00  0.00    -0.166 F 
ATOM     31  C   UNL     1      15.728  -5.085  -3.521  0.00  0.00    +0.417 C 
ENDBRANCH  28  31
ENDBRANCH  10  25
ENDBRANCH   6  24
ENDBRANCH  14   6
TORSDOF 6
ENDMDL
MODEL 10
REMARK VINA RESULT:      -7.0     20.134     21.589
REMARK  Name = 11883392
REMARK  6 active torsions:
REMARK  status: ('A' for Active; 'I' for Inactive)
REMARK    1  A    between atoms: O_6  and  C_14
REMARK    2  A    between atoms: O_6  and  C_24
REMARK    3  A    between atoms: N_9  and  C_13
REMARK    4  A    between atoms: N_10  and  C_25
REMARK    5  A    between atoms: C_17  and  C_20
REMARK    6  A    between atoms: C_28  and  C_31
REMARK                            x       y       z     vdW  Elec       q    Type
REMARK                         _______ _______ _______ _____ _____    ______ ____
ROOT
ATOM      4  O   UNL     1      -4.758 -11.888  13.321  0.00  0.00    -0.368 OA
ATOM      5  O   UNL     1      -1.849 -11.121  13.914  0.00  0.00    -0.368 OA
ATOM     11  C   UNL     1      -3.097 -10.613  14.433  0.00  0.00    +0.173 C 
ATOM     12  C   UNL     1      -4.085 -10.619  13.283  0.00  0.00    +0.192 C 
ATOM     13  C   UNL     1      -3.686 -11.593  15.422  0.00  0.00    +0.130 C 
ATOM     14  C   UNL     1      -3.183 -10.499  12.077  0.00  0.00    +0.235 C 
ATOM     15  C   UNL     1      -4.375 -12.594  14.510  0.00  0.00    +0.185 C 
ATOM     16  C   UNL     1      -1.979 -11.311  12.498  0.00  0.00    +0.207 C 
ENDROOT
BRANCH  13   9
ATOM      7  O   UNL     1      -3.876 -11.857  18.307  0.00  0.00    -0.276 OA
ATOM      9  N   UNL     1      -4.628 -10.946  16.300  0.00  0.00    -0.307 N 
ATOM     20  C   UNL     1      -4.642 -11.136  17.673  0.00  0.00    +0.216 C 
ATOM     32  H   UNL     1      -5.269 -10.272  15.890  0.00  0.00    +0.149 HD
BRANCH  20  17
ATOM     17  C   UNL     1      -5.708 -10.325  18.351  0.00  0.00    +0.075 C 
ATOM     18  C   UNL     1      -6.898 -10.091  17.418  0.00  0.00    +0.013 C 
ATOM     19  C   UNL     1      -6.112 -10.985  19.672  0.00  0.00    +0.013 C 
ATOM     21  C   UNL     1      -7.798 -11.317  17.261  0.00  0.00    +0.001 C 
ATOM     22  C   UNL     1      -7.006 -12.209  19.481  0.00  0.00    +0.001 C 
ATOM     23  C   UNL     1      -8.216 -11.890  18.610  0.00  0.00    +0.000 C 
ENDBRANCH  20  17
ENDBRANCH  13   9
BRANCH  14   6
ATOM      6  O   UNL     1      -3.764 -10.988  10.889  0.00  0.00    -0.442 OA
BRANCH   6  24
ATOM      8  O   UNL     1      -3.407  -9.081   9.678  0.00  0.00    -0.226 OA
ATOM     10  N   UNL     1      -5.308 -10.408   9.350  0.00  0.00    -0.251 N 
ATOM     24  C   UNL     1      -4.105 -10.054   9.932  0.00  0.00    +0.405 C 
ATOM     33  H   UNL     1      -5.741 -11.260   9.697  0.00  0.00    +0.158 HD
BRANCH  10  25
ATOM     25  C   UNL     1      -6.013  -9.731   8.330  0.00  0.00    +0.037 A 
ATOM     26  C   UNL     1      -6.799  -8.622   8.643  0.00  0.00    +0.035 A 
ATOM     27  C   UNL     1      -5.922 -10.171   7.009  0.00  0.00    +0.023 A 
ATOM     28  C   UNL     1      -7.495  -7.954   7.636  0.00  0.00    +0.057 A 
ATOM     29  C   UNL     1      -6.618  -9.503   6.002  0.00  0.00    +0.002 A 
ATOM     30  C   UNL     1      -7.404  -8.394   6.315  0.00  0.00    +0.012 A 
BRANCH  28  31
ATOM      1  F   UNL     1      -9.120  -6.945   9.074  0.00  0.00    -0.166 F 
ATOM      2  F   UNL     1      -7.612  -5.639   8.224  0.00  0.00    -0.166 F 
ATOM      3  F   UNL     1      -9.195  -6.434   6.961  0.00  0.00    -0.166 F 
ATOM     31  C   UNL     1      -8.337  -6.769   7.969  0.00  0.00    +0.417 C 
ENDBRANCH  28  31
ENDBRANCH  10  25
ENDBRANCH   6  24
ENDBRANCH  14   6
TORSDOF 6
ENDMDL
