MODEL 1
REMARK VINA RESULT:      -6.4      0.000      0.000
REMARK  Name = 11867215
REMARK  6 active torsions:
REMARK  status: ('A' for Active; 'I' for Inactive)
REMARK    1  A    between atoms: S_1  and  N_9
REMARK    2  A    between atoms: S_1  and  C_25
REMARK    3  A    between atoms: N_9  and  C_20
REMARK    4  A    between atoms: C_19  and  C_22
REMARK    5  A    between atoms: C_25  and  C_26
REMARK    6  A    between atoms: C_26  and  C_30
REMARK                            x       y       z     vdW  Elec       q    Type
REMARK                         _______ _______ _______ _____ _____    ______ ____
ROOT
ATOM      3  O   UNL     1      13.311   7.850   2.418  0.00  0.00    -0.266 OA
ATOM      4  O   UNL     1      10.889   9.501   6.690  0.00  0.00    -0.270 OA
ATOM      7  N   UNL     1       9.251   8.984   5.102  0.00  0.00    -0.297 N 
ATOM      8  N   UNL     1      10.985   7.856   2.697  0.00  0.00    -0.310 N 
ATOM     10  C   UNL     1       9.605  10.007   2.860  0.00  0.00    +0.027 C 
ATOM     11  C   UNL     1       8.489   7.820   3.045  0.00  0.00    +0.054 C 
ATOM     12  C   UNL     1       8.471   9.154   2.301  0.00  0.00    +0.018 C 
ATOM     13  C   UNL     1       9.407  10.240   4.370  0.00  0.00    +0.113 C 
ATOM     14  C   UNL     1      10.940   9.318   2.552  0.00  0.00    +0.130 C 
ATOM     15  C   UNL     1       8.245   8.064   4.548  0.00  0.00    +0.117 C 
ATOM     16  C   UNL     1       9.813   7.104   2.852  0.00  0.00    +0.027 A 
ATOM     17  C   UNL     1       9.863   5.759   2.869  0.00  0.00    +0.024 A 
ATOM     18  C   UNL     1      12.250   7.245   2.572  0.00  0.00    +0.274 A 
ATOM     19  C   UNL     1      10.047   8.737   6.223  0.00  0.00    +0.247 C 
ATOM     20  C   UNL     1      12.243   5.762   2.622  0.00  0.00    +0.112 A 
ATOM     21  C   UNL     1      11.115   5.063   2.751  0.00  0.00    +0.031 A 
ENDROOT
BRANCH  19  22
ATOM      2  F   UNL     1       9.457   3.824   8.824  0.00  0.00    -0.205 F 
ATOM     22  C   UNL     1       9.892   7.448   6.906  0.00  0.00    +0.037 A 
ATOM     23  C   UNL     1      10.559   6.325   6.424  0.00  0.00    +0.016 A 
ATOM     24  C   UNL     1       9.079   7.355   8.033  0.00  0.00    +0.016 A 
ATOM     27  C   UNL     1      10.412   5.099   7.073  0.00  0.00    +0.039 A 
ATOM     28  C   UNL     1       8.931   6.129   8.681  0.00  0.00    +0.039 A 
ATOM     29  C   UNL     1       9.598   5.001   8.202  0.00  0.00    +0.123 A 
ENDBRANCH  19  22
BRANCH  20   9
ATOM      9  N   UNL     1      13.449   5.045   2.522  0.00  0.00    -0.215 N 
ATOM     31  H   UNL     1      14.293   5.594   2.734  0.00  0.00    +0.173 HD
BRANCH   9   1
ATOM      1  S   UNL     1      13.592   4.042   1.150  0.00  0.00    +0.043 S 
ATOM      5  O   UNL     1      13.108   2.712   1.464  0.00  0.00    -0.155 OA
ATOM      6  O   UNL     1      13.119   4.757  -0.019  0.00  0.00    -0.155 OA
BRANCH   1  25
ATOM     25  C   UNL     1      15.362   3.944   1.038  0.00  0.00    +0.188 C 
BRANCH  25  26
ATOM     26  C   UNL     1      15.909   4.952   0.042  0.00  0.00    +0.021 C 
ATOM     30  C   UNL     1      16.591   4.262  -1.129  0.00  0.00    +0.005 C 
ENDBRANCH  25  26
ENDBRANCH   1  25
ENDBRANCH   9   1
ENDBRANCH  20   9
TORSDOF 5
ENDMDL
MODEL 2
REMARK VINA RESULT:      -6.3     24.788     27.818
REMARK  Name = 11867215
REMARK  6 active torsions:
REMARK  status: ('A' for Active; 'I' for Inactive)
REMARK    1  A    between atoms: S_1  and  N_9
REMARK    2  A    between atoms: S_1  and  C_25
REMARK    3  A    between atoms: N_9  and  C_20
REMARK    4  A    between atoms: C_19  and  C_22
REMARK    5  A    between atoms: C_25  and  C_26
REMARK    6  A    between atoms: C_26  and  C_30
REMARK                            x       y       z     vdW  Elec       q    Type
REMARK                         _______ _______ _______ _____ _____    ______ ____
ROOT
ATOM      3  O   UNL     1      -6.577  -9.623  13.797  0.00  0.00    -0.266 OA
ATOM      4  O   UNL     1      -5.098 -14.363  12.316  0.00  0.00    -0.270 OA
ATOM      7  N   UNL     1      -3.164 -13.123  12.758  0.00  0.00    -0.297 N 
ATOM      8  N   UNL     1      -4.357 -10.371  13.791  0.00  0.00    -0.310 N 
ATOM     10  C   UNL     1      -3.068 -10.899  11.643  0.00  0.00    +0.027 C 
ATOM     11  C   UNL     1      -1.984 -11.219  13.831  0.00  0.00    +0.054 C 
ATOM     12  C   UNL     1      -1.832 -10.549  12.466  0.00  0.00    +0.018 C 
ATOM     13  C   UNL     1      -3.185 -12.426  11.473  0.00  0.00    +0.113 C 
ATOM     14  C   UNL     1      -4.303 -10.297  12.325  0.00  0.00    +0.130 C 
ATOM     15  C   UNL     1      -2.054 -12.749  13.649  0.00  0.00    +0.117 C 
ATOM     16  C   UNL     1      -3.231 -10.731  14.544  0.00  0.00    +0.027 A 
ATOM     17  C   UNL     1      -3.265 -10.683  15.889  0.00  0.00    +0.024 A 
ATOM     18  C   UNL     1      -5.562  -9.965  14.403  0.00  0.00    +0.274 A 
ATOM     19  C   UNL     1      -4.169 -14.047  13.056  0.00  0.00    +0.247 C 
ATOM     20  C   UNL     1      -5.545  -9.956  15.886  0.00  0.00    +0.112 A 
ATOM     21  C   UNL     1      -4.458 -10.285  16.585  0.00  0.00    +0.031 A 
ENDROOT
BRANCH  19  22
ATOM      2  F   UNL     1      -4.056 -16.513  18.072  0.00  0.00    -0.205 F 
ATOM     22  C   UNL     1      -4.139 -14.694  14.372  0.00  0.00    +0.037 A 
ATOM     23  C   UNL     1      -4.803 -14.109  15.446  0.00  0.00    +0.016 A 
ATOM     24  C   UNL     1      -3.447 -15.891  14.539  0.00  0.00    +0.016 A 
ATOM     27  C   UNL     1      -4.775 -14.724  16.698  0.00  0.00    +0.039 A 
ATOM     28  C   UNL     1      -3.418 -16.506  15.791  0.00  0.00    +0.039 A 
ATOM     29  C   UNL     1      -4.082 -15.923  16.870  0.00  0.00    +0.123 A 
ENDBRANCH  19  22
BRANCH  20   9
ATOM      9  N   UNL     1      -6.696  -9.583  16.604  0.00  0.00    -0.215 N 
ATOM     31  H   UNL     1      -6.516  -8.981  17.420  0.00  0.00    +0.173 HD
BRANCH   9   1
ATOM      1  S   UNL     1      -7.817 -10.836  16.892  0.00  0.00    +0.043 S 
ATOM      5  O   UNL     1      -9.143 -10.405  16.496  0.00  0.00    -0.155 OA
ATOM      6  O   UNL     1      -7.265 -12.092  16.425  0.00  0.00    -0.155 OA
BRANCH   1  25
ATOM     25  C   UNL     1      -7.782 -10.862  18.667  0.00  0.00    +0.188 C 
BRANCH  25  26
ATOM     26  C   UNL     1      -6.885 -11.973  19.186  0.00  0.00    +0.021 C 
ATOM     30  C   UNL     1      -5.583 -11.421  19.744  0.00  0.00    +0.005 C 
ENDBRANCH  25  26
ENDBRANCH   1  25
ENDBRANCH   9   1
ENDBRANCH  20   9
TORSDOF 5
ENDMDL
MODEL 3
REMARK VINA RESULT:      -6.2     23.736     26.839
REMARK  Name = 11867215
REMARK  6 active torsions:
REMARK  status: ('A' for Active; 'I' for Inactive)
REMARK    1  A    between atoms: S_1  and  N_9
REMARK    2  A    between atoms: S_1  and  C_25
REMARK    3  A    between atoms: N_9  and  C_20
REMARK    4  A    between atoms: C_19  and  C_22
REMARK    5  A    between atoms: C_25  and  C_26
REMARK    6  A    between atoms: C_26  and  C_30
REMARK                            x       y       z     vdW  Elec       q    Type
REMARK                         _______ _______ _______ _____ _____    ______ ____
ROOT
ATOM      3  O   UNL     1      -4.083 -10.213  16.599  0.00  0.00    -0.266 OA
ATOM      4  O   UNL     1      -1.666  -9.824  12.033  0.00  0.00    -0.270 OA
ATOM      7  N   UNL     1      -2.790 -11.876  12.068  0.00  0.00    -0.297 N 
ATOM      8  N   UNL     1      -4.293 -11.767  14.859  0.00  0.00    -0.310 N 
ATOM     10  C   UNL     1      -2.367 -13.268  14.088  0.00  0.00    +0.027 C 
ATOM     11  C   UNL     1      -4.547 -13.393  12.951  0.00  0.00    +0.054 C 
ATOM     12  C   UNL     1      -3.473 -14.223  13.652  0.00  0.00    +0.018 C 
ATOM     13  C   UNL     1      -1.765 -12.549  12.866  0.00  0.00    +0.113 C 
ATOM     14  C   UNL     1      -2.941 -12.282  15.114  0.00  0.00    +0.130 C 
ATOM     15  C   UNL     1      -3.943 -12.715  11.704  0.00  0.00    +0.117 C 
ATOM     16  C   UNL     1      -5.117 -12.338  13.880  0.00  0.00    +0.027 A 
ATOM     17  C   UNL     1      -6.391 -11.929  13.738  0.00  0.00    +0.024 A 
ATOM     18  C   UNL     1      -4.752 -10.742  15.713  0.00  0.00    +0.274 A 
ATOM     19  C   UNL     1      -2.627 -10.530  11.731  0.00  0.00    +0.247 C 
ATOM     20  C   UNL     1      -6.156 -10.318  15.491  0.00  0.00    +0.112 A 
ATOM     21  C   UNL     1      -6.932 -10.886  14.567  0.00  0.00    +0.031 A 
ENDROOT
BRANCH  19  22
ATOM      2  F   UNL     1      -6.701  -8.047   8.818  0.00  0.00    -0.205 F 
ATOM     22  C   UNL     1      -3.695  -9.879  10.967  0.00  0.00    +0.037 A 
ATOM     23  C   UNL     1      -4.833  -9.417  11.623  0.00  0.00    +0.016 A 
ATOM     24  C   UNL     1      -3.566  -9.725   9.589  0.00  0.00    +0.016 A 
ATOM     27  C   UNL     1      -5.850  -8.797  10.896  0.00  0.00    +0.039 A 
ATOM     28  C   UNL     1      -4.583  -9.106   8.861  0.00  0.00    +0.039 A 
ATOM     29  C   UNL     1      -5.725  -8.641   9.515  0.00  0.00    +0.123 A 
ENDBRANCH  19  22
BRANCH  20   9
ATOM      9  N   UNL     1      -6.718  -9.293  16.274  0.00  0.00    -0.215 N 
ATOM     31  H   UNL     1      -6.047  -8.582  16.595  0.00  0.00    +0.173 HD
BRANCH   9   1
ATOM      1  S   UNL     1      -7.821  -9.805  17.470  0.00  0.00    +0.043 S 
ATOM      5  O   UNL     1      -8.761  -8.739  17.756  0.00  0.00    -0.155 OA
ATOM      6  O   UNL     1      -8.278 -11.145  17.159  0.00  0.00    -0.155 OA
BRANCH   1  25
ATOM     25  C   UNL     1      -6.720  -9.922  18.858  0.00  0.00    +0.188 C 
BRANCH  25  26
ATOM     26  C   UNL     1      -6.575 -11.359  19.329  0.00  0.00    +0.021 C 
ATOM     30  C   UNL     1      -5.120 -11.797  19.339  0.00  0.00    +0.005 C 
ENDBRANCH  25  26
ENDBRANCH   1  25
ENDBRANCH   9   1
ENDBRANCH  20   9
TORSDOF 5
ENDMDL
MODEL 4
REMARK VINA RESULT:      -6.1     24.966     27.551
REMARK  Name = 11867215
REMARK  6 active torsions:
REMARK  status: ('A' for Active; 'I' for Inactive)
REMARK    1  A    between atoms: S_1  and  N_9
REMARK    2  A    between atoms: S_1  and  C_25
REMARK    3  A    between atoms: N_9  and  C_20
REMARK    4  A    between atoms: C_19  and  C_22
REMARK    5  A    between atoms: C_25  and  C_26
REMARK    6  A    between atoms: C_26  and  C_30
REMARK                            x       y       z     vdW  Elec       q    Type
REMARK                         _______ _______ _______ _____ _____    ______ ____
ROOT
ATOM      3  O   UNL     1      -6.431 -10.427  12.275  0.00  0.00    -0.266 OA
ATOM      4  O   UNL     1      -7.572  -8.852  17.077  0.00  0.00    -0.270 OA
ATOM      7  N   UNL     1      -8.603 -10.926  16.748  0.00  0.00    -0.297 N 
ATOM      8  N   UNL     1      -7.607 -11.713  13.841  0.00  0.00    -0.310 N 
ATOM     10  C   UNL     1      -9.954 -11.106  14.665  0.00  0.00    +0.027 C 
ATOM     11  C   UNL     1      -8.820 -13.098  15.563  0.00  0.00    +0.054 C 
ATOM     12  C   UNL     1     -10.105 -12.605  14.902  0.00  0.00    +0.018 C 
ATOM     13  C   UNL     1      -9.731 -10.371  16.000  0.00  0.00    +0.113 C 
ATOM     14  C   UNL     1      -8.803 -10.875  13.678  0.00  0.00    +0.130 C 
ATOM     15  C   UNL     1      -8.631 -12.387  16.919  0.00  0.00    +0.117 C 
ATOM     16  C   UNL     1      -7.615 -12.837  14.679  0.00  0.00    +0.027 A 
ATOM     17  C   UNL     1      -6.550 -13.658  14.728  0.00  0.00    +0.024 A 
ATOM     18  C   UNL     1      -6.492 -11.390  13.040  0.00  0.00    +0.274 A 
ATOM     19  C   UNL     1      -7.602 -10.072  17.217  0.00  0.00    +0.247 C 
ATOM     20  C   UNL     1      -5.341 -12.318  13.156  0.00  0.00    +0.112 A 
ATOM     21  C   UNL     1      -5.373 -13.393  13.945  0.00  0.00    +0.031 A 
ENDROOT
BRANCH  19  22
ATOM      2  F   UNL     1      -3.270 -12.353  19.917  0.00  0.00    -0.205 F 
ATOM     22  C   UNL     1      -6.466 -10.671  17.926  0.00  0.00    +0.037 A 
ATOM     23  C   UNL     1      -5.330 -11.051  17.216  0.00  0.00    +0.016 A 
ATOM     24  C   UNL     1      -6.529 -10.855  19.305  0.00  0.00    +0.016 A 
ATOM     27  C   UNL     1      -4.248 -11.620  17.890  0.00  0.00    +0.039 A 
ATOM     28  C   UNL     1      -5.448 -11.425  19.979  0.00  0.00    +0.039 A 
ATOM     29  C   UNL     1      -4.308 -11.807  19.271  0.00  0.00    +0.123 A 
ENDBRANCH  19  22
BRANCH  20   9
ATOM      9  N   UNL     1      -4.168 -12.087  12.416  0.00  0.00    -0.215 N 
ATOM     31  H   UNL     1      -3.884 -12.867  11.807  0.00  0.00    +0.173 HD
BRANCH   9   1
ATOM      1  S   UNL     1      -2.884 -11.372  13.282  0.00  0.00    +0.043 S 
ATOM      5  O   UNL     1      -3.415 -10.522  14.330  0.00  0.00    -0.155 OA
ATOM      6  O   UNL     1      -1.879 -12.377  13.567  0.00  0.00    -0.155 OA
BRANCH   1  25
ATOM     25  C   UNL     1      -2.233 -10.305  12.020  0.00  0.00    +0.188 C 
BRANCH  25  26
ATOM     26  C   UNL     1      -3.016 -10.441  10.725  0.00  0.00    +0.021 C 
ATOM     30  C   UNL     1      -3.378  -9.081  10.150  0.00  0.00    +0.005 C 
ENDBRANCH  25  26
ENDBRANCH   1  25
ENDBRANCH   9   1
ENDBRANCH  20   9
TORSDOF 5
ENDMDL
MODEL 5
REMARK VINA RESULT:      -6.1     23.781     26.883
REMARK  Name = 11867215
REMARK  6 active torsions:
REMARK  status: ('A' for Active; 'I' for Inactive)
REMARK    1  A    between atoms: S_1  and  N_9
REMARK    2  A    between atoms: S_1  and  C_25
REMARK    3  A    between atoms: N_9  and  C_20
REMARK    4  A    between atoms: C_19  and  C_22
REMARK    5  A    between atoms: C_25  and  C_26
REMARK    6  A    between atoms: C_26  and  C_30
REMARK                            x       y       z     vdW  Elec       q    Type
REMARK                         _______ _______ _______ _____ _____    ______ ____
ROOT
ATOM      3  O   UNL     1      -4.374 -10.463  16.686  0.00  0.00    -0.266 OA
ATOM      4  O   UNL     1      -1.651  -9.841  12.322  0.00  0.00    -0.270 OA
ATOM      7  N   UNL     1      -2.794 -11.876  12.160  0.00  0.00    -0.297 N 
ATOM      8  N   UNL     1      -4.481 -11.910  14.846  0.00  0.00    -0.310 N 
ATOM     10  C   UNL     1      -2.522 -13.389  14.118  0.00  0.00    +0.027 C 
ATOM     11  C   UNL     1      -4.621 -13.418  12.832  0.00  0.00    +0.054 C 
ATOM     12  C   UNL     1      -3.605 -14.302  13.553  0.00  0.00    +0.018 C 
ATOM     13  C   UNL     1      -1.832 -12.608  12.984  0.00  0.00    +0.113 C 
ATOM     14  C   UNL     1      -3.154 -12.458  15.160  0.00  0.00    +0.130 C 
ATOM     15  C   UNL     1      -3.928 -12.677  11.671  0.00  0.00    +0.117 C 
ATOM     16  C   UNL     1      -5.243 -12.412  13.782  0.00  0.00    +0.027 A 
ATOM     17  C   UNL     1      -6.500 -11.978  13.579  0.00  0.00    +0.024 A 
ATOM     18  C   UNL     1      -4.987 -10.931  15.726  0.00  0.00    +0.274 A 
ATOM     19  C   UNL     1      -2.595 -10.515  11.916  0.00  0.00    +0.247 C 
ATOM     20  C   UNL     1      -6.369 -10.475  15.437  0.00  0.00    +0.112 A 
ATOM     21  C   UNL     1      -7.085 -10.978  14.430  0.00  0.00    +0.031 A 
ENDROOT
BRANCH  19  22
ATOM      2  F   UNL     1      -6.439  -7.812   8.887  0.00  0.00    -0.205 F 
ATOM     22  C   UNL     1      -3.603  -9.806  11.122  0.00  0.00    +0.037 A 
ATOM     23  C   UNL     1      -3.332  -9.471   9.798  0.00  0.00    +0.016 A 
ATOM     24  C   UNL     1      -4.828  -9.471  11.695  0.00  0.00    +0.016 A 
ATOM     27  C   UNL     1      -4.291  -8.797   9.041  0.00  0.00    +0.039 A 
ATOM     28  C   UNL     1      -5.786  -8.796  10.940  0.00  0.00    +0.039 A 
ATOM     29  C   UNL     1      -5.519  -8.460   9.613  0.00  0.00    +0.123 A 
ENDBRANCH  19  22
BRANCH  20   9
ATOM      9  N   UNL     1      -6.972  -9.490  16.240  0.00  0.00    -0.215 N 
ATOM     31  H   UNL     1      -6.393  -8.655  16.401  0.00  0.00    +0.173 HD
BRANCH   9   1
ATOM      1  S   UNL     1      -7.772 -10.068  17.631  0.00  0.00    +0.043 S 
ATOM      5  O   UNL     1      -8.417 -11.332  17.334  0.00  0.00    -0.155 OA
ATOM      6  O   UNL     1      -6.901  -9.922  18.781  0.00  0.00    -0.155 OA
BRANCH   1  25
ATOM     25  C   UNL     1      -9.051  -8.844  17.767  0.00  0.00    +0.188 C 
BRANCH  25  26
ATOM     26  C   UNL     1      -9.343  -8.199  16.423  0.00  0.00    +0.021 C 
ATOM     30  C   UNL     1     -10.585  -7.324  16.485  0.00  0.00    +0.005 C 
ENDBRANCH  25  26
ENDBRANCH   1  25
ENDBRANCH   9   1
ENDBRANCH  20   9
TORSDOF 5
ENDMDL
MODEL 6
REMARK VINA RESULT:      -6.1      3.755      5.337
REMARK  Name = 11867215
REMARK  6 active torsions:
REMARK  status: ('A' for Active; 'I' for Inactive)
REMARK    1  A    between atoms: S_1  and  N_9
REMARK    2  A    between atoms: S_1  and  C_25
REMARK    3  A    between atoms: N_9  and  C_20
REMARK    4  A    between atoms: C_19  and  C_22
REMARK    5  A    between atoms: C_25  and  C_26
REMARK    6  A    between atoms: C_26  and  C_30
REMARK                            x       y       z     vdW  Elec       q    Type
REMARK                         _______ _______ _______ _____ _____    ______ ____
ROOT
ATOM      3  O   UNL     1      12.555   7.336   3.359  0.00  0.00    -0.266 OA
ATOM      4  O   UNL     1       8.706   9.763   5.838  0.00  0.00    -0.270 OA
ATOM      7  N   UNL     1       9.124   7.757   6.968  0.00  0.00    -0.297 N 
ATOM      8  N   UNL     1      11.596   6.587   5.361  0.00  0.00    -0.310 N 
ATOM     10  C   UNL     1       9.188   5.732   5.521  0.00  0.00    +0.027 C 
ATOM     11  C   UNL     1      10.586   5.834   7.544  0.00  0.00    +0.054 C 
ATOM     12  C   UNL     1       9.705   4.916   6.700  0.00  0.00    +0.018 C 
ATOM     13  C   UNL     1       8.369   6.938   6.020  0.00  0.00    +0.113 C 
ATOM     14  C   UNL     1      10.379   6.161   4.656  0.00  0.00    +0.130 C 
ATOM     15  C   UNL     1       9.744   7.012   8.076  0.00  0.00    +0.117 C 
ATOM     16  C   UNL     1      11.755   6.366   6.736  0.00  0.00    +0.027 A 
ATOM     17  C   UNL     1      12.920   6.657   7.344  0.00  0.00    +0.024 A 
ATOM     18  C   UNL     1      12.629   7.132   4.571  0.00  0.00    +0.274 A 
ATOM     19  C   UNL     1       9.222   9.135   6.761  0.00  0.00    +0.247 C 
ATOM     20  C   UNL     1      13.879   7.456   5.302  0.00  0.00    +0.112 A 
ATOM     21  C   UNL     1      14.019   7.221   6.607  0.00  0.00    +0.031 A 
ENDROOT
BRANCH  19  22
ATOM      2  F   UNL     1      12.275  12.114  10.374  0.00  0.00    -0.205 F 
ATOM     22  C   UNL     1      10.023   9.917   7.708  0.00  0.00    +0.037 A 
ATOM     23  C   UNL     1       9.419  10.470   8.834  0.00  0.00    +0.016 A 
ATOM     24  C   UNL     1      11.384  10.101   7.478  0.00  0.00    +0.016 A 
ATOM     27  C   UNL     1      10.181  11.213   9.736  0.00  0.00    +0.039 A 
ATOM     28  C   UNL     1      12.146  10.844   8.379  0.00  0.00    +0.039 A 
ATOM     29  C   UNL     1      11.545  11.400   9.508  0.00  0.00    +0.123 A 
ENDBRANCH  19  22
BRANCH  20   9
ATOM      9  N   UNL     1      14.973   8.019   4.619  0.00  0.00    -0.215 N 
ATOM     31  H   UNL     1      15.892   7.667   4.918  0.00  0.00    +0.173 HD
BRANCH   9   1
ATOM      1  S   UNL     1      14.908   9.709   4.401  0.00  0.00    +0.043 S 
ATOM      5  O   UNL     1      14.758  10.015   2.992  0.00  0.00    -0.155 OA
ATOM      6  O   UNL     1      14.022  10.288   5.393  0.00  0.00    -0.155 OA
BRANCH   1  25
ATOM     25  C   UNL     1      16.571  10.131   4.857  0.00  0.00    +0.188 C 
BRANCH  25  26
ATOM     26  C   UNL     1      17.459   8.899   4.909  0.00  0.00    +0.021 C 
ATOM     30  C   UNL     1      18.238   8.829   6.212  0.00  0.00    +0.005 C 
ENDBRANCH  25  26
ENDBRANCH   1  25
ENDBRANCH   9   1
ENDBRANCH  20   9
TORSDOF 5
ENDMDL
MODEL 7
REMARK VINA RESULT:      -6.0     26.665     30.184
REMARK  Name = 11867215
REMARK  6 active torsions:
REMARK  status: ('A' for Active; 'I' for Inactive)
REMARK    1  A    between atoms: S_1  and  N_9
REMARK    2  A    between atoms: S_1  and  C_25
REMARK    3  A    between atoms: N_9  and  C_20
REMARK    4  A    between atoms: C_19  and  C_22
REMARK    5  A    between atoms: C_25  and  C_26
REMARK    6  A    between atoms: C_26  and  C_30
REMARK                            x       y       z     vdW  Elec       q    Type
REMARK                         _______ _______ _______ _____ _____    ______ ____
ROOT
ATOM      3  O   UNL     1     -14.118   8.153  17.724  0.00  0.00    -0.266 OA
ATOM      4  O   UNL     1     -16.379  10.486  21.760  0.00  0.00    -0.270 OA
ATOM      7  N   UNL     1     -16.013   8.251  22.347  0.00  0.00    -0.297 N 
ATOM      8  N   UNL     1     -14.490   7.132  19.799  0.00  0.00    -0.310 N 
ATOM     10  C   UNL     1     -16.828   6.585  20.686  0.00  0.00    +0.027 C 
ATOM     11  C   UNL     1     -14.849   6.076  22.059  0.00  0.00    +0.054 C 
ATOM     12  C   UNL     1     -16.121   5.478  21.462  0.00  0.00    +0.018 C 
ATOM     13  C   UNL     1     -17.184   7.754  21.623  0.00  0.00    +0.113 C 
ATOM     14  C   UNL     1     -15.930   7.027  19.525  0.00  0.00    +0.130 C 
ATOM     15  C   UNL     1     -15.221   7.216  23.030  0.00  0.00    +0.117 C 
ATOM     16  C   UNL     1     -13.932   6.608  20.974  0.00  0.00    +0.027 A 
ATOM     17  C   UNL     1     -12.599   6.612  21.156  0.00  0.00    +0.024 A 
ATOM     18  C   UNL     1     -13.690   7.692  18.782  0.00  0.00    +0.274 A 
ATOM     19  C   UNL     1     -15.722   9.617  22.329  0.00  0.00    +0.247 C 
ATOM     20  C   UNL     1     -12.231   7.689  19.051  0.00  0.00    +0.112 A 
ATOM     21  C   UNL     1     -11.717   7.169  20.167  0.00  0.00    +0.031 A 
ENDROOT
BRANCH  19  22
ATOM      2  F   UNL     1     -11.126  11.349  24.999  0.00  0.00    -0.205 F 
ATOM     22  C   UNL     1     -14.516  10.071  23.029  0.00  0.00    +0.037 A 
ATOM     23  C   UNL     1     -13.345  10.303  22.313  0.00  0.00    +0.016 A 
ATOM     24  C   UNL     1     -14.549  10.269  24.408  0.00  0.00    +0.016 A 
ATOM     27  C   UNL     1     -12.198  10.736  22.979  0.00  0.00    +0.039 A 
ATOM     28  C   UNL     1     -13.402  10.700  25.074  0.00  0.00    +0.039 A 
ATOM     29  C   UNL     1     -12.227  10.934  24.360  0.00  0.00    +0.123 A 
ENDBRANCH  19  22
BRANCH  20   9
ATOM      9  N   UNL     1     -11.337   8.236  18.113  0.00  0.00    -0.215 N 
ATOM     31  H   UNL     1     -10.570   7.608  17.835  0.00  0.00    +0.173 HD
BRANCH   9   1
ATOM      1  S   UNL     1     -10.850   9.842  18.416  0.00  0.00    +0.043 S 
ATOM      5  O   UNL     1     -12.018  10.698  18.504  0.00  0.00    -0.155 OA
ATOM      6  O   UNL     1      -9.834   9.850  19.449  0.00  0.00    -0.155 OA
BRANCH   1  25
ATOM     25  C   UNL     1     -10.049  10.205  16.873  0.00  0.00    +0.188 C 
BRANCH  25  26
ATOM     26  C   UNL     1     -10.272  11.650  16.461  0.00  0.00    +0.021 C 
ATOM     30  C   UNL     1      -9.298  12.584  17.161  0.00  0.00    +0.005 C 
ENDBRANCH  25  26
ENDBRANCH   1  25
ENDBRANCH   9   1
ENDBRANCH  20   9
TORSDOF 5
ENDMDL
MODEL 8
REMARK VINA RESULT:      -5.9     32.477     34.202
REMARK  Name = 11867215
REMARK  6 active torsions:
REMARK  status: ('A' for Active; 'I' for Inactive)
REMARK    1  A    between atoms: S_1  and  N_9
REMARK    2  A    between atoms: S_1  and  C_25
REMARK    3  A    between atoms: N_9  and  C_20
REMARK    4  A    between atoms: C_19  and  C_22
REMARK    5  A    between atoms: C_25  and  C_26
REMARK    6  A    between atoms: C_26  and  C_30
REMARK                            x       y       z     vdW  Elec       q    Type
REMARK                         _______ _______ _______ _____ _____    ______ ____
ROOT
ATOM      3  O   UNL     1      10.174 -10.790  32.067  0.00  0.00    -0.266 OA
ATOM      4  O   UNL     1       6.927 -10.858  36.105  0.00  0.00    -0.270 OA
ATOM      7  N   UNL     1       6.292  -9.087  34.715  0.00  0.00    -0.297 N 
ATOM      8  N   UNL     1       8.309  -9.389  32.284  0.00  0.00    -0.310 N 
ATOM     10  C   UNL     1       8.141  -7.553  34.061  0.00  0.00    +0.027 C 
ATOM     11  C   UNL     1       6.263  -7.934  32.515  0.00  0.00    +0.054 C 
ATOM     12  C   UNL     1       7.211  -6.870  33.064  0.00  0.00    +0.018 C 
ATOM     13  C   UNL     1       7.329  -8.182  35.209  0.00  0.00    +0.113 C 
ATOM     14  C   UNL     1       8.988  -8.592  33.315  0.00  0.00    +0.130 C 
ATOM     15  C   UNL     1       5.425  -8.524  33.668  0.00  0.00    +0.117 C 
ATOM     16  C   UNL     1       7.030  -9.045  31.822  0.00  0.00    +0.027 A 
ATOM     17  C   UNL     1       6.472  -9.717  30.799  0.00  0.00    +0.024 A 
ATOM     18  C   UNL     1       9.044 -10.450  31.716  0.00  0.00    +0.274 A 
ATOM     19  C   UNL     1       6.206 -10.382  35.231  0.00  0.00    +0.247 C 
ATOM     20  C   UNL     1       8.366 -11.167  30.609  0.00  0.00    +0.112 A 
ATOM     21  C   UNL     1       7.157 -10.814  30.170  0.00  0.00    +0.031 A 
ENDROOT
BRANCH  19  22
ATOM      2  F   UNL     1       2.299 -13.784  33.129  0.00  0.00    -0.205 F 
ATOM     22  C   UNL     1       5.181 -11.274  34.679  0.00  0.00    +0.037 A 
ATOM     23  C   UNL     1       5.500 -12.129  33.628  0.00  0.00    +0.016 A 
ATOM     24  C   UNL     1       3.893 -11.262  35.210  0.00  0.00    +0.016 A 
ATOM     27  C   UNL     1       4.526 -12.979  33.104  0.00  0.00    +0.039 A 
ATOM     28  C   UNL     1       2.918 -12.110  34.686  0.00  0.00    +0.039 A 
ATOM     29  C   UNL     1       3.234 -12.969  33.633  0.00  0.00    +0.123 A 
ENDBRANCH  19  22
BRANCH  20   9
ATOM      9  N   UNL     1       8.998 -12.253  29.976  0.00  0.00    -0.215 N 
ATOM     31  H   UNL     1       8.994 -12.211  28.948  0.00  0.00    +0.173 HD
BRANCH   9   1
ATOM      1  S   UNL     1       8.628 -13.790  30.617  0.00  0.00    +0.043 S 
ATOM      5  O   UNL     1       9.764 -14.675  30.448  0.00  0.00    -0.155 OA
ATOM      6  O   UNL     1       7.985 -13.631  31.906  0.00  0.00    -0.155 OA
BRANCH   1  25
ATOM     25  C   UNL     1       7.385 -14.303  29.457  0.00  0.00    +0.188 C 
BRANCH  25  26
ATOM     26  C   UNL     1       6.071 -14.608  30.154  0.00  0.00    +0.021 C 
ATOM     30  C   UNL     1       4.927 -13.799  29.563  0.00  0.00    +0.005 C 
ENDBRANCH  25  26
ENDBRANCH   1  25
ENDBRANCH   9   1
ENDBRANCH  20   9
TORSDOF 5
ENDMDL
MODEL 9
REMARK VINA RESULT:      -5.8     25.049     27.840
REMARK  Name = 11867215
REMARK  6 active torsions:
REMARK  status: ('A' for Active; 'I' for Inactive)
REMARK    1  A    between atoms: S_1  and  N_9
REMARK    2  A    between atoms: S_1  and  C_25
REMARK    3  A    between atoms: N_9  and  C_20
REMARK    4  A    between atoms: C_19  and  C_22
REMARK    5  A    between atoms: C_25  and  C_26
REMARK    6  A    between atoms: C_26  and  C_30
REMARK                            x       y       z     vdW  Elec       q    Type
REMARK                         _______ _______ _______ _____ _____    ______ ____
ROOT
ATOM      3  O   UNL     1      -5.916 -13.792  14.307  0.00  0.00    -0.266 OA
ATOM      4  O   UNL     1      -9.506 -12.318  17.740  0.00  0.00    -0.270 OA
ATOM      7  N   UNL     1      -7.479 -11.334  18.368  0.00  0.00    -0.297 N 
ATOM      8  N   UNL     1      -5.538 -12.253  16.033  0.00  0.00    -0.310 N 
ATOM     10  C   UNL     1      -5.551 -12.903  18.510  0.00  0.00    +0.027 C 
ATOM     11  C   UNL     1      -5.174 -10.558  17.862  0.00  0.00    +0.054 C 
ATOM     12  C   UNL     1      -4.608 -11.717  18.681  0.00  0.00    +0.018 C 
ATOM     13  C   UNL     1      -6.963 -12.544  19.009  0.00  0.00    +0.113 C 
ATOM     14  C   UNL     1      -5.550 -13.328  17.036  0.00  0.00    +0.130 C 
ATOM     15  C   UNL     1      -6.568 -10.178  18.402  0.00  0.00    +0.117 C 
ATOM     16  C   UNL     1      -5.277 -10.924  16.394  0.00  0.00    +0.027 A 
ATOM     17  C   UNL     1      -5.157  -9.973  15.450  0.00  0.00    +0.024 A 
ATOM     18  C   UNL     1      -5.701 -12.641  14.687  0.00  0.00    +0.274 A 
ATOM     19  C   UNL     1      -8.742 -11.356  17.772  0.00  0.00    +0.247 C 
ATOM     20  C   UNL     1      -5.581 -11.544  13.695  0.00  0.00    +0.112 A 
ATOM     21  C   UNL     1      -5.314 -10.288  14.056  0.00  0.00    +0.031 A 
ENDROOT
BRANCH  19  22
ATOM      2  F   UNL     1     -10.511  -6.709  15.218  0.00  0.00    -0.205 F 
ATOM     22  C   UNL     1      -9.206 -10.137  17.101  0.00  0.00    +0.037 A 
ATOM     23  C   UNL     1      -9.924  -9.184  17.818  0.00  0.00    +0.016 A 
ATOM     24  C   UNL     1      -8.925  -9.939  15.752  0.00  0.00    +0.016 A 
ATOM     27  C   UNL     1     -10.365  -8.024  17.181  0.00  0.00    +0.039 A 
ATOM     28  C   UNL     1      -9.367  -8.780  15.114  0.00  0.00    +0.039 A 
ATOM     29  C   UNL     1     -10.087  -7.822  15.829  0.00  0.00    +0.123 A 
ENDBRANCH  19  22
BRANCH  20   9
ATOM      9  N   UNL     1      -5.740 -11.809  12.323  0.00  0.00    -0.215 N 
ATOM     31  H   UNL     1      -6.582 -12.351  12.086  0.00  0.00    +0.173 HD
BRANCH   9   1
ATOM      1  S   UNL     1      -4.330 -12.315  11.507  0.00  0.00    +0.043 S 
ATOM      5  O   UNL     1      -3.164 -12.022  12.319  0.00  0.00    -0.155 OA
ATOM      6  O   UNL     1      -4.544 -13.637  10.952  0.00  0.00    -0.155 OA
BRANCH   1  25
ATOM     25  C   UNL     1      -4.336 -11.159  10.160  0.00  0.00    +0.188 C 
BRANCH  25  26
ATOM     26  C   UNL     1      -3.587  -9.887  10.520  0.00  0.00    +0.021 C 
ATOM     30  C   UNL     1      -4.460  -8.656  10.336  0.00  0.00    +0.005 C 
ENDBRANCH  25  26
ENDBRANCH   1  25
ENDBRANCH   9   1
ENDBRANCH  20   9
TORSDOF 5
ENDMDL
MODEL 10
REMARK VINA RESULT:      -5.8     32.100     33.527
REMARK  Name = 11867215
REMARK  6 active torsions:
REMARK  status: ('A' for Active; 'I' for Inactive)
REMARK    1  A    between atoms: S_1  and  N_9
REMARK    2  A    between atoms: S_1  and  C_25
REMARK    3  A    between atoms: N_9  and  C_20
REMARK    4  A    between atoms: C_19  and  C_22
REMARK    5  A    between atoms: C_25  and  C_26
REMARK    6  A    between atoms: C_26  and  C_30
REMARK                            x       y       z     vdW  Elec       q    Type
REMARK                         _______ _______ _______ _____ _____    ______ ____
ROOT
ATOM      3  O   UNL     1       5.991  -9.598  34.691  0.00  0.00    -0.266 OA
ATOM      4  O   UNL     1      10.217 -12.314  33.425  0.00  0.00    -0.270 OA
ATOM      7  N   UNL     1       8.840 -12.223  31.535  0.00  0.00    -0.297 N 
ATOM      8  N   UNL     1       6.454 -10.387  32.535  0.00  0.00    -0.310 N 
ATOM     10  C   UNL     1       6.471 -12.875  31.933  0.00  0.00    +0.027 C 
ATOM     11  C   UNL     1       7.005 -11.197  30.213  0.00  0.00    +0.054 C 
ATOM     12  C   UNL     1       6.111 -12.394  30.531  0.00  0.00    +0.018 C 
ATOM     13  C   UNL     1       7.953 -13.291  31.995  0.00  0.00    +0.113 C 
ATOM     14  C   UNL     1       6.140 -11.765  32.937  0.00  0.00    +0.130 C 
ATOM     15  C   UNL     1       8.484 -11.637  30.233  0.00  0.00    +0.117 C 
ATOM     16  C   UNL     1       6.793 -10.074  31.211  0.00  0.00    +0.027 A 
ATOM     17  C   UNL     1       6.966  -8.794  30.835  0.00  0.00    +0.024 A 
ATOM     18  C   UNL     1       6.301  -9.388  33.519  0.00  0.00    +0.274 A 
ATOM     19  C   UNL     1       9.914 -11.829  32.337  0.00  0.00    +0.247 C 
ATOM     20  C   UNL     1       6.528  -7.999  33.050  0.00  0.00    +0.112 A 
ATOM     21  C   UNL     1       6.832  -7.720  31.781  0.00  0.00    +0.031 A 
ENDROOT
BRANCH  19  22
ATOM      2  F   UNL     1      13.124  -7.624  30.529  0.00  0.00    -0.205 F 
ATOM     22  C   UNL     1      10.756 -10.726  31.862  0.00  0.00    +0.037 A 
ATOM     23  C   UNL     1      10.412  -9.412  32.166  0.00  0.00    +0.016 A 
ATOM     24  C   UNL     1      11.897 -10.998  31.110  0.00  0.00    +0.016 A 
ATOM     27  C   UNL     1      11.213  -8.362  31.716  0.00  0.00    +0.039 A 
ATOM     28  C   UNL     1      12.697  -9.949  30.659  0.00  0.00    +0.039 A 
ATOM     29  C   UNL     1      12.356  -8.631  30.962  0.00  0.00    +0.123 A 
ENDBRANCH  19  22
BRANCH  20   9
ATOM      9  N   UNL     1       6.418  -6.922  33.947  0.00  0.00    -0.215 N 
ATOM     31  H   UNL     1       5.927  -6.099  33.571  0.00  0.00    +0.173 HD
BRANCH   9   1
ATOM      1  S   UNL     1       7.832  -6.552  34.826  0.00  0.00    +0.043 S 
ATOM      5  O   UNL     1       7.479  -6.156  36.175  0.00  0.00    -0.155 OA
ATOM      6  O   UNL     1       8.830  -7.574  34.580  0.00  0.00    -0.155 OA
BRANCH   1  25
ATOM     25  C   UNL     1       8.341  -5.086  33.964  0.00  0.00    +0.188 C 
BRANCH  25  26
ATOM     26  C   UNL     1       9.749  -4.672  34.360  0.00  0.00    +0.021 C 
ATOM     30  C   UNL     1      10.730  -4.870  33.216  0.00  0.00    +0.005 C 
ENDBRANCH  25  26
ENDBRANCH   1  25
ENDBRANCH   9   1
ENDBRANCH  20   9
TORSDOF 5
ENDMDL
