MODEL 1
REMARK VINA RESULT:      -6.1      0.000      0.000
REMARK  Name = 28959856
REMARK  10 active torsions:
REMARK  status: ('A' for Active; 'I' for Inactive)
REMARK    1  A    between atoms: O_2  and  C_21
REMARK    2  A    between atoms: O_4  and  C_22
REMARK    3  A    between atoms: O_4  and  C_28
REMARK    4  A    between atoms: N_6  and  C_14
REMARK    5  A    between atoms: N_7  and  C_23
REMARK    6  A    between atoms: C_8  and  C_12
REMARK    7  A    between atoms: C_9  and  C_15
REMARK    8  A    between atoms: C_12  and  C_14
REMARK    9  A    between atoms: C_15  and  C_21
REMARK   10  A    between atoms: C_18  and  C_22
REMARK                            x       y       z     vdW  Elec       q    Type
REMARK                         _______ _______ _______ _____ _____    ______ ____
ROOT
ATOM      1  O   UNL     1       8.914  10.372   5.478  0.00  0.00    -0.273 OA
ATOM      5  N   UNL     1      10.162   8.864   6.727  0.00  0.00    -0.299 N 
ATOM      8  C   UNL     1      10.994   6.569   7.187  0.00  0.00    +0.011 C 
ATOM      9  C   UNL     1       9.974   6.472   8.350  0.00  0.00    +0.006 C 
ATOM     10  C   UNL     1      11.361   8.042   6.935  0.00  0.00    +0.111 C 
ATOM     11  C   UNL     1       8.760   7.386   8.114  0.00  0.00    +0.023 C 
ATOM     13  C   UNL     1       9.194   8.820   7.823  0.00  0.00    +0.108 C 
ATOM     18  C   UNL     1       9.917   9.670   5.616  0.00  0.00    +0.241 C 
ENDROOT
BRANCH   8  12
ATOM     12  C   UNL     1      10.519   5.909   5.885  0.00  0.00    +0.020 C 
BRANCH  12  14
ATOM     14  C   UNL     1      11.536   6.114   4.771  0.00  0.00    +0.085 C 
BRANCH  14   6
ATOM      6  N   UNL     1      10.914   5.845   3.475  0.00  0.00    -0.299 NA
ATOM      7  N   UNL     1      10.833   5.008   0.746  0.00  0.00    -0.327 N 
ATOM     16  C   UNL     1      11.038   4.424   3.129  0.00  0.00    +0.103 C 
ATOM     17  C   UNL     1      11.529   6.669   2.428  0.00  0.00    +0.103 C 
ATOM     19  C   UNL     1      10.341   4.117   1.801  0.00  0.00    +0.120 C 
ATOM     20  C   UNL     1      10.848   6.438   1.077  0.00  0.00    +0.120 C 
BRANCH   7  23
ATOM     23  C   UNL     1      10.675   4.645  -0.597  0.00  0.00    +0.030 A 
ATOM     24  C   UNL     1       9.711   5.277  -1.382  0.00  0.00    +0.023 A 
ATOM     25  C   UNL     1      11.483   3.652  -1.151  0.00  0.00    +0.023 A 
ATOM     26  C   UNL     1       9.555   4.916  -2.719  0.00  0.00    +0.002 A 
ATOM     27  C   UNL     1      11.326   3.291  -2.488  0.00  0.00    +0.002 A 
ATOM     29  C   UNL     1      10.362   3.923  -3.274  0.00  0.00    +0.000 A 
ENDBRANCH   7  23
ENDBRANCH  14   6
ENDBRANCH  12  14
ENDBRANCH   8  12
BRANCH   9  15
ATOM     15  C   UNL     1       9.521   5.039   8.635  0.00  0.00    +0.124 C 
BRANCH  15  21
ATOM      3  O   UNL     1      10.402   4.461  10.833  0.00  0.00    -0.251 OA
ATOM     21  C   UNL     1       9.462   4.759  10.110  0.00  0.00    +0.305 C 
BRANCH  21   2
ATOM      2  O   UNL     1       8.184   4.887  10.549  0.00  0.00    -0.481 OA
ATOM     30  H   UNL     1       8.086   4.596  11.481  0.00  0.00    +0.295 HD
ENDBRANCH  21   2
ENDBRANCH  15  21
ENDBRANCH   9  15
BRANCH  18  22
ATOM     22  C   UNL     1      10.963   9.658   4.530  0.00  0.00    +0.255 C 
BRANCH  22   4
ATOM      4  O   UNL     1      10.591  10.648   3.602  0.00  0.00    -0.374 OA
ATOM     28  C   UNL     1      11.038  10.341   2.282  0.00  0.00    +0.194 C 
ENDBRANCH  22   4
ENDBRANCH  18  22
TORSDOF 9
ENDMDL
MODEL 2
REMARK VINA RESULT:      -5.8     25.843     30.346
REMARK  Name = 28959856
REMARK  10 active torsions:
REMARK  status: ('A' for Active; 'I' for Inactive)
REMARK    1  A    between atoms: O_2  and  C_21
REMARK    2  A    between atoms: O_4  and  C_22
REMARK    3  A    between atoms: O_4  and  C_28
REMARK    4  A    between atoms: N_6  and  C_14
REMARK    5  A    between atoms: N_7  and  C_23
REMARK    6  A    between atoms: C_8  and  C_12
REMARK    7  A    between atoms: C_9  and  C_15
REMARK    8  A    between atoms: C_12  and  C_14
REMARK    9  A    between atoms: C_15  and  C_21
REMARK   10  A    between atoms: C_18  and  C_22
REMARK                            x       y       z     vdW  Elec       q    Type
REMARK                         _______ _______ _______ _____ _____    ______ ____
ROOT
ATOM      1  O   UNL     1      -9.707   9.271  17.451  0.00  0.00    -0.273 OA
ATOM      5  N   UNL     1     -11.767   8.435  18.125  0.00  0.00    -0.299 N 
ATOM      8  C   UNL     1     -13.674   8.346  19.715  0.00  0.00    +0.011 C 
ATOM      9  C   UNL     1     -13.110   7.008  20.259  0.00  0.00    +0.006 C 
ATOM     10  C   UNL     1     -13.225   8.548  18.257  0.00  0.00    +0.111 C 
ATOM     11  C   UNL     1     -11.589   6.912  20.055  0.00  0.00    +0.023 C 
ATOM     13  C   UNL     1     -11.207   7.169  18.600  0.00  0.00    +0.108 C 
ATOM     18  C   UNL     1     -10.927   9.402  17.574  0.00  0.00    +0.241 C 
ENDROOT
BRANCH   8  12
ATOM     12  C   UNL     1     -13.299   9.570  20.561  0.00  0.00    +0.020 C 
BRANCH  12  14
ATOM     14  C   UNL     1     -14.527  10.148  21.252  0.00  0.00    +0.085 C 
BRANCH  14   6
ATOM      6  N   UNL     1     -14.174  10.600  22.597  0.00  0.00    -0.299 NA
ATOM      7  N   UNL     1     -13.097  10.353  25.231  0.00  0.00    -0.327 N 
ATOM     16  C   UNL     1     -12.722  10.521  22.803  0.00  0.00    +0.103 C 
ATOM     17  C   UNL     1     -14.866   9.793  23.609  0.00  0.00    +0.103 C 
ATOM     19  C   UNL     1     -12.332  11.043  24.188  0.00  0.00    +0.120 C 
ATOM     20  C   UNL     1     -14.549  10.292  25.021  0.00  0.00    +0.120 C 
BRANCH   7  23
ATOM     23  C   UNL     1     -12.622  10.345  26.547  0.00  0.00    +0.030 A 
ATOM     24  C   UNL     1     -11.305   9.970  26.812  0.00  0.00    +0.023 A 
ATOM     25  C   UNL     1     -13.466  10.711  27.596  0.00  0.00    +0.023 A 
ATOM     26  C   UNL     1     -10.832   9.962  28.124  0.00  0.00    +0.002 A 
ATOM     27  C   UNL     1     -12.994  10.703  28.908  0.00  0.00    +0.002 A 
ATOM     29  C   UNL     1     -11.676  10.328  29.173  0.00  0.00    +0.000 A 
ENDBRANCH   7  23
ENDBRANCH  14   6
ENDBRANCH  12  14
ENDBRANCH   8  12
BRANCH   9  15
ATOM     15  C   UNL     1     -13.475   6.753  21.722  0.00  0.00    +0.124 C 
BRANCH  15  21
ATOM      3  O   UNL     1     -14.793   4.705  21.814  0.00  0.00    -0.251 OA
ATOM     21  C   UNL     1     -13.736   5.296  21.982  0.00  0.00    +0.305 C 
BRANCH  21   2
ATOM      2  O   UNL     1     -12.606   4.703  22.443  0.00  0.00    -0.481 OA
ATOM     30  H   UNL     1     -12.776   4.161  23.242  0.00  0.00    +0.295 HD
ENDBRANCH  21   2
ENDBRANCH  15  21
ENDBRANCH   9  15
BRANCH  18  22
ATOM     22  C   UNL     1     -11.581  10.679  17.111  0.00  0.00    +0.255 C 
BRANCH  22   4
ATOM      4  O   UNL     1     -10.647  11.336  16.289  0.00  0.00    -0.374 OA
ATOM     28  C   UNL     1     -10.285  12.615  16.805  0.00  0.00    +0.194 C 
ENDBRANCH  22   4
ENDBRANCH  18  22
TORSDOF 9
ENDMDL
MODEL 3
REMARK VINA RESULT:      -5.7     23.415     26.116
REMARK  Name = 28959856
REMARK  10 active torsions:
REMARK  status: ('A' for Active; 'I' for Inactive)
REMARK    1  A    between atoms: O_2  and  C_21
REMARK    2  A    between atoms: O_4  and  C_22
REMARK    3  A    between atoms: O_4  and  C_28
REMARK    4  A    between atoms: N_6  and  C_14
REMARK    5  A    between atoms: N_7  and  C_23
REMARK    6  A    between atoms: C_8  and  C_12
REMARK    7  A    between atoms: C_9  and  C_15
REMARK    8  A    between atoms: C_12  and  C_14
REMARK    9  A    between atoms: C_15  and  C_21
REMARK   10  A    between atoms: C_18  and  C_22
REMARK                            x       y       z     vdW  Elec       q    Type
REMARK                         _______ _______ _______ _____ _____    ______ ____
ROOT
ATOM      1  O   UNL     1      -7.434 -12.462  20.156  0.00  0.00    -0.273 OA
ATOM      5  N   UNL     1      -6.256 -10.991  18.798  0.00  0.00    -0.299 N 
ATOM      8  C   UNL     1      -5.462 -10.237  16.568  0.00  0.00    +0.011 C 
ATOM      9  C   UNL     1      -4.066 -10.818  16.910  0.00  0.00    +0.006 C 
ATOM     10  C   UNL     1      -6.202  -9.860  17.863  0.00  0.00    +0.111 C 
ATOM     11  C   UNL     1      -4.165 -11.965  17.929  0.00  0.00    +0.023 C 
ATOM     13  C   UNL     1      -4.952 -11.541  19.166  0.00  0.00    +0.108 C 
ATOM     18  C   UNL     1      -7.417 -11.527  19.352  0.00  0.00    +0.241 C 
ENDROOT
BRANCH   8  12
ATOM     12  C   UNL     1      -6.330 -11.167  15.710  0.00  0.00    +0.020 C 
BRANCH  12  14
ATOM     14  C   UNL     1      -7.055 -10.383  14.625  0.00  0.00    +0.085 C 
BRANCH  14   6
ATOM      6  N   UNL     1      -6.322 -10.485  13.364  0.00  0.00    -0.299 NA
ATOM      7  N   UNL     1      -6.010 -10.529  10.525  0.00  0.00    -0.327 N 
ATOM     16  C   UNL     1      -6.469  -9.253  12.580  0.00  0.00    +0.103 C 
ATOM     17  C   UNL     1      -6.798 -11.633  12.582  0.00  0.00    +0.103 C 
ATOM     19  C   UNL     1      -5.660  -9.324  11.283  0.00  0.00    +0.120 C 
ATOM     20  C   UNL     1      -5.999 -11.785  11.286  0.00  0.00    +0.120 C 
BRANCH   7  23
ATOM     23  C   UNL     1      -5.738 -10.589   9.154  0.00  0.00    +0.030 A 
ATOM     24  C   UNL     1      -6.340  -9.682   8.282  0.00  0.00    +0.023 A 
ATOM     25  C   UNL     1      -4.863 -11.556   8.657  0.00  0.00    +0.023 A 
ATOM     26  C   UNL     1      -6.069  -9.742   6.916  0.00  0.00    +0.002 A 
ATOM     27  C   UNL     1      -4.592 -11.616   7.291  0.00  0.00    +0.002 A 
ATOM     29  C   UNL     1      -5.194 -10.709   6.419  0.00  0.00    +0.000 A 
ENDBRANCH   7  23
ENDBRANCH  14   6
ENDBRANCH  12  14
ENDBRANCH   8  12
BRANCH   9  15
ATOM     15  C   UNL     1      -3.280 -11.261  15.675  0.00  0.00    +0.124 C 
BRANCH  15  21
ATOM      3  O   UNL     1      -1.490  -9.883  14.760  0.00  0.00    -0.251 OA
ATOM     21  C   UNL     1      -1.917 -10.629  15.628  0.00  0.00    +0.305 C 
BRANCH  21   2
ATOM      2  O   UNL     1      -1.200 -11.008  16.716  0.00  0.00    -0.481 OA
ATOM     30  H   UNL     1      -1.438 -11.911  17.016  0.00  0.00    +0.295 HD
ENDBRANCH  21   2
ENDBRANCH  15  21
ENDBRANCH   9  15
BRANCH  18  22
ATOM     22  C   UNL     1      -8.721 -10.906  18.919  0.00  0.00    +0.255 C 
BRANCH  22   4
ATOM      4  O   UNL     1      -9.469 -10.681  20.090  0.00  0.00    -0.374 OA
ATOM     28  C   UNL     1     -10.817 -10.315  19.803  0.00  0.00    +0.194 C 
ENDBRANCH  22   4
ENDBRANCH  18  22
TORSDOF 9
ENDMDL
MODEL 4
REMARK VINA RESULT:      -5.7     23.116     27.408
REMARK  Name = 28959856
REMARK  10 active torsions:
REMARK  status: ('A' for Active; 'I' for Inactive)
REMARK    1  A    between atoms: O_2  and  C_21
REMARK    2  A    between atoms: O_4  and  C_22
REMARK    3  A    between atoms: O_4  and  C_28
REMARK    4  A    between atoms: N_6  and  C_14
REMARK    5  A    between atoms: N_7  and  C_23
REMARK    6  A    between atoms: C_8  and  C_12
REMARK    7  A    between atoms: C_9  and  C_15
REMARK    8  A    between atoms: C_12  and  C_14
REMARK    9  A    between atoms: C_15  and  C_21
REMARK   10  A    between atoms: C_18  and  C_22
REMARK                            x       y       z     vdW  Elec       q    Type
REMARK                         _______ _______ _______ _____ _____    ______ ____
ROOT
ATOM      1  O   UNL     1      -4.022 -16.354  12.982  0.00  0.00    -0.273 OA
ATOM      5  N   UNL     1      -2.591 -14.525  12.945  0.00  0.00    -0.299 N 
ATOM      8  C   UNL     1      -1.988 -12.208  13.611  0.00  0.00    +0.011 C 
ATOM      9  C   UNL     1      -2.405 -11.733  12.195  0.00  0.00    +0.006 C 
ATOM     10  C   UNL     1      -1.555 -13.684  13.559  0.00  0.00    +0.111 C 
ATOM     11  C   UNL     1      -3.452 -12.670  11.570  0.00  0.00    +0.023 C 
ATOM     13  C   UNL     1      -2.983 -14.122  11.595  0.00  0.00    +0.108 C 
ATOM     18  C   UNL     1      -3.173 -15.648  13.531  0.00  0.00    +0.241 C 
ENDROOT
BRANCH   8  12
ATOM     12  C   UNL     1      -3.071 -12.008  14.678  0.00  0.00    +0.020 C 
BRANCH  12  14
ATOM     14  C   UNL     1      -2.604 -11.031  15.748  0.00  0.00    +0.085 C 
BRANCH  14   6
ATOM      6  N   UNL     1      -3.759 -10.477  16.454  0.00  0.00    -0.299 NA
ATOM      7  N   UNL     1      -6.447 -10.427  17.417  0.00  0.00    -0.327 N 
ATOM     16  C   UNL     1      -4.177 -11.371  17.541  0.00  0.00    +0.103 C 
ATOM     17  C   UNL     1      -4.876 -10.264  15.526  0.00  0.00    +0.103 C 
ATOM     19  C   UNL     1      -5.350 -10.777  18.324  0.00  0.00    +0.120 C 
ATOM     20  C   UNL     1      -6.072  -9.632  16.241  0.00  0.00    +0.120 C 
BRANCH   7  23
ATOM     23  C   UNL     1      -7.744 -10.281  17.922  0.00  0.00    +0.030 A 
ATOM     24  C   UNL     1      -8.137 -10.995  19.054  0.00  0.00    +0.023 A 
ATOM     25  C   UNL     1      -8.646  -9.422  17.294  0.00  0.00    +0.023 A 
ATOM     26  C   UNL     1      -9.429 -10.850  19.557  0.00  0.00    +0.002 A 
ATOM     27  C   UNL     1      -9.938  -9.276  17.797  0.00  0.00    +0.002 A 
ATOM     29  C   UNL     1     -10.331  -9.991  18.929  0.00  0.00    +0.000 A 
ENDBRANCH   7  23
ENDBRANCH  14   6
ENDBRANCH  12  14
ENDBRANCH   8  12
BRANCH   9  15
ATOM     15  C   UNL     1      -2.894 -10.284  12.167  0.00  0.00    +0.124 C 
BRANCH  15  21
ATOM      3  O   UNL     1      -3.141  -9.343   9.933  0.00  0.00    -0.251 OA
ATOM     21  C   UNL     1      -2.455  -9.575  10.917  0.00  0.00    +0.305 C 
BRANCH  21   2
ATOM      2  O   UNL     1      -1.152  -9.212  11.029  0.00  0.00    -0.481 OA
ATOM     30  H   UNL     1      -0.570  -9.752  10.454  0.00  0.00    +0.295 HD
ENDBRANCH  21   2
ENDBRANCH  15  21
ENDBRANCH   9  15
BRANCH  18  22
ATOM     22  C   UNL     1      -2.716 -15.995  14.925  0.00  0.00    +0.255 C 
BRANCH  22   4
ATOM      4  O   UNL     1      -3.740 -15.585  15.799  0.00  0.00    -0.374 OA
ATOM     28  C   UNL     1      -4.063 -16.590  16.757  0.00  0.00    +0.194 C 
ENDBRANCH  22   4
ENDBRANCH  18  22
TORSDOF 9
ENDMDL
MODEL 5
REMARK VINA RESULT:      -5.7     23.162     25.248
REMARK  Name = 28959856
REMARK  10 active torsions:
REMARK  status: ('A' for Active; 'I' for Inactive)
REMARK    1  A    between atoms: O_2  and  C_21
REMARK    2  A    between atoms: O_4  and  C_22
REMARK    3  A    between atoms: O_4  and  C_28
REMARK    4  A    between atoms: N_6  and  C_14
REMARK    5  A    between atoms: N_7  and  C_23
REMARK    6  A    between atoms: C_8  and  C_12
REMARK    7  A    between atoms: C_9  and  C_15
REMARK    8  A    between atoms: C_12  and  C_14
REMARK    9  A    between atoms: C_15  and  C_21
REMARK   10  A    between atoms: C_18  and  C_22
REMARK                            x       y       z     vdW  Elec       q    Type
REMARK                         _______ _______ _______ _____ _____    ______ ____
ROOT
ATOM      1  O   UNL     1      -8.076 -11.431  18.533  0.00  0.00    -0.273 OA
ATOM      5  N   UNL     1      -6.385 -10.358  17.355  0.00  0.00    -0.299 N 
ATOM      8  C   UNL     1      -4.783 -10.233  15.461  0.00  0.00    +0.011 C 
ATOM      9  C   UNL     1      -3.651 -10.638  16.440  0.00  0.00    +0.006 C 
ATOM     10  C   UNL     1      -5.916  -9.535  16.233  0.00  0.00    +0.111 C 
ATOM     11  C   UNL     1      -4.194 -11.454  17.625  0.00  0.00    +0.023 C 
ATOM     13  C   UNL     1      -5.346 -10.729  18.316  0.00  0.00    +0.108 C 
ATOM     18  C   UNL     1      -7.703 -10.761  17.567  0.00  0.00    +0.241 C 
ENDROOT
BRANCH   8  12
ATOM     12  C   UNL     1      -5.340 -11.401  14.637  0.00  0.00    +0.020 C 
BRANCH  12  14
ATOM     14  C   UNL     1      -4.748 -11.405  13.234  0.00  0.00    +0.085 C 
BRANCH  14   6
ATOM      6  N   UNL     1      -5.511 -10.505  12.370  0.00  0.00    -0.299 NA
ATOM      7  N   UNL     1      -6.467  -9.461   9.890  0.00  0.00    -0.327 N 
ATOM     16  C   UNL     1      -6.485 -11.260  11.571  0.00  0.00    +0.103 C 
ATOM     17  C   UNL     1      -4.612  -9.757  11.484  0.00  0.00    +0.103 C 
ATOM     19  C   UNL     1      -7.329 -10.324  10.703  0.00  0.00    +0.120 C 
ATOM     20  C   UNL     1      -5.393  -8.770  10.614  0.00  0.00    +0.120 C 
BRANCH   7  23
ATOM     23  C   UNL     1      -6.983  -8.852   8.740  0.00  0.00    +0.030 A 
ATOM     24  C   UNL     1      -7.712  -7.667   8.845  0.00  0.00    +0.023 A 
ATOM     25  C   UNL     1      -6.768  -9.428   7.488  0.00  0.00    +0.023 A 
ATOM     26  C   UNL     1      -8.226  -7.060   7.700  0.00  0.00    +0.002 A 
ATOM     27  C   UNL     1      -7.282  -8.821   6.343  0.00  0.00    +0.002 A 
ATOM     29  C   UNL     1      -8.011  -7.637   6.448  0.00  0.00    +0.000 A 
ENDBRANCH   7  23
ENDBRANCH  14   6
ENDBRANCH  12  14
ENDBRANCH   8  12
BRANCH   9  15
ATOM     15  C   UNL     1      -2.502 -11.380  15.757  0.00  0.00    +0.124 C 
BRANCH  15  21
ATOM      3  O   UNL     1      -1.507  -9.871  14.122  0.00  0.00    -0.251 OA
ATOM     21  C   UNL     1      -1.475 -10.428  15.209  0.00  0.00    +0.305 C 
BRANCH  21   2
ATOM      2  O   UNL     1      -0.476 -10.263  16.112  0.00  0.00    -0.481 OA
ATOM     30  H   UNL     1      -0.033 -11.111  16.328  0.00  0.00    +0.295 HD
ENDBRANCH  21   2
ENDBRANCH  15  21
ENDBRANCH   9  15
BRANCH  18  22
ATOM     22  C   UNL     1      -8.713 -10.340  16.530  0.00  0.00    +0.255 C 
BRANCH  22   4
ATOM      4  O   UNL     1      -9.581  -9.429  17.160  0.00  0.00    -0.374 OA
ATOM     28  C   UNL     1      -9.530  -8.136  16.561  0.00  0.00    +0.194 C 
ENDBRANCH  22   4
ENDBRANCH  18  22
TORSDOF 9
ENDMDL
MODEL 6
REMARK VINA RESULT:      -5.6      4.287      6.443
REMARK  Name = 28959856
REMARK  10 active torsions:
REMARK  status: ('A' for Active; 'I' for Inactive)
REMARK    1  A    between atoms: O_2  and  C_21
REMARK    2  A    between atoms: O_4  and  C_22
REMARK    3  A    between atoms: O_4  and  C_28
REMARK    4  A    between atoms: N_6  and  C_14
REMARK    5  A    between atoms: N_7  and  C_23
REMARK    6  A    between atoms: C_8  and  C_12
REMARK    7  A    between atoms: C_9  and  C_15
REMARK    8  A    between atoms: C_12  and  C_14
REMARK    9  A    between atoms: C_15  and  C_21
REMARK   10  A    between atoms: C_18  and  C_22
REMARK                            x       y       z     vdW  Elec       q    Type
REMARK                         _______ _______ _______ _____ _____    ______ ____
ROOT
ATOM      1  O   UNL     1       8.705   7.464   2.848  0.00  0.00    -0.273 OA
ATOM      5  N   UNL     1       8.824   7.628   5.162  0.00  0.00    -0.299 N 
ATOM      8  C   UNL     1      10.089   7.523   7.298  0.00  0.00    +0.011 C 
ATOM      9  C   UNL     1       9.444   6.140   7.569  0.00  0.00    +0.006 C 
ATOM     10  C   UNL     1       9.171   8.358   6.388  0.00  0.00    +0.111 C 
ATOM     11  C   UNL     1       9.051   5.433   6.261  0.00  0.00    +0.023 C 
ATOM     13  C   UNL     1       8.183   6.332   5.385  0.00  0.00    +0.108 C 
ATOM     18  C   UNL     1       9.030   8.086   3.862  0.00  0.00    +0.241 C 
ENDROOT
BRANCH   8  12
ATOM     12  C   UNL     1      11.501   7.446   6.702  0.00  0.00    +0.020 C 
BRANCH  12  14
ATOM     14  C   UNL     1      12.243   8.761   6.894  0.00  0.00    +0.085 C 
BRANCH  14   6
ATOM      6  N   UNL     1      13.492   8.742   6.133  0.00  0.00    -0.299 NA
ATOM      7  N   UNL     1      16.314   8.511   5.759  0.00  0.00    -0.327 N 
ATOM     16  C   UNL     1      14.155   7.439   6.263  0.00  0.00    +0.103 C 
ATOM     17  C   UNL     1      14.391   9.807   6.592  0.00  0.00    +0.103 C 
ATOM     19  C   UNL     1      15.435   7.386   5.425  0.00  0.00    +0.120 C 
ATOM     20  C   UNL     1      15.679   9.834   5.765  0.00  0.00    +0.120 C 
BRANCH   7  23
ATOM     23  C   UNL     1      17.678   8.438   5.456  0.00  0.00    +0.030 A 
ATOM     24  C   UNL     1      18.627   8.617   6.463  0.00  0.00    +0.023 A 
ATOM     25  C   UNL     1      18.091   8.187   4.147  0.00  0.00    +0.023 A 
ATOM     26  C   UNL     1      19.986   8.545   6.162  0.00  0.00    +0.002 A 
ATOM     27  C   UNL     1      19.450   8.115   3.846  0.00  0.00    +0.002 A 
ATOM     29  C   UNL     1      20.399   8.294   4.853  0.00  0.00    +0.000 A 
ENDBRANCH   7  23
ENDBRANCH  14   6
ENDBRANCH  12  14
ENDBRANCH   8  12
BRANCH   9  15
ATOM     15  C   UNL     1      10.318   5.228   8.433  0.00  0.00    +0.124 C 
BRANCH  15  21
ATOM      3  O   UNL     1      10.234   4.434  10.735  0.00  0.00    -0.251 OA
ATOM     21  C   UNL     1       9.707   4.995   9.786  0.00  0.00    +0.305 C 
BRANCH  21   2
ATOM      2  O   UNL     1       8.452   5.509   9.817  0.00  0.00    -0.481 OA
ATOM     30  H   UNL     1       7.990   5.300  10.657  0.00  0.00    +0.295 HD
ENDBRANCH  21   2
ENDBRANCH  15  21
ENDBRANCH   9  15
BRANCH  18  22
ATOM     22  C   UNL     1       9.699   9.430   3.718  0.00  0.00    +0.255 C 
BRANCH  22   4
ATOM      4  O   UNL     1      10.614   9.313   2.655  0.00  0.00    -0.374 OA
ATOM     28  C   UNL     1      11.824   8.674   3.057  0.00  0.00    +0.194 C 
ENDBRANCH  22   4
ENDBRANCH  18  22
TORSDOF 9
ENDMDL
MODEL 7
REMARK VINA RESULT:      -5.6     14.413     18.050
REMARK  Name = 28959856
REMARK  10 active torsions:
REMARK  status: ('A' for Active; 'I' for Inactive)
REMARK    1  A    between atoms: O_2  and  C_21
REMARK    2  A    between atoms: O_4  and  C_22
REMARK    3  A    between atoms: O_4  and  C_28
REMARK    4  A    between atoms: N_6  and  C_14
REMARK    5  A    between atoms: N_7  and  C_23
REMARK    6  A    between atoms: C_8  and  C_12
REMARK    7  A    between atoms: C_9  and  C_15
REMARK    8  A    between atoms: C_12  and  C_14
REMARK    9  A    between atoms: C_15  and  C_21
REMARK   10  A    between atoms: C_18  and  C_22
REMARK                            x       y       z     vdW  Elec       q    Type
REMARK                         _______ _______ _______ _____ _____    ______ ____
ROOT
ATOM      1  O   UNL     1      13.223  -8.299  -6.094  0.00  0.00    -0.273 OA
ATOM      5  N   UNL     1      14.817  -6.621  -5.901  0.00  0.00    -0.299 N 
ATOM      8  C   UNL     1      16.758  -5.572  -4.757  0.00  0.00    +0.011 C 
ATOM      9  C   UNL     1      15.788  -4.527  -4.150  0.00  0.00    +0.006 C 
ATOM     10  C   UNL     1      16.183  -6.112  -6.079  0.00  0.00    +0.111 C 
ATOM     11  C   UNL     1      14.360  -5.084  -4.029  0.00  0.00    +0.023 C 
ATOM     13  C   UNL     1      13.869  -5.647  -5.360  0.00  0.00    +0.108 C 
ATOM     18  C   UNL     1      14.384  -7.904  -6.229  0.00  0.00    +0.241 C 
ENDROOT
BRANCH   8  12
ATOM     12  C   UNL     1      17.096  -6.731  -3.811  0.00  0.00    +0.020 C 
BRANCH  12  14
ATOM     14  C   UNL     1      18.594  -6.800  -3.551  0.00  0.00    +0.085 C 
BRANCH  14   6
ATOM      6  N   UNL     1      18.852  -6.749  -2.112  0.00  0.00    -0.299 NA
ATOM      7  N   UNL     1      20.442  -6.467   0.243  0.00  0.00    -0.327 N 
ATOM     16  C   UNL     1      19.391  -5.438  -1.732  0.00  0.00    +0.103 C 
ATOM     17  C   UNL     1      19.789  -7.808  -1.719  0.00  0.00    +0.103 C 
ATOM     19  C   UNL     1      19.613  -5.351  -0.219  0.00  0.00    +0.120 C 
ATOM     20  C   UNL     1      20.023  -7.801  -0.207  0.00  0.00    +0.120 C 
BRANCH   7  23
ATOM     23  C   UNL     1      21.120  -6.368   1.463  0.00  0.00    +0.030 A 
ATOM     24  C   UNL     1      21.355  -7.512   2.226  0.00  0.00    +0.023 A 
ATOM     25  C   UNL     1      21.562  -5.126   1.918  0.00  0.00    +0.023 A 
ATOM     26  C   UNL     1      22.031  -7.413   3.442  0.00  0.00    +0.002 A 
ATOM     27  C   UNL     1      22.238  -5.027   3.133  0.00  0.00    +0.002 A 
ATOM     29  C   UNL     1      22.473  -6.171   3.896  0.00  0.00    +0.000 A 
ENDBRANCH   7  23
ENDBRANCH  14   6
ENDBRANCH  12  14
ENDBRANCH   8  12
BRANCH   9  15
ATOM     15  C   UNL     1      16.266  -3.972  -2.807  0.00  0.00    +0.124 C 
BRANCH  15  21
ATOM      3  O   UNL     1      17.281  -2.123  -4.029  0.00  0.00    -0.251 OA
ATOM     21  C   UNL     1      17.084  -2.723  -2.982  0.00  0.00    +0.305 C 
BRANCH  21   2
ATOM      2  O   UNL     1      17.591  -2.336  -1.784  0.00  0.00    -0.481 OA
ATOM     30  H   UNL     1      18.434  -2.792  -1.579  0.00  0.00    +0.295 HD
ENDBRANCH  21   2
ENDBRANCH  15  21
ENDBRANCH   9  15
BRANCH  18  22
ATOM     22  C   UNL     1      15.423  -8.848  -6.778  0.00  0.00    +0.255 C 
BRANCH  22   4
ATOM      4  O   UNL     1      15.915  -9.586  -5.686  0.00  0.00    -0.374 OA
ATOM     28  C   UNL     1      17.299  -9.898  -5.830  0.00  0.00    +0.194 C 
ENDBRANCH  22   4
ENDBRANCH  18  22
TORSDOF 9
ENDMDL
MODEL 8
REMARK VINA RESULT:      -5.4     34.744     37.583
REMARK  Name = 28959856
REMARK  10 active torsions:
REMARK  status: ('A' for Active; 'I' for Inactive)
REMARK    1  A    between atoms: O_2  and  C_21
REMARK    2  A    between atoms: O_4  and  C_22
REMARK    3  A    between atoms: O_4  and  C_28
REMARK    4  A    between atoms: N_6  and  C_14
REMARK    5  A    between atoms: N_7  and  C_23
REMARK    6  A    between atoms: C_8  and  C_12
REMARK    7  A    between atoms: C_9  and  C_15
REMARK    8  A    between atoms: C_12  and  C_14
REMARK    9  A    between atoms: C_15  and  C_21
REMARK   10  A    between atoms: C_18  and  C_22
REMARK                            x       y       z     vdW  Elec       q    Type
REMARK                         _______ _______ _______ _____ _____    ______ ____
ROOT
ATOM      1  O   UNL     1      -8.872   8.759  36.360  0.00  0.00    -0.273 OA
ATOM      5  N   UNL     1     -10.470   9.851  35.075  0.00  0.00    -0.299 N 
ATOM      8  C   UNL     1     -12.492   9.841  33.631  0.00  0.00    +0.011 C 
ATOM      9  C   UNL     1     -11.569  10.043  32.401  0.00  0.00    +0.006 C 
ATOM     10  C   UNL     1     -11.815  10.410  34.890  0.00  0.00    +0.111 C 
ATOM     11  C   UNL     1     -10.157   9.488  32.657  0.00  0.00    +0.023 C 
ATOM     13  C   UNL     1      -9.564  10.054  33.945  0.00  0.00    +0.108 C 
ATOM     18  C   UNL     1     -10.017   9.197  36.219  0.00  0.00    +0.241 C 
ENDROOT
BRANCH   8  12
ATOM     12  C   UNL     1     -12.909   8.383  33.863  0.00  0.00    +0.020 C 
BRANCH  12  14
ATOM     14  C   UNL     1     -14.425   8.247  33.871  0.00  0.00    +0.085 C 
BRANCH  14   6
ATOM      6  N   UNL     1     -14.803   6.881  33.510  0.00  0.00    -0.299 NA
ATOM      7  N   UNL     1     -14.433   4.288  32.374  0.00  0.00    -0.327 N 
ATOM     16  C   UNL     1     -13.903   5.912  34.146  0.00  0.00    +0.103 C 
ATOM     17  C   UNL     1     -14.776   6.707  32.053  0.00  0.00    +0.103 C 
ATOM     19  C   UNL     1     -14.321   4.476  33.823  0.00  0.00    +0.120 C 
ATOM     20  C   UNL     1     -15.225   5.298  31.660  0.00  0.00    +0.120 C 
BRANCH   7  23
ATOM     23  C   UNL     1     -14.376   2.997  31.835  0.00  0.00    +0.030 A 
ATOM     24  C   UNL     1     -14.967   1.931  32.514  0.00  0.00    +0.023 A 
ATOM     25  C   UNL     1     -13.728   2.776  30.620  0.00  0.00    +0.023 A 
ATOM     26  C   UNL     1     -14.910   0.645  31.977  0.00  0.00    +0.002 A 
ATOM     27  C   UNL     1     -13.671   1.490  30.083  0.00  0.00    +0.002 A 
ATOM     29  C   UNL     1     -14.262   0.424  30.761  0.00  0.00    +0.000 A 
ENDBRANCH   7  23
ENDBRANCH  14   6
ENDBRANCH  12  14
ENDBRANCH   8  12
BRANCH   9  15
ATOM     15  C   UNL     1     -12.150   9.462  31.112  0.00  0.00    +0.124 C 
BRANCH  15  21
ATOM      3  O   UNL     1     -11.395   9.824  28.823  0.00  0.00    -0.251 OA
ATOM     21  C   UNL     1     -11.742  10.265  29.909  0.00  0.00    +0.305 C 
BRANCH  21   2
ATOM      2  O   UNL     1     -11.812  11.589  30.196  0.00  0.00    -0.481 OA
ATOM     30  H   UNL     1     -12.192  11.751  31.086  0.00  0.00    +0.295 HD
ENDBRANCH  21   2
ENDBRANCH  15  21
ENDBRANCH   9  15
BRANCH  18  22
ATOM     22  C   UNL     1     -11.012   9.025  37.339  0.00  0.00    +0.255 C 
BRANCH  22   4
ATOM      4  O   UNL     1     -10.739  10.035  38.280  0.00  0.00    -0.374 OA
ATOM     28  C   UNL     1     -11.139   9.663  39.597  0.00  0.00    +0.194 C 
ENDBRANCH  22   4
ENDBRANCH  18  22
TORSDOF 9
ENDMDL
MODEL 9
REMARK VINA RESULT:      -5.4     25.534     29.522
REMARK  Name = 28959856
REMARK  10 active torsions:
REMARK  status: ('A' for Active; 'I' for Inactive)
REMARK    1  A    between atoms: O_2  and  C_21
REMARK    2  A    between atoms: O_4  and  C_22
REMARK    3  A    between atoms: O_4  and  C_28
REMARK    4  A    between atoms: N_6  and  C_14
REMARK    5  A    between atoms: N_7  and  C_23
REMARK    6  A    between atoms: C_8  and  C_12
REMARK    7  A    between atoms: C_9  and  C_15
REMARK    8  A    between atoms: C_12  and  C_14
REMARK    9  A    between atoms: C_15  and  C_21
REMARK   10  A    between atoms: C_18  and  C_22
REMARK                            x       y       z     vdW  Elec       q    Type
REMARK                         _______ _______ _______ _____ _____    ______ ____
ROOT
ATOM      1  O   UNL     1     -12.455 -12.548  21.503  0.00  0.00    -0.273 OA
ATOM      5  N   UNL     1     -11.334 -12.165  19.504  0.00  0.00    -0.299 N 
ATOM      8  C   UNL     1      -9.344 -11.403  18.228  0.00  0.00    +0.011 C 
ATOM      9  C   UNL     1     -10.109 -10.099  17.885  0.00  0.00    +0.006 C 
ATOM     10  C   UNL     1     -10.344 -12.543  18.487  0.00  0.00    +0.111 C 
ATOM     11  C   UNL     1     -11.168  -9.770  18.950  0.00  0.00    +0.023 C 
ATOM     13  C   UNL     1     -12.096 -10.956  19.195  0.00  0.00    +0.108 C 
ATOM     18  C   UNL     1     -11.599 -12.872  20.676  0.00  0.00    +0.241 C 
ENDROOT
BRANCH   8  12
ATOM     12  C   UNL     1      -8.376 -11.265  19.410  0.00  0.00    +0.020 C 
BRANCH  12  14
ATOM     14  C   UNL     1      -7.561 -12.538  19.595  0.00  0.00    +0.085 C 
BRANCH  14   6
ATOM      6  N   UNL     1      -6.306 -12.438  18.850  0.00  0.00    -0.299 NA
ATOM      7  N   UNL     1      -4.537 -11.431  16.848  0.00  0.00    -0.327 N 
ATOM     16  C   UNL     1      -5.745 -11.087  18.966  0.00  0.00    +0.103 C 
ATOM     17  C   UNL     1      -6.519 -12.771  17.437  0.00  0.00    +0.103 C 
ATOM     19  C   UNL     1      -4.403 -10.983  18.237  0.00  0.00    +0.120 C 
ATOM     20  C   UNL     1      -5.202 -12.726  16.658  0.00  0.00    +0.120 C 
BRANCH   7  23
ATOM     23  C   UNL     1      -3.591 -11.033  15.897  0.00  0.00    +0.030 A 
ATOM     24  C   UNL     1      -3.952 -10.928  14.554  0.00  0.00    +0.023 A 
ATOM     25  C   UNL     1      -2.285 -10.740  16.291  0.00  0.00    +0.023 A 
ATOM     26  C   UNL     1      -3.010 -10.531  13.606  0.00  0.00    +0.002 A 
ATOM     27  C   UNL     1      -1.342 -10.343  15.343  0.00  0.00    +0.002 A 
ATOM     29  C   UNL     1      -1.704 -10.238  14.000  0.00  0.00    +0.000 A 
ENDBRANCH   7  23
ENDBRANCH  14   6
ENDBRANCH  12  14
ENDBRANCH   8  12
BRANCH   9  15
ATOM     15  C   UNL     1      -9.185  -8.902  17.656  0.00  0.00    +0.124 C 
BRANCH  15  21
ATOM      3  O   UNL     1      -7.204  -9.362  16.312  0.00  0.00    -0.251 OA
ATOM     21  C   UNL     1      -8.384  -9.054  16.393  0.00  0.00    +0.305 C 
BRANCH  21   2
ATOM      2  O   UNL     1      -9.171  -8.797  15.318  0.00  0.00    -0.481 OA
ATOM     30  H   UNL     1     -10.125  -8.866  15.537  0.00  0.00    +0.295 HD
ENDBRANCH  21   2
ENDBRANCH  15  21
ENDBRANCH   9  15
BRANCH  18  22
ATOM     22  C   UNL     1     -10.768 -14.106  20.923  0.00  0.00    +0.255 C 
BRANCH  22   4
ATOM      4  O   UNL     1     -11.487 -14.901  21.835  0.00  0.00    -0.374 OA
ATOM     28  C   UNL     1     -10.799 -15.051  23.075  0.00  0.00    +0.194 C 
ENDBRANCH  22   4
ENDBRANCH  18  22
TORSDOF 9
ENDMDL
MODEL 10
REMARK VINA RESULT:      -5.4     25.164     28.675
REMARK  Name = 28959856
REMARK  10 active torsions:
REMARK  status: ('A' for Active; 'I' for Inactive)
REMARK    1  A    between atoms: O_2  and  C_21
REMARK    2  A    between atoms: O_4  and  C_22
REMARK    3  A    between atoms: O_4  and  C_28
REMARK    4  A    between atoms: N_6  and  C_14
REMARK    5  A    between atoms: N_7  and  C_23
REMARK    6  A    between atoms: C_8  and  C_12
REMARK    7  A    between atoms: C_9  and  C_15
REMARK    8  A    between atoms: C_12  and  C_14
REMARK    9  A    between atoms: C_15  and  C_21
REMARK   10  A    between atoms: C_18  and  C_22
REMARK                            x       y       z     vdW  Elec       q    Type
REMARK                         _______ _______ _______ _____ _____    ______ ____
ROOT
ATOM      1  O   UNL     1      -8.015 -14.569  17.208  0.00  0.00    -0.273 OA
ATOM      5  N   UNL     1      -6.560 -12.938  17.992  0.00  0.00    -0.299 N 
ATOM      8  C   UNL     1      -5.566 -10.663  17.887  0.00  0.00    +0.011 C 
ATOM      9  C   UNL     1      -4.299 -11.287  17.248  0.00  0.00    +0.006 C 
ATOM     10  C   UNL     1      -6.284 -11.713  18.754  0.00  0.00    +0.111 C 
ATOM     11  C   UNL     1      -4.625 -12.593  16.504  0.00  0.00    +0.023 C 
ATOM     13  C   UNL     1      -5.379 -13.569  17.403  0.00  0.00    +0.108 C 
ATOM     18  C   UNL     1      -7.814 -13.524  17.830  0.00  0.00    +0.241 C 
ENDROOT
BRANCH   8  12
ATOM     12  C   UNL     1      -6.541 -10.054  16.871  0.00  0.00    +0.020 C 
BRANCH  12  14
ATOM     14  C   UNL     1      -7.792  -9.533  17.565  0.00  0.00    +0.085 C 
BRANCH  14   6
ATOM      6  N   UNL     1      -8.594  -8.754  16.622  0.00  0.00    -0.299 NA
ATOM      7  N   UNL     1     -10.979  -7.950  15.272  0.00  0.00    -0.327 N 
ATOM     16  C   UNL     1      -9.631  -7.995  17.332  0.00  0.00    +0.103 C 
ATOM     17  C   UNL     1      -9.215  -9.634  15.624  0.00  0.00    +0.103 C 
ATOM     19  C   UNL     1     -10.443  -7.132  16.363  0.00  0.00    +0.120 C 
ATOM     20  C   UNL     1     -10.011  -8.825  14.598  0.00  0.00    +0.120 C 
BRANCH   7  23
ATOM     23  C   UNL     1     -12.073  -7.488  14.532  0.00  0.00    +0.030 A 
ATOM     24  C   UNL     1     -12.504  -8.194  13.408  0.00  0.00    +0.023 A 
ATOM     25  C   UNL     1     -12.734  -6.322  14.917  0.00  0.00    +0.023 A 
ATOM     26  C   UNL     1     -13.595  -7.734  12.671  0.00  0.00    +0.002 A 
ATOM     27  C   UNL     1     -13.825  -5.862  14.180  0.00  0.00    +0.002 A 
ATOM     29  C   UNL     1     -14.256  -6.567  13.057  0.00  0.00    +0.000 A 
ENDBRANCH   7  23
ENDBRANCH  14   6
ENDBRANCH  12  14
ENDBRANCH   8  12
BRANCH   9  15
ATOM     15  C   UNL     1      -3.549 -10.318  16.332  0.00  0.00    +0.124 C 
BRANCH  15  21
ATOM      3  O   UNL     1      -1.935 -11.193  14.729  0.00  0.00    -0.251 OA
ATOM     21  C   UNL     1      -2.237 -10.891  15.874  0.00  0.00    +0.305 C 
BRANCH  21   2
ATOM      2  O   UNL     1      -1.404 -11.032  16.936  0.00  0.00    -0.481 OA
ATOM     30  H   UNL     1      -0.461 -10.983  16.671  0.00  0.00    +0.295 HD
ENDBRANCH  21   2
ENDBRANCH  15  21
ENDBRANCH   9  15
BRANCH  18  22
ATOM     22  C   UNL     1      -8.980 -12.810  18.466  0.00  0.00    +0.255 C 
BRANCH  22   4
ATOM      4  O   UNL     1      -9.641 -13.755  19.272  0.00  0.00    -0.374 OA
ATOM     28  C   UNL     1      -8.996 -13.931  20.532  0.00  0.00    +0.194 C 
ENDBRANCH  22   4
ENDBRANCH  18  22
TORSDOF 9
ENDMDL
