MODEL 1
REMARK VINA RESULT:      -6.5      0.000      0.000
REMARK  Name = 38027174
REMARK  12 active torsions:
REMARK  status: ('A' for Active; 'I' for Inactive)
REMARK    1  A    between atoms: N_3  and  C_13
REMARK    2  A    between atoms: N_4  and  C_20
REMARK    3  A    between atoms: N_4  and  C_21
REMARK    4  A    between atoms: C_6  and  C_10
REMARK    5  A    between atoms: C_7  and  C_13
REMARK    6  A    between atoms: C_9  and  C_14
REMARK    7  A    between atoms: C_10  and  C_15
REMARK    8  A    between atoms: C_10  and  C_16
REMARK    9  A    between atoms: C_11  and  C_17
REMARK   10  A    between atoms: C_14  and  C_18
REMARK   11  A    between atoms: C_19  and  C_22
REMARK   12  A    between atoms: C_20  and  C_23
REMARK                            x       y       z     vdW  Elec       q    Type
REMARK                         _______ _______ _______ _____ _____    ______ ____
ROOT
ATOM      6  C   UNL     1      13.439  10.270  20.543  0.00  0.00    +0.000 C 
ATOM      7  C   UNL     1      13.271   9.959  22.051  0.00  0.00    +0.032 C 
ATOM      8  C   UNL     1      12.091  10.145  19.816  0.00  0.00    +0.012 C 
ATOM      9  C   UNL     1      11.479   8.738  19.960  0.00  0.00    +0.023 C 
ATOM     11  C   UNL     1      11.524   8.249  21.393  0.00  0.00    -0.073 C 
ATOM     12  C   UNL     1      12.321   8.815  22.317  0.00  0.00    -0.022 C 
ATOM     17  C   UNL     1      10.596   7.122  21.753  0.00  0.00    +0.039 C 
ENDROOT
BRANCH   6  10
ATOM     10  C   UNL     1      14.025  11.666  20.311  0.00  0.00    -0.013 C 
ATOM     15  C   UNL     1      13.028  12.546  19.566  0.00  0.00    +0.007 C 
ATOM     16  C   UNL     1      15.341  11.569  19.544  0.00  0.00    +0.007 C 
ENDBRANCH   6  10
BRANCH   7  13
ATOM     13  C   UNL     1      14.624   9.662  22.708  0.00  0.00    +0.112 C 
BRANCH  13   3
ATOM      2  O   UNL     1      17.364   9.739  21.852  0.00  0.00    -0.270 OA
ATOM      3  N   UNL     1      15.323   8.642  21.992  0.00  0.00    -0.311 N 
ATOM     19  C   UNL     1      16.659   8.761  21.614  0.00  0.00    +0.246 C 
ATOM     33  H   UNL     1      14.833   7.767  21.833  0.00  0.00    +0.149 HD
BRANCH  19  22
ATOM      5  N   UNL     1      19.123   6.184  20.397  0.00  0.00    -0.263 NA
ATOM     22  C   UNL     1      17.234   7.623  20.850  0.00  0.00    +0.055 A 
ATOM     24  C   UNL     1      16.476   6.938  19.906  0.00  0.00    +0.016 A 
ATOM     25  C   UNL     1      18.541   7.210  21.056  0.00  0.00    +0.123 A 
ATOM     28  C   UNL     1      17.041   5.878  19.207  0.00  0.00    +0.020 A 
ATOM     31  C   UNL     1      18.357   5.543  19.486  0.00  0.00    +0.111 A 
ENDBRANCH  19  22
ENDBRANCH  13   3
ENDBRANCH   7  13
BRANCH   9  14
ATOM     14  C   UNL     1      12.162   7.740  19.018  0.00  0.00    +0.103 C 
BRANCH  14  18
ATOM      1  O   UNL     1      11.041   8.250  16.962  0.00  0.00    -0.276 OA
ATOM      4  N   UNL     1      13.343   8.526  16.996  0.00  0.00    -0.300 N 
ATOM     18  C   UNL     1      12.112   8.191  17.570  0.00  0.00    +0.216 C 
ATOM     21  C   UNL     1      14.598   8.449  17.735  0.00  0.00    +0.132 C 
BRANCH   4  20
ATOM     20  C   UNL     1      13.465   8.978  15.612  0.00  0.00    +0.142 C 
BRANCH  20  23
ATOM     23  C   UNL     1      14.262  10.246  15.504  0.00  0.00    -0.030 A 
ATOM     26  C   UNL     1      15.426  10.274  14.734  0.00  0.00    +0.005 A 
ATOM     27  C   UNL     1      13.840  11.395  16.171  0.00  0.00    +0.005 A 
ATOM     29  C   UNL     1      16.167  11.452  14.632  0.00  0.00    +0.000 A 
ATOM     30  C   UNL     1      14.581  12.572  16.070  0.00  0.00    +0.000 A 
ATOM     32  C   UNL     1      15.744  12.602  15.301  0.00  0.00    +0.000 A 
ENDBRANCH  20  23
ENDBRANCH   4  20
ENDBRANCH  14  18
ENDBRANCH   9  14
TORSDOF 8
ENDMDL
MODEL 2
REMARK VINA RESULT:      -6.5     26.324     29.060
REMARK  Name = 38027174
REMARK  12 active torsions:
REMARK  status: ('A' for Active; 'I' for Inactive)
REMARK    1  A    between atoms: N_3  and  C_13
REMARK    2  A    between atoms: N_4  and  C_20
REMARK    3  A    between atoms: N_4  and  C_21
REMARK    4  A    between atoms: C_6  and  C_10
REMARK    5  A    between atoms: C_7  and  C_13
REMARK    6  A    between atoms: C_9  and  C_14
REMARK    7  A    between atoms: C_10  and  C_15
REMARK    8  A    between atoms: C_10  and  C_16
REMARK    9  A    between atoms: C_11  and  C_17
REMARK   10  A    between atoms: C_14  and  C_18
REMARK   11  A    between atoms: C_19  and  C_22
REMARK   12  A    between atoms: C_20  and  C_23
REMARK                            x       y       z     vdW  Elec       q    Type
REMARK                         _______ _______ _______ _____ _____    ______ ____
ROOT
ATOM      6  C   UNL     1      -3.050 -12.176  12.632  0.00  0.00    +0.000 C 
ATOM      7  C   UNL     1      -1.993 -11.052  12.494  0.00  0.00    +0.032 C 
ATOM      8  C   UNL     1      -3.604 -12.563  11.252  0.00  0.00    +0.012 C 
ATOM      9  C   UNL     1      -4.253 -11.368  10.528  0.00  0.00    +0.023 C 
ATOM     11  C   UNL     1      -3.377 -10.133  10.584  0.00  0.00    -0.073 C 
ATOM     12  C   UNL     1      -2.363 -10.015  11.460  0.00  0.00    -0.022 C 
ATOM     17  C   UNL     1      -3.663  -9.054   9.576  0.00  0.00    +0.039 C 
ENDROOT
BRANCH   6  10
ATOM     10  C   UNL     1      -2.477 -13.415  13.327  0.00  0.00    -0.013 C 
ATOM     15  C   UNL     1      -2.258 -14.538  12.319  0.00  0.00    +0.007 C 
ATOM     16  C   UNL     1      -3.403 -13.870  14.451  0.00  0.00    +0.007 C 
ENDBRANCH   6  10
BRANCH   7  13
ATOM     13  C   UNL     1      -1.739 -10.363  13.840  0.00  0.00    +0.112 C 
BRANCH  13   3
ATOM      2  O   UNL     1      -2.073 -10.920  16.637  0.00  0.00    -0.270 OA
ATOM      3  N   UNL     1      -2.950 -10.259  14.593  0.00  0.00    -0.311 N 
ATOM     19  C   UNL     1      -3.024 -10.550  15.954  0.00  0.00    +0.246 C 
ATOM     33  H   UNL     1      -3.762  -9.876  14.117  0.00  0.00    +0.149 HD
BRANCH  19  22
ATOM      5  N   UNL     1      -6.640  -9.617  16.451  0.00  0.00    -0.263 NA
ATOM     22  C   UNL     1      -4.363 -10.418  16.585  0.00  0.00    +0.055 A 
ATOM     24  C   UNL     1      -4.614 -10.942  17.849  0.00  0.00    +0.016 A 
ATOM     25  C   UNL     1      -5.401  -9.770  15.934  0.00  0.00    +0.123 A 
ATOM     28  C   UNL     1      -5.876 -10.802  18.415  0.00  0.00    +0.020 A 
ATOM     31  C   UNL     1      -6.847 -10.137  17.681  0.00  0.00    +0.111 A 
ENDBRANCH  19  22
ENDBRANCH  13   3
ENDBRANCH   7  13
BRANCH   9  14
ATOM     14  C   UNL     1      -5.649 -11.075  11.088  0.00  0.00    +0.103 C 
BRANCH  14  18
ATOM      1  O   UNL     1      -6.506 -11.359   8.867  0.00  0.00    -0.276 OA
ATOM      4  N   UNL     1      -7.807 -10.130  10.341  0.00  0.00    -0.300 N 
ATOM     18  C   UNL     1      -6.678 -10.878   9.989  0.00  0.00    +0.216 C 
ATOM     21  C   UNL     1      -7.989  -9.570  11.676  0.00  0.00    +0.132 C 
BRANCH   4  20
ATOM     20  C   UNL     1      -8.887  -9.851   9.399  0.00  0.00    +0.142 C 
BRANCH  20  23
ATOM     23  C   UNL     1      -8.948  -8.397   9.029  0.00  0.00    -0.030 A 
ATOM     26  C   UNL     1     -10.122  -7.673   9.241  0.00  0.00    +0.005 A 
ATOM     27  C   UNL     1      -7.833  -7.771   8.473  0.00  0.00    +0.005 A 
ATOM     29  C   UNL     1     -10.180  -6.322   8.899  0.00  0.00    +0.000 A 
ATOM     30  C   UNL     1      -7.892  -6.420   8.129  0.00  0.00    +0.000 A 
ATOM     32  C   UNL     1      -9.064  -5.695   8.342  0.00  0.00    +0.000 A 
ENDBRANCH  20  23
ENDBRANCH   4  20
ENDBRANCH  14  18
ENDBRANCH   9  14
TORSDOF 8
ENDMDL
MODEL 3
REMARK VINA RESULT:      -6.4      2.677      5.861
REMARK  Name = 38027174
REMARK  12 active torsions:
REMARK  status: ('A' for Active; 'I' for Inactive)
REMARK    1  A    between atoms: N_3  and  C_13
REMARK    2  A    between atoms: N_4  and  C_20
REMARK    3  A    between atoms: N_4  and  C_21
REMARK    4  A    between atoms: C_6  and  C_10
REMARK    5  A    between atoms: C_7  and  C_13
REMARK    6  A    between atoms: C_9  and  C_14
REMARK    7  A    between atoms: C_10  and  C_15
REMARK    8  A    between atoms: C_10  and  C_16
REMARK    9  A    between atoms: C_11  and  C_17
REMARK   10  A    between atoms: C_14  and  C_18
REMARK   11  A    between atoms: C_19  and  C_22
REMARK   12  A    between atoms: C_20  and  C_23
REMARK                            x       y       z     vdW  Elec       q    Type
REMARK                         _______ _______ _______ _____ _____    ______ ____
ROOT
ATOM      6  C   UNL     1      12.766   8.917  20.739  0.00  0.00    +0.000 C 
ATOM      7  C   UNL     1      12.856   7.850  19.619  0.00  0.00    +0.032 C 
ATOM      8  C   UNL     1      12.367  10.279  20.152  0.00  0.00    +0.012 C 
ATOM      9  C   UNL     1      13.368  10.771  19.089  0.00  0.00    +0.023 C 
ATOM     11  C   UNL     1      13.714   9.681  18.095  0.00  0.00    -0.073 C 
ATOM     12  C   UNL     1      13.466   8.382  18.343  0.00  0.00    -0.022 C 
ATOM     17  C   UNL     1      14.312  10.121  16.787  0.00  0.00    +0.039 C 
ENDROOT
BRANCH   6  10
ATOM     10  C   UNL     1      11.772   8.512  21.832  0.00  0.00    -0.013 C 
ATOM     15  C   UNL     1      10.583   7.775  21.223  0.00  0.00    +0.007 C 
ATOM     16  C   UNL     1      11.307   9.740  22.609  0.00  0.00    +0.007 C 
ENDBRANCH   6  10
BRANCH   7  13
ATOM     13  C   UNL     1      13.643   6.621  20.088  0.00  0.00    +0.112 C 
BRANCH  13   3
ATOM      2  O   UNL     1      16.152   5.928  18.875  0.00  0.00    -0.270 OA
ATOM      3  N   UNL     1      14.944   6.995  20.545  0.00  0.00    -0.311 N 
ATOM     19  C   UNL     1      16.116   6.615  19.893  0.00  0.00    +0.246 C 
ATOM     33  H   UNL     1      14.994   7.635  21.332  0.00  0.00    +0.149 HD
BRANCH  19  22
ATOM      5  N   UNL     1      18.585   8.707  21.820  0.00  0.00    -0.263 NA
ATOM     22  C   UNL     1      17.391   7.063  20.510  0.00  0.00    +0.055 A 
ATOM     24  C   UNL     1      18.554   6.310  20.381  0.00  0.00    +0.016 A 
ATOM     25  C   UNL     1      17.460   8.244  21.233  0.00  0.00    +0.123 A 
ATOM     28  C   UNL     1      19.732   6.756  20.969  0.00  0.00    +0.020 A 
ATOM     31  C   UNL     1      19.696   7.951  21.672  0.00  0.00    +0.111 A 
ENDBRANCH  19  22
ENDBRANCH  13   3
ENDBRANCH   7  13
BRANCH   9  14
ATOM     14  C   UNL     1      14.632  11.340  19.741  0.00  0.00    +0.103 C 
BRANCH  14  18
ATOM      1  O   UNL     1      13.848  13.546  20.256  0.00  0.00    -0.276 OA
ATOM      4  N   UNL     1      14.616  12.267  22.031  0.00  0.00    -0.300 N 
ATOM     18  C   UNL     1      14.325  12.491  20.681  0.00  0.00    +0.216 C 
ATOM     21  C   UNL     1      15.181  11.011  22.511  0.00  0.00    +0.132 C 
BRANCH   4  20
ATOM     20  C   UNL     1      14.379  13.274  23.062  0.00  0.00    +0.142 C 
BRANCH  20  23
ATOM     23  C   UNL     1      13.009  13.150  23.664  0.00  0.00    -0.030 A 
ATOM     26  C   UNL     1      11.931  13.823  23.089  0.00  0.00    +0.005 A 
ATOM     27  C   UNL     1      12.815  12.362  24.798  0.00  0.00    +0.005 A 
ATOM     29  C   UNL     1      10.658  13.707  23.647  0.00  0.00    +0.000 A 
ATOM     30  C   UNL     1      11.542  12.247  25.357  0.00  0.00    +0.000 A 
ATOM     32  C   UNL     1      10.463  12.919  24.782  0.00  0.00    +0.000 A 
ENDBRANCH  20  23
ENDBRANCH   4  20
ENDBRANCH  14  18
ENDBRANCH   9  14
TORSDOF 8
ENDMDL
MODEL 4
REMARK VINA RESULT:      -6.1     12.487     15.368
REMARK  Name = 38027174
REMARK  12 active torsions:
REMARK  status: ('A' for Active; 'I' for Inactive)
REMARK    1  A    between atoms: N_3  and  C_13
REMARK    2  A    between atoms: N_4  and  C_20
REMARK    3  A    between atoms: N_4  and  C_21
REMARK    4  A    between atoms: C_6  and  C_10
REMARK    5  A    between atoms: C_7  and  C_13
REMARK    6  A    between atoms: C_9  and  C_14
REMARK    7  A    between atoms: C_10  and  C_15
REMARK    8  A    between atoms: C_10  and  C_16
REMARK    9  A    between atoms: C_11  and  C_17
REMARK   10  A    between atoms: C_14  and  C_18
REMARK   11  A    between atoms: C_19  and  C_22
REMARK   12  A    between atoms: C_20  and  C_23
REMARK                            x       y       z     vdW  Elec       q    Type
REMARK                         _______ _______ _______ _____ _____    ______ ____
ROOT
ATOM      6  C   UNL     1      15.531   9.907   5.215  0.00  0.00    +0.000 C 
ATOM      7  C   UNL     1      16.109   8.470   5.251  0.00  0.00    +0.032 C 
ATOM      8  C   UNL     1      14.778  10.214   6.519  0.00  0.00    +0.012 C 
ATOM      9  C   UNL     1      13.622   9.228   6.771  0.00  0.00    +0.023 C 
ATOM     11  C   UNL     1      14.052   7.791   6.561  0.00  0.00    -0.073 C 
ATOM     12  C   UNL     1      15.174   7.471   5.890  0.00  0.00    -0.022 C 
ATOM     17  C   UNL     1      13.188   6.727   7.179  0.00  0.00    +0.039 C 
ENDROOT
BRANCH   6  10
ATOM     10  C   UNL     1      16.624  10.955   4.987  0.00  0.00    -0.013 C 
ATOM     15  C   UNL     1      17.716  10.823   6.043  0.00  0.00    +0.007 C 
ATOM     16  C   UNL     1      16.026  12.359   5.000  0.00  0.00    +0.007 C 
ENDBRANCH   6  10
BRANCH   7  13
ATOM     13  C   UNL     1      16.485   7.990   3.844  0.00  0.00    +0.112 C 
BRANCH  13   3
ATOM      2  O   UNL     1      14.982   7.645   1.422  0.00  0.00    -0.270 OA
ATOM      3  N   UNL     1      15.711   6.846   3.475  0.00  0.00    -0.311 N 
ATOM     19  C   UNL     1      15.009   6.761   2.274  0.00  0.00    +0.246 C 
ATOM     33  H   UNL     1      15.754   6.038   4.089  0.00  0.00    +0.149 HD
BRANCH  19  22
ATOM      5  N   UNL     1      14.216   3.158   1.515  0.00  0.00    -0.263 NA
ATOM     22  C   UNL     1      14.231   5.515   2.050  0.00  0.00    +0.055 A 
ATOM     24  C   UNL     1      12.844   5.507   2.158  0.00  0.00    +0.016 A 
ATOM     25  C   UNL     1      14.863   4.324   1.729  0.00  0.00    +0.123 A 
ATOM     28  C   UNL     1      12.143   4.326   1.942  0.00  0.00    +0.020 A 
ATOM     31  C   UNL     1      12.869   3.188   1.626  0.00  0.00    +0.111 A 
ENDBRANCH  19  22
ENDBRANCH  13   3
ENDBRANCH   7  13
BRANCH   9  14
ATOM     14  C   UNL     1      12.406   9.569   5.903  0.00  0.00    +0.103 C 
BRANCH  14  18
ATOM      1  O   UNL     1      10.756   9.442   7.638  0.00  0.00    -0.276 OA
ATOM      4  N   UNL     1      10.361   8.194   5.724  0.00  0.00    -0.300 N 
ATOM     18  C   UNL     1      11.108   9.074   6.514  0.00  0.00    +0.216 C 
ATOM     21  C   UNL     1      10.797   7.773   4.397  0.00  0.00    +0.132 C 
BRANCH   4  20
ATOM     20  C   UNL     1       9.089   7.629   6.168  0.00  0.00    +0.142 C 
BRANCH  20  23
ATOM     23  C   UNL     1       9.285   6.428   7.047  0.00  0.00    -0.030 A 
ATOM     26  C   UNL     1       9.690   5.214   6.490  0.00  0.00    +0.005 A 
ATOM     27  C   UNL     1       9.061   6.524   8.420  0.00  0.00    +0.005 A 
ATOM     29  C   UNL     1       9.872   4.098   7.306  0.00  0.00    +0.000 A 
ATOM     30  C   UNL     1       9.242   5.407   9.236  0.00  0.00    +0.000 A 
ATOM     32  C   UNL     1       9.648   4.194   8.680  0.00  0.00    +0.000 A 
ENDBRANCH  20  23
ENDBRANCH   4  20
ENDBRANCH  14  18
ENDBRANCH   9  14
TORSDOF 8
ENDMDL
MODEL 5
REMARK VINA RESULT:      -6.1     12.466     15.356
REMARK  Name = 38027174
REMARK  12 active torsions:
REMARK  status: ('A' for Active; 'I' for Inactive)
REMARK    1  A    between atoms: N_3  and  C_13
REMARK    2  A    between atoms: N_4  and  C_20
REMARK    3  A    between atoms: N_4  and  C_21
REMARK    4  A    between atoms: C_6  and  C_10
REMARK    5  A    between atoms: C_7  and  C_13
REMARK    6  A    between atoms: C_9  and  C_14
REMARK    7  A    between atoms: C_10  and  C_15
REMARK    8  A    between atoms: C_10  and  C_16
REMARK    9  A    between atoms: C_11  and  C_17
REMARK   10  A    between atoms: C_14  and  C_18
REMARK   11  A    between atoms: C_19  and  C_22
REMARK   12  A    between atoms: C_20  and  C_23
REMARK                            x       y       z     vdW  Elec       q    Type
REMARK                         _______ _______ _______ _____ _____    ______ ____
ROOT
ATOM      6  C   UNL     1       8.976   8.488   5.922  0.00  0.00    +0.000 C 
ATOM      7  C   UNL     1       8.903   8.459   7.469  0.00  0.00    +0.032 C 
ATOM      8  C   UNL     1       8.420   7.183   5.334  0.00  0.00    +0.012 C 
ATOM      9  C   UNL     1       9.186   5.944   5.836  0.00  0.00    +0.023 C 
ATOM     11  C   UNL     1       9.389   5.978   7.338  0.00  0.00    -0.073 C 
ATOM     12  C   UNL     1       9.245   7.109   8.053  0.00  0.00    -0.022 C 
ATOM     17  C   UNL     1       9.716   4.672   8.007  0.00  0.00    +0.039 C 
ENDROOT
BRANCH   6  10
ATOM     10  C   UNL     1       8.218   9.685   5.339  0.00  0.00    -0.013 C 
ATOM     15  C   UNL     1       7.183   9.214   4.323  0.00  0.00    +0.007 C 
ATOM     16  C   UNL     1       9.192  10.672   4.702  0.00  0.00    +0.007 C 
ENDBRANCH   6  10
BRANCH   7  13
ATOM     13  C   UNL     1       9.814   9.527   8.086  0.00  0.00    +0.112 C 
BRANCH  13   3
ATOM      2  O   UNL     1      11.645  11.488   7.063  0.00  0.00    -0.270 OA
ATOM      3  N   UNL     1      11.176   9.310   7.713  0.00  0.00    -0.311 N 
ATOM     19  C   UNL     1      11.999  10.323   7.223  0.00  0.00    +0.246 C 
ATOM     33  H   UNL     1      11.568   8.391   7.897  0.00  0.00    +0.149 HD
BRANCH  19  22
ATOM      5  N   UNL     1      15.685  10.571   6.490  0.00  0.00    -0.263 NA
ATOM     22  C   UNL     1      13.384   9.928   6.854  0.00  0.00    +0.055 A 
ATOM     24  C   UNL     1      13.693   8.610   6.538  0.00  0.00    +0.016 A 
ATOM     25  C   UNL     1      14.407  10.862   6.816  0.00  0.00    +0.123 A 
ATOM     28  C   UNL     1      14.998   8.272   6.197  0.00  0.00    +0.020 A 
ATOM     31  C   UNL     1      15.949   9.280   6.187  0.00  0.00    +0.111 A 
ENDBRANCH  19  22
ENDBRANCH  13   3
ENDBRANCH   7  13
BRANCH   9  14
ATOM     14  C   UNL     1      10.524   5.788   5.106  0.00  0.00    +0.103 C 
BRANCH  14  18
ATOM      1  O   UNL     1      10.459   3.478   4.469  0.00  0.00    -0.276 OA
ATOM      4  N   UNL     1      10.524   5.035   2.752  0.00  0.00    -0.300 N 
ATOM     18  C   UNL     1      10.500   4.654   4.098  0.00  0.00    +0.216 C 
ATOM     21  C   UNL     1      10.571   6.433   2.337  0.00  0.00    +0.132 C 
BRANCH   4  20
ATOM     20  C   UNL     1      10.505   4.065   1.662  0.00  0.00    +0.142 C 
BRANCH  20  23
ATOM     23  C   UNL     1      11.831   3.976   0.965  0.00  0.00    -0.030 A 
ATOM     26  C   UNL     1      12.966   3.579   1.674  0.00  0.00    +0.005 A 
ATOM     27  C   UNL     1      11.930   4.290  -0.390  0.00  0.00    +0.005 A 
ATOM     29  C   UNL     1      14.199   3.496   1.027  0.00  0.00    +0.000 A 
ATOM     30  C   UNL     1      13.164   4.208  -1.036  0.00  0.00    +0.000 A 
ATOM     32  C   UNL     1      14.298   3.811  -0.329  0.00  0.00    +0.000 A 
ENDBRANCH  20  23
ENDBRANCH   4  20
ENDBRANCH  14  18
ENDBRANCH   9  14
TORSDOF 8
ENDMDL
MODEL 6
REMARK VINA RESULT:      -6.0     25.858     29.102
REMARK  Name = 38027174
REMARK  12 active torsions:
REMARK  status: ('A' for Active; 'I' for Inactive)
REMARK    1  A    between atoms: N_3  and  C_13
REMARK    2  A    between atoms: N_4  and  C_20
REMARK    3  A    between atoms: N_4  and  C_21
REMARK    4  A    between atoms: C_6  and  C_10
REMARK    5  A    between atoms: C_7  and  C_13
REMARK    6  A    between atoms: C_9  and  C_14
REMARK    7  A    between atoms: C_10  and  C_15
REMARK    8  A    between atoms: C_10  and  C_16
REMARK    9  A    between atoms: C_11  and  C_17
REMARK   10  A    between atoms: C_14  and  C_18
REMARK   11  A    between atoms: C_19  and  C_22
REMARK   12  A    between atoms: C_20  and  C_23
REMARK                            x       y       z     vdW  Elec       q    Type
REMARK                         _______ _______ _______ _____ _____    ______ ____
ROOT
ATOM      6  C   UNL     1      -4.043 -11.396  12.685  0.00  0.00    +0.000 C 
ATOM      7  C   UNL     1      -2.759 -11.255  13.540  0.00  0.00    +0.032 C 
ATOM      8  C   UNL     1      -3.687 -11.468  11.192  0.00  0.00    +0.012 C 
ATOM      9  C   UNL     1      -2.918 -10.221  10.716  0.00  0.00    +0.023 C 
ATOM     11  C   UNL     1      -1.792  -9.859  11.663  0.00  0.00    -0.073 C 
ATOM     12  C   UNL     1      -1.731 -10.340  12.918  0.00  0.00    -0.022 C 
ATOM     17  C   UNL     1      -0.712  -8.964  11.121  0.00  0.00    +0.039 C 
ENDROOT
BRANCH   6  10
ATOM     10  C   UNL     1      -4.860 -12.629  13.084  0.00  0.00    -0.013 C 
ATOM     15  C   UNL     1      -4.061 -13.903  12.825  0.00  0.00    +0.007 C 
ATOM     16  C   UNL     1      -6.184 -12.658  12.326  0.00  0.00    +0.007 C 
ENDBRANCH   6  10
BRANCH   7  13
ATOM     13  C   UNL     1      -3.089 -10.763  14.955  0.00  0.00    +0.112 C 
BRANCH  13   3
ATOM      2  O   UNL     1      -4.775 -10.852  17.277  0.00  0.00    -0.270 OA
ATOM      3  N   UNL     1      -4.450 -10.334  15.039  0.00  0.00    -0.311 N 
ATOM     19  C   UNL     1      -5.199 -10.413  16.211  0.00  0.00    +0.246 C 
ATOM     33  H   UNL     1      -4.845  -9.879  14.221  0.00  0.00    +0.149 HD
BRANCH  19  22
ATOM      5  N   UNL     1      -8.511  -8.919  17.205  0.00  0.00    -0.263 NA
ATOM     22  C   UNL     1      -6.609  -9.950  16.127  0.00  0.00    +0.055 A 
ATOM     24  C   UNL     1      -7.341 -10.093  14.954  0.00  0.00    +0.016 A 
ATOM     25  C   UNL     1      -7.234  -9.361  17.215  0.00  0.00    +0.123 A 
ATOM     28  C   UNL     1      -8.658  -9.651  14.905  0.00  0.00    +0.020 A 
ATOM     31  C   UNL     1      -9.193  -9.076  16.048  0.00  0.00    +0.111 A 
ENDBRANCH  19  22
ENDBRANCH  13   3
ENDBRANCH   7  13
BRANCH   9  14
ATOM     14  C   UNL     1      -3.864  -9.034  10.508  0.00  0.00    +0.103 C 
BRANCH  14  18
ATOM      1  O   UNL     1      -4.727  -9.624   8.351  0.00  0.00    -0.276 OA
ATOM      4  N   UNL     1      -6.275  -9.315  10.049  0.00  0.00    -0.300 N 
ATOM     18  C   UNL     1      -4.978  -9.352   9.528  0.00  0.00    +0.216 C 
ATOM     21  C   UNL     1      -6.547  -8.991  11.445  0.00  0.00    +0.132 C 
BRANCH   4  20
ATOM     20  C   UNL     1      -7.455  -9.597   9.237  0.00  0.00    +0.142 C 
BRANCH  20  23
ATOM     23  C   UNL     1      -8.273  -8.363   8.987  0.00  0.00    -0.030 A 
ATOM     26  C   UNL     1      -7.703  -7.268   8.338  0.00  0.00    +0.005 A 
ATOM     27  C   UNL     1      -9.603  -8.312   9.405  0.00  0.00    +0.005 A 
ATOM     29  C   UNL     1      -8.463  -6.121   8.105  0.00  0.00    +0.000 A 
ATOM     30  C   UNL     1     -10.362  -7.164   9.172  0.00  0.00    +0.000 A 
ATOM     32  C   UNL     1      -9.793  -6.070   8.523  0.00  0.00    +0.000 A 
ENDBRANCH  20  23
ENDBRANCH   4  20
ENDBRANCH  14  18
ENDBRANCH   9  14
TORSDOF 8
ENDMDL
MODEL 7
REMARK VINA RESULT:      -5.9      2.556      3.908
REMARK  Name = 38027174
REMARK  12 active torsions:
REMARK  status: ('A' for Active; 'I' for Inactive)
REMARK    1  A    between atoms: N_3  and  C_13
REMARK    2  A    between atoms: N_4  and  C_20
REMARK    3  A    between atoms: N_4  and  C_21
REMARK    4  A    between atoms: C_6  and  C_10
REMARK    5  A    between atoms: C_7  and  C_13
REMARK    6  A    between atoms: C_9  and  C_14
REMARK    7  A    between atoms: C_10  and  C_15
REMARK    8  A    between atoms: C_10  and  C_16
REMARK    9  A    between atoms: C_11  and  C_17
REMARK   10  A    between atoms: C_14  and  C_18
REMARK   11  A    between atoms: C_19  and  C_22
REMARK   12  A    between atoms: C_20  and  C_23
REMARK                            x       y       z     vdW  Elec       q    Type
REMARK                         _______ _______ _______ _____ _____    ______ ____
ROOT
ATOM      6  C   UNL     1      12.866   9.995  20.530  0.00  0.00    +0.000 C 
ATOM      7  C   UNL     1      11.981   8.852  19.971  0.00  0.00    +0.032 C 
ATOM      8  C   UNL     1      12.846  11.202  19.581  0.00  0.00    +0.012 C 
ATOM      9  C   UNL     1      13.347  10.842  18.169  0.00  0.00    +0.023 C 
ATOM     11  C   UNL     1      12.713   9.566  17.655  0.00  0.00    -0.073 C 
ATOM     12  C   UNL     1      12.095   8.695  18.473  0.00  0.00    -0.022 C 
ATOM     17  C   UNL     1      12.763   9.335  16.170  0.00  0.00    +0.039 C 
ENDROOT
BRANCH   6  10
ATOM     10  C   UNL     1      12.419  10.428  21.930  0.00  0.00    -0.013 C 
ATOM     15  C   UNL     1      11.347  11.508  21.835  0.00  0.00    +0.007 C 
ATOM     16  C   UNL     1      13.613  10.920  22.741  0.00  0.00    +0.007 C 
ENDBRANCH   6  10
BRANCH   7  13
ATOM     13  C   UNL     1      12.307   7.517  20.651  0.00  0.00    +0.112 C 
BRANCH  13   3
ATOM      2  O   UNL     1      14.677   7.659  22.266  0.00  0.00    -0.270 OA
ATOM      3  N   UNL     1      13.615   7.069  20.288  0.00  0.00    -0.311 N 
ATOM     19  C   UNL     1      14.716   7.176  21.137  0.00  0.00    +0.246 C 
ATOM     33  H   UNL     1      13.710   6.580  19.403  0.00  0.00    +0.149 HD
BRANCH  19  22
ATOM      5  N   UNL     1      17.262   5.743  18.760  0.00  0.00    -0.263 NA
ATOM     22  C   UNL     1      16.013   6.688  20.601  0.00  0.00    +0.055 A 
ATOM     24  C   UNL     1      17.164   6.707  21.382  0.00  0.00    +0.016 A 
ATOM     25  C   UNL     1      16.115   6.200  19.308  0.00  0.00    +0.123 A 
ATOM     28  C   UNL     1      18.363   6.244  20.853  0.00  0.00    +0.020 A 
ATOM     31  C   UNL     1      18.360   5.775  19.548  0.00  0.00    +0.111 A 
ENDBRANCH  19  22
ENDBRANCH  13   3
ENDBRANCH   7  13
BRANCH   9  14
ATOM     14  C   UNL     1      14.876  10.747  18.133  0.00  0.00    +0.103 C 
BRANCH  14  18
ATOM      1  O   UNL     1      15.083  11.647  15.922  0.00  0.00    -0.276 OA
ATOM      4  N   UNL     1      16.506  12.506  17.538  0.00  0.00    -0.300 N 
ATOM     18  C   UNL     1      15.484  11.664  17.088  0.00  0.00    +0.216 C 
ATOM     21  C   UNL     1      16.964  12.508  18.924  0.00  0.00    +0.132 C 
BRANCH   4  20
ATOM     20  C   UNL     1      17.192  13.447  16.657  0.00  0.00    +0.142 C 
BRANCH  20  23
ATOM     23  C   UNL     1      18.388  12.826  15.995  0.00  0.00    -0.030 A 
ATOM     26  C   UNL     1      18.274  12.286  14.714  0.00  0.00    +0.005 A 
ATOM     27  C   UNL     1      19.613  12.789  16.660  0.00  0.00    +0.005 A 
ATOM     29  C   UNL     1      19.384  11.709  14.097  0.00  0.00    +0.000 A 
ATOM     30  C   UNL     1      20.724  12.211  16.044  0.00  0.00    +0.000 A 
ATOM     32  C   UNL     1      20.610  11.672  14.763  0.00  0.00    +0.000 A 
ENDBRANCH  20  23
ENDBRANCH   4  20
ENDBRANCH  14  18
ENDBRANCH   9  14
TORSDOF 8
ENDMDL
MODEL 8
REMARK VINA RESULT:      -5.9      3.107      5.867
REMARK  Name = 38027174
REMARK  12 active torsions:
REMARK  status: ('A' for Active; 'I' for Inactive)
REMARK    1  A    between atoms: N_3  and  C_13
REMARK    2  A    between atoms: N_4  and  C_20
REMARK    3  A    between atoms: N_4  and  C_21
REMARK    4  A    between atoms: C_6  and  C_10
REMARK    5  A    between atoms: C_7  and  C_13
REMARK    6  A    between atoms: C_9  and  C_14
REMARK    7  A    between atoms: C_10  and  C_15
REMARK    8  A    between atoms: C_10  and  C_16
REMARK    9  A    between atoms: C_11  and  C_17
REMARK   10  A    between atoms: C_14  and  C_18
REMARK   11  A    between atoms: C_19  and  C_22
REMARK   12  A    between atoms: C_20  and  C_23
REMARK                            x       y       z     vdW  Elec       q    Type
REMARK                         _______ _______ _______ _____ _____    ______ ____
ROOT
ATOM      6  C   UNL     1      16.067   9.823  20.807  0.00  0.00    +0.000 C 
ATOM      7  C   UNL     1      17.609   9.929  20.709  0.00  0.00    +0.032 C 
ATOM      8  C   UNL     1      15.400  10.707  19.742  0.00  0.00    +0.012 C 
ATOM      9  C   UNL     1      15.798  12.188  19.880  0.00  0.00    +0.023 C 
ATOM     11  C   UNL     1      17.294  12.355  20.058  0.00  0.00    -0.073 C 
ATOM     12  C   UNL     1      18.090  11.331  20.416  0.00  0.00    -0.022 C 
ATOM     17  C   UNL     1      17.863  13.717  19.770  0.00  0.00    +0.039 C 
ENDROOT
BRANCH   6  10
ATOM     10  C   UNL     1      15.584   8.377  20.659  0.00  0.00    -0.013 C 
ATOM     15  C   UNL     1      14.888   8.184  19.316  0.00  0.00    +0.007 C 
ATOM     16  C   UNL     1      14.654   8.006  21.809  0.00  0.00    +0.007 C 
ENDBRANCH   6  10
BRANCH   7  13
ATOM     13  C   UNL     1      18.281   9.416  21.988  0.00  0.00    +0.112 C 
BRANCH  13   3
ATOM      2  O   UNL     1      20.351   8.234  23.589  0.00  0.00    -0.270 OA
ATOM      3  N   UNL     1      18.936   8.167  21.751  0.00  0.00    -0.311 N 
ATOM     19  C   UNL     1      19.935   7.665  22.583  0.00  0.00    +0.246 C 
ATOM     33  H   UNL     1      18.588   7.597  20.986  0.00  0.00    +0.149 HD
BRANCH  19  22
ATOM      5  N   UNL     1      21.912   4.463  22.762  0.00  0.00    -0.263 NA
ATOM     22  C   UNL     1      20.536   6.365  22.185  0.00  0.00    +0.055 A 
ATOM     24  C   UNL     1      20.311   5.829  20.922  0.00  0.00    +0.016 A 
ATOM     25  C   UNL     1      21.337   5.650  23.060  0.00  0.00    +0.123 A 
ATOM     28  C   UNL     1      20.886   4.612  20.578  0.00  0.00    +0.020 A 
ATOM     31  C   UNL     1      21.672   3.974  21.525  0.00  0.00    +0.111 A 
ENDBRANCH  19  22
ENDBRANCH  13   3
ENDBRANCH   7  13
BRANCH   9  14
ATOM     14  C   UNL     1      15.032  12.863  21.023  0.00  0.00    +0.103 C 
BRANCH  14  18
ATOM      1  O   UNL     1      12.874  12.961  19.984  0.00  0.00    -0.276 OA
ATOM      4  N   UNL     1      12.996  11.903  22.044  0.00  0.00    -0.300 N 
ATOM     18  C   UNL     1      13.541  12.590  20.954  0.00  0.00    +0.216 C 
ATOM     21  C   UNL     1      13.805  11.475  23.180  0.00  0.00    +0.132 C 
BRANCH   4  20
ATOM     20  C   UNL     1      11.578  11.565  22.129  0.00  0.00    +0.142 C 
BRANCH  20  23
ATOM     23  C   UNL     1      11.322  10.128  21.779  0.00  0.00    -0.030 A 
ATOM     26  C   UNL     1      10.842   9.248  22.750  0.00  0.00    +0.005 A 
ATOM     27  C   UNL     1      11.564   9.671  20.484  0.00  0.00    +0.005 A 
ATOM     29  C   UNL     1      10.602   7.913  22.426  0.00  0.00    +0.000 A 
ATOM     30  C   UNL     1      11.325   8.336  20.160  0.00  0.00    +0.000 A 
ATOM     32  C   UNL     1      10.844   7.457  21.129  0.00  0.00    +0.000 A 
ENDBRANCH  20  23
ENDBRANCH   4  20
ENDBRANCH  14  18
ENDBRANCH   9  14
TORSDOF 8
ENDMDL
MODEL 9
REMARK VINA RESULT:      -5.9     27.239     29.842
REMARK  Name = 38027174
REMARK  12 active torsions:
REMARK  status: ('A' for Active; 'I' for Inactive)
REMARK    1  A    between atoms: N_3  and  C_13
REMARK    2  A    between atoms: N_4  and  C_20
REMARK    3  A    between atoms: N_4  and  C_21
REMARK    4  A    between atoms: C_6  and  C_10
REMARK    5  A    between atoms: C_7  and  C_13
REMARK    6  A    between atoms: C_9  and  C_14
REMARK    7  A    between atoms: C_10  and  C_15
REMARK    8  A    between atoms: C_10  and  C_16
REMARK    9  A    between atoms: C_11  and  C_17
REMARK   10  A    between atoms: C_14  and  C_18
REMARK   11  A    between atoms: C_19  and  C_22
REMARK   12  A    between atoms: C_20  and  C_23
REMARK                            x       y       z     vdW  Elec       q    Type
REMARK                         _______ _______ _______ _____ _____    ______ ____
ROOT
ATOM      6  C   UNL     1      -5.489 -11.443  17.289  0.00  0.00    +0.000 C 
ATOM      7  C   UNL     1      -4.498 -12.268  16.431  0.00  0.00    +0.032 C 
ATOM      8  C   UNL     1      -6.796 -12.224  17.498  0.00  0.00    +0.012 C 
ATOM      9  C   UNL     1      -7.482 -12.580  16.166  0.00  0.00    +0.023 C 
ATOM     11  C   UNL     1      -6.501 -13.156  15.164  0.00  0.00    -0.073 C 
ATOM     12  C   UNL     1      -5.171 -13.018  15.306  0.00  0.00    -0.022 C 
ATOM     17  C   UNL     1      -7.083 -13.937  14.018  0.00  0.00    +0.039 C 
ENDROOT
BRANCH   6  10
ATOM     10  C   UNL     1      -4.889 -11.063  18.646  0.00  0.00    -0.013 C 
ATOM     15  C   UNL     1      -4.062 -12.217  19.203  0.00  0.00    +0.007 C 
ATOM     16  C   UNL     1      -5.991 -10.666  19.623  0.00  0.00    +0.007 C 
ENDBRANCH   6  10
BRANCH   7  13
ATOM     13  C   UNL     1      -3.388 -11.377  15.859  0.00  0.00    +0.112 C 
BRANCH  13   3
ATOM      2  O   UNL     1      -1.887 -11.437  13.412  0.00  0.00    -0.270 OA
ATOM      3  N   UNL     1      -3.782 -10.821  14.602  0.00  0.00    -0.311 N 
ATOM     19  C   UNL     1      -2.989 -10.895  13.458  0.00  0.00    +0.246 C 
ATOM     33  H   UNL     1      -4.718 -10.432  14.539  0.00  0.00    +0.149 HD
BRANCH  19  22
ATOM      5  N   UNL     1      -5.430  -9.346  11.044  0.00  0.00    -0.263 NA
ATOM     22  C   UNL     1      -3.529 -10.244  12.236  0.00  0.00    +0.055 A 
ATOM     24  C   UNL     1      -2.697  -9.921  11.169  0.00  0.00    +0.016 A 
ATOM     25  C   UNL     1      -4.876  -9.938  12.125  0.00  0.00    +0.123 A 
ATOM     28  C   UNL     1      -3.231  -9.312  10.039  0.00  0.00    +0.020 A 
ATOM     31  C   UNL     1      -4.592  -9.048  10.026  0.00  0.00    +0.111 A 
ENDBRANCH  19  22
ENDBRANCH  13   3
ENDBRANCH   7  13
BRANCH   9  14
ATOM     14  C   UNL     1      -8.215 -11.368  15.580  0.00  0.00    +0.103 C 
BRANCH  14  18
ATOM      1  O   UNL     1     -10.413 -11.677  16.484  0.00  0.00    -0.276 OA
ATOM      4  N   UNL     1      -9.292  -9.742  17.097  0.00  0.00    -0.300 N 
ATOM     18  C   UNL     1      -9.412 -10.961  16.419  0.00  0.00    +0.216 C 
ATOM     21  C   UNL     1      -8.097  -8.911  17.005  0.00  0.00    +0.132 C 
BRANCH   4  20
ATOM     20  C   UNL     1     -10.355  -9.210  17.945  0.00  0.00    +0.142 C 
BRANCH  20  23
ATOM     23  C   UNL     1     -11.265  -8.285  17.191  0.00  0.00    -0.030 A 
ATOM     26  C   UNL     1     -12.553  -8.700  16.849  0.00  0.00    +0.005 A 
ATOM     27  C   UNL     1     -10.825  -7.011  16.832  0.00  0.00    +0.005 A 
ATOM     29  C   UNL     1     -13.400  -7.841  16.148  0.00  0.00    +0.000 A 
ATOM     30  C   UNL     1     -11.672  -6.152  16.131  0.00  0.00    +0.000 A 
ATOM     32  C   UNL     1     -12.959  -6.566  15.790  0.00  0.00    +0.000 A 
ENDBRANCH  20  23
ENDBRANCH   4  20
ENDBRANCH  14  18
ENDBRANCH   9  14
TORSDOF 8
ENDMDL
MODEL 10
REMARK VINA RESULT:      -5.8     25.121     28.226
REMARK  Name = 38027174
REMARK  12 active torsions:
REMARK  status: ('A' for Active; 'I' for Inactive)
REMARK    1  A    between atoms: N_3  and  C_13
REMARK    2  A    between atoms: N_4  and  C_20
REMARK    3  A    between atoms: N_4  and  C_21
REMARK    4  A    between atoms: C_6  and  C_10
REMARK    5  A    between atoms: C_7  and  C_13
REMARK    6  A    between atoms: C_9  and  C_14
REMARK    7  A    between atoms: C_10  and  C_15
REMARK    8  A    between atoms: C_10  and  C_16
REMARK    9  A    between atoms: C_11  and  C_17
REMARK   10  A    between atoms: C_14  and  C_18
REMARK   11  A    between atoms: C_19  and  C_22
REMARK   12  A    between atoms: C_20  and  C_23
REMARK                            x       y       z     vdW  Elec       q    Type
REMARK                         _______ _______ _______ _____ _____    ______ ____
ROOT
ATOM      6  C   UNL     1     -10.756  10.315  17.528  0.00  0.00    +0.000 C 
ATOM      7  C   UNL     1     -10.347   8.857  17.198  0.00  0.00    +0.032 C 
ATOM      8  C   UNL     1     -10.562  10.601  19.025  0.00  0.00    +0.012 C 
ATOM      9  C   UNL     1     -11.387   9.649  19.912  0.00  0.00    +0.023 C 
ATOM     11  C   UNL     1     -11.244   8.206  19.474  0.00  0.00    -0.073 C 
ATOM     12  C   UNL     1     -10.765   7.870  18.263  0.00  0.00    -0.022 C 
ATOM     17  C   UNL     1     -11.622   7.153  20.479  0.00  0.00    +0.039 C 
ENDROOT
BRANCH   6  10
ATOM     10  C   UNL     1      -9.962  11.330  16.699  0.00  0.00    -0.013 C 
ATOM     15  C   UNL     1      -9.569  12.527  17.557  0.00  0.00    +0.007 C 
ATOM     16  C   UNL     1     -10.774  11.776  15.487  0.00  0.00    +0.007 C 
ENDBRANCH   6  10
BRANCH   7  13
ATOM     13  C   UNL     1     -10.914   8.417  15.843  0.00  0.00    +0.112 C 
BRANCH  13   3
ATOM      2  O   UNL     1     -13.244   9.392  14.478  0.00  0.00    -0.270 OA
ATOM      3  N   UNL     1     -12.251   7.933  15.985  0.00  0.00    -0.311 N 
ATOM     19  C   UNL     1     -13.329   8.466  15.281  0.00  0.00    +0.246 C 
ATOM     33  H   UNL     1     -12.389   7.112  16.567  0.00  0.00    +0.149 HD
BRANCH  19  22
ATOM      5  N   UNL     1     -16.539   6.557  14.790  0.00  0.00    -0.263 NA
ATOM     22  C   UNL     1     -14.661   7.869  15.561  0.00  0.00    +0.055 A 
ATOM     24  C   UNL     1     -15.277   8.038  16.797  0.00  0.00    +0.016 A 
ATOM     25  C   UNL     1     -15.329   7.126  14.600  0.00  0.00    +0.123 A 
ATOM     28  C   UNL     1     -16.523   7.468  17.029  0.00  0.00    +0.020 A 
ATOM     31  C   UNL     1     -17.108   6.743  16.002  0.00  0.00    +0.111 A 
ENDBRANCH  19  22
ENDBRANCH  13   3
ENDBRANCH   7  13
BRANCH   9  14
ATOM     14  C   UNL     1     -12.861  10.068  19.949  0.00  0.00    +0.103 C 
BRANCH  14  18
ATOM      1  O   UNL     1     -12.870  12.246  20.950  0.00  0.00    -0.276 OA
ATOM      4  N   UNL     1     -13.748  10.511  22.212  0.00  0.00    -0.300 N 
ATOM     18  C   UNL     1     -13.151  11.051  21.068  0.00  0.00    +0.216 C 
ATOM     21  C   UNL     1     -14.073   9.093  22.329  0.00  0.00    +0.132 C 
BRANCH   4  20
ATOM     20  C   UNL     1     -14.091  11.324  23.375  0.00  0.00    +0.142 C 
BRANCH  20  23
ATOM     23  C   UNL     1     -13.244  10.984  24.567  0.00  0.00    -0.030 A 
ATOM     26  C   UNL     1     -13.841  10.502  25.733  0.00  0.00    +0.005 A 
ATOM     27  C   UNL     1     -11.860  11.149  24.510  0.00  0.00    +0.005 A 
ATOM     29  C   UNL     1     -13.054  10.185  26.840  0.00  0.00    +0.000 A 
ATOM     30  C   UNL     1     -11.074  10.833  25.618  0.00  0.00    +0.000 A 
ATOM     32  C   UNL     1     -11.670  10.351  26.783  0.00  0.00    +0.000 A 
ENDBRANCH  20  23
ENDBRANCH   4  20
ENDBRANCH  14  18
ENDBRANCH   9  14
TORSDOF 8
ENDMDL
