MODEL 1
REMARK VINA RESULT:      -7.0      0.000      0.000
REMARK  Name = 75536617
REMARK  6 active torsions:
REMARK  status: ('A' for Active; 'I' for Inactive)
REMARK    1  A    between atoms: O_4  and  C_10
REMARK    2  A    between atoms: N_6  and  C_8
REMARK    3  A    between atoms: N_6  and  C_9
REMARK    4  A    between atoms: N_7  and  C_18
REMARK    5  A    between atoms: C_13  and  C_18
REMARK    6  A    between atoms: C_19  and  C_20
REMARK                            x       y       z     vdW  Elec       q    Type
REMARK                         _______ _______ _______ _____ _____    ______ ____
ROOT
ATOM      3  O   UNL     1      10.592   8.421  21.433  0.00  0.00    -0.371 OA
ATOM      9  C   UNL     1      11.844  10.174  22.436  0.00  0.00    +0.111 C 
ATOM     10  C   UNL     1      12.664   9.557  21.318  0.00  0.00    +0.164 C 
ATOM     13  C   UNL     1      11.575   8.884  20.492  0.00  0.00    +0.165 C 
ATOM     14  C   UNL     1      10.815   9.084  22.690  0.00  0.00    +0.181 C 
ENDROOT
BRANCH  10   4
ATOM      4  O   UNL     1      13.376  10.521  20.567  0.00  0.00    -0.388 OA
ATOM     27  H   UNL     1      13.191  10.371  19.624  0.00  0.00    +0.210 HD
ENDBRANCH  10   4
BRANCH   9   6
ATOM      6  N   UNL     1      12.624  10.502  23.618  0.00  0.00    -0.306 NA
ATOM     26  H   UNL     1      13.620  10.448  23.409  0.00  0.00    +0.123 HD
BRANCH   6   8
ATOM      1  F   UNL     1      10.120  15.322  24.830  0.00  0.00    -0.206 F 
ATOM      2  F   UNL     1       9.289  13.651  23.713  0.00  0.00    -0.206 F 
ATOM      8  C   UNL     1      12.290  11.840  24.103  0.00  0.00    +0.054 C 
ATOM     11  C   UNL     1      11.983  12.762  22.916  0.00  0.00    +0.024 C 
ATOM     12  C   UNL     1      11.100  11.763  25.068  0.00  0.00    +0.024 C 
ATOM     15  C   UNL     1      11.559  14.151  23.387  0.00  0.00    +0.077 C 
ATOM     16  C   UNL     1      10.677  13.152  25.540  0.00  0.00    +0.077 C 
ATOM     17  C   UNL     1      10.400  14.078  24.367  0.00  0.00    +0.249 C 
ENDBRANCH   6   8
ENDBRANCH   9   6
BRANCH  13  18
ATOM     18  C   UNL     1      12.084   7.717  19.665  0.00  0.00    +0.138 C 
BRANCH  18   7
ATOM      5  O   UNL     1      14.309   7.739  17.851  0.00  0.00    -0.270 OA
ATOM      7  N   UNL     1      13.448   7.409  19.981  0.00  0.00    -0.309 N 
ATOM     19  C   UNL     1      14.468   7.446  19.034  0.00  0.00    +0.244 C 
ATOM     28  H   UNL     1      13.636   7.091  20.926  0.00  0.00    +0.149 HD
BRANCH  19  20
ATOM     20  C   UNL     1      15.824   7.075  19.515  0.00  0.00    +0.037 A 
ATOM     21  C   UNL     1      16.539   6.063  18.875  0.00  0.00    +0.013 A 
ATOM     22  C   UNL     1      16.383   7.741  20.605  0.00  0.00    +0.013 A 
ATOM     23  C   UNL     1      17.812   5.716  19.325  0.00  0.00    +0.001 A 
ATOM     24  C   UNL     1      17.656   7.395  21.055  0.00  0.00    +0.001 A 
ATOM     25  C   UNL     1      18.371   6.382  20.416  0.00  0.00    +0.000 A 
ENDBRANCH  19  20
ENDBRANCH  18   7
ENDBRANCH  13  18
TORSDOF 6
ENDMDL
MODEL 2
REMARK VINA RESULT:      -6.9     26.628     28.358
REMARK  Name = 75536617
REMARK  6 active torsions:
REMARK  status: ('A' for Active; 'I' for Inactive)
REMARK    1  A    between atoms: O_4  and  C_10
REMARK    2  A    between atoms: N_6  and  C_8
REMARK    3  A    between atoms: N_6  and  C_9
REMARK    4  A    between atoms: N_7  and  C_18
REMARK    5  A    between atoms: C_13  and  C_18
REMARK    6  A    between atoms: C_19  and  C_20
REMARK                            x       y       z     vdW  Elec       q    Type
REMARK                         _______ _______ _______ _____ _____    ______ ____
ROOT
ATOM      3  O   UNL     1      -1.169 -11.501  15.052  0.00  0.00    -0.371 OA
ATOM      9  C   UNL     1      -3.194 -11.008  16.191  0.00  0.00    +0.111 C 
ATOM     10  C   UNL     1      -3.522 -11.644  14.852  0.00  0.00    +0.164 C 
ATOM     13  C   UNL     1      -2.209 -12.347  14.533  0.00  0.00    +0.165 C 
ATOM     14  C   UNL     1      -1.759 -10.563  15.969  0.00  0.00    +0.181 C 
ENDROOT
BRANCH  10   4
ATOM      4  O   UNL     1      -4.603 -12.554  14.929  0.00  0.00    -0.388 OA
ATOM     27  H   UNL     1      -5.076 -12.538  14.080  0.00  0.00    +0.210 HD
ENDBRANCH  10   4
BRANCH   9   6
ATOM      6  N   UNL     1      -4.079  -9.911  16.546  0.00  0.00    -0.306 NA
ATOM     26  H   UNL     1      -4.675  -9.667  15.756  0.00  0.00    +0.123 HD
BRANCH   6   8
ATOM      1  F   UNL     1      -7.398 -12.455  20.218  0.00  0.00    -0.206 F 
ATOM      2  F   UNL     1      -6.702 -13.235  18.312  0.00  0.00    -0.206 F 
ATOM      8  C   UNL     1      -4.904 -10.264  17.701  0.00  0.00    +0.054 C 
ATOM     11  C   UNL     1      -6.350 -10.508  17.252  0.00  0.00    +0.024 C 
ATOM     12  C   UNL     1      -4.322 -11.501  18.398  0.00  0.00    +0.024 C 
ATOM     15  C   UNL     1      -7.227 -10.950  18.421  0.00  0.00    +0.077 C 
ATOM     16  C   UNL     1      -5.199 -11.942  19.568  0.00  0.00    +0.077 C 
ATOM     17  C   UNL     1      -6.639 -12.156  19.134  0.00  0.00    +0.249 C 
ENDBRANCH   6   8
ENDBRANCH   9   6
BRANCH  13  18
ATOM     18  C   UNL     1      -1.995 -12.571  13.047  0.00  0.00    +0.138 C 
BRANCH  18   7
ATOM      5  O   UNL     1      -1.521  -9.940  11.999  0.00  0.00    -0.270 OA
ATOM      7  N   UNL     1      -2.904 -11.785  12.264  0.00  0.00    -0.309 N 
ATOM     19  C   UNL     1      -2.589 -10.512  11.796  0.00  0.00    +0.244 C 
ATOM     28  H   UNL     1      -3.830 -12.171  12.120  0.00  0.00    +0.149 HD
BRANCH  19  20
ATOM     20  C   UNL     1      -3.650  -9.817  11.021  0.00  0.00    +0.037 A 
ATOM     21  C   UNL     1      -4.913  -9.630  11.581  0.00  0.00    +0.013 A 
ATOM     22  C   UNL     1      -3.381  -9.350   9.735  0.00  0.00    +0.013 A 
ATOM     23  C   UNL     1      -5.908  -8.976  10.856  0.00  0.00    +0.001 A 
ATOM     24  C   UNL     1      -4.376  -8.696   9.010  0.00  0.00    +0.001 A 
ATOM     25  C   UNL     1      -5.640  -8.509   9.569  0.00  0.00    +0.000 A 
ENDBRANCH  19  20
ENDBRANCH  18   7
ENDBRANCH  13  18
TORSDOF 6
ENDMDL
MODEL 3
REMARK VINA RESULT:      -6.6      3.728      7.455
REMARK  Name = 75536617
REMARK  6 active torsions:
REMARK  status: ('A' for Active; 'I' for Inactive)
REMARK    1  A    between atoms: O_4  and  C_10
REMARK    2  A    between atoms: N_6  and  C_8
REMARK    3  A    between atoms: N_6  and  C_9
REMARK    4  A    between atoms: N_7  and  C_18
REMARK    5  A    between atoms: C_13  and  C_18
REMARK    6  A    between atoms: C_19  and  C_20
REMARK                            x       y       z     vdW  Elec       q    Type
REMARK                         _______ _______ _______ _____ _____    ______ ____
ROOT
ATOM      3  O   UNL     1      14.054   7.400  18.188  0.00  0.00    -0.371 OA
ATOM      9  C   UNL     1      14.748   6.496  20.273  0.00  0.00    +0.111 C 
ATOM     10  C   UNL     1      13.346   7.061  20.420  0.00  0.00    +0.164 C 
ATOM     13  C   UNL     1      12.887   7.087  18.968  0.00  0.00    +0.165 C 
ATOM     14  C   UNL     1      15.219   7.189  19.005  0.00  0.00    +0.181 C 
ENDROOT
BRANCH  10   4
ATOM      4  O   UNL     1      12.511   6.249  21.222  0.00  0.00    -0.388 OA
ATOM     27  H   UNL     1      11.709   6.040  20.715  0.00  0.00    +0.210 HD
ENDBRANCH  10   4
BRANCH   9   6
ATOM      6  N   UNL     1      15.605   6.763  21.416  0.00  0.00    -0.306 NA
ATOM     26  H   UNL     1      15.810   5.897  21.913  0.00  0.00    +0.123 HD
BRANCH   6   8
ATOM      1  F   UNL     1      20.633   9.138  21.178  0.00  0.00    -0.206 F 
ATOM      2  F   UNL     1      19.596   8.426  22.952  0.00  0.00    -0.206 F 
ATOM      8  C   UNL     1      16.851   7.398  20.991  0.00  0.00    +0.054 C 
ATOM     11  C   UNL     1      16.980   8.780  21.643  0.00  0.00    +0.024 C 
ATOM     12  C   UNL     1      18.043   6.502  21.350  0.00  0.00    +0.024 C 
ATOM     15  C   UNL     1      18.305   9.446  21.278  0.00  0.00    +0.077 C 
ATOM     16  C   UNL     1      19.368   7.167  20.984  0.00  0.00    +0.077 C 
ATOM     17  C   UNL     1      19.487   8.549  21.604  0.00  0.00    +0.249 C 
ENDBRANCH   6   8
ENDBRANCH   9   6
BRANCH  13  18
ATOM     18  C   UNL     1      11.802   8.114  18.700  0.00  0.00    +0.138 C 
BRANCH  18   7
ATOM      5  O   UNL     1      12.866  10.676  19.442  0.00  0.00    -0.270 OA
ATOM      7  N   UNL     1      11.488   8.861  19.883  0.00  0.00    -0.309 N 
ATOM     19  C   UNL     1      12.054  10.102  20.163  0.00  0.00    +0.244 C 
ATOM     28  H   UNL     1      10.876   8.412  20.556  0.00  0.00    +0.149 HD
BRANCH  19  20
ATOM     20  C   UNL     1      11.644  10.736  21.444  0.00  0.00    +0.037 A 
ATOM     21  C   UNL     1      11.571  12.125  21.543  0.00  0.00    +0.013 A 
ATOM     22  C   UNL     1      11.332   9.940  22.546  0.00  0.00    +0.013 A 
ATOM     23  C   UNL     1      11.185  12.719  22.744  0.00  0.00    +0.001 A 
ATOM     24  C   UNL     1      10.945  10.535  23.747  0.00  0.00    +0.001 A 
ATOM     25  C   UNL     1      10.873  11.924  23.846  0.00  0.00    +0.000 A 
ENDBRANCH  19  20
ENDBRANCH  18   7
ENDBRANCH  13  18
TORSDOF 6
ENDMDL
MODEL 4
REMARK VINA RESULT:      -6.6      3.915      7.446
REMARK  Name = 75536617
REMARK  6 active torsions:
REMARK  status: ('A' for Active; 'I' for Inactive)
REMARK    1  A    between atoms: O_4  and  C_10
REMARK    2  A    between atoms: N_6  and  C_8
REMARK    3  A    between atoms: N_6  and  C_9
REMARK    4  A    between atoms: N_7  and  C_18
REMARK    5  A    between atoms: C_13  and  C_18
REMARK    6  A    between atoms: C_19  and  C_20
REMARK                            x       y       z     vdW  Elec       q    Type
REMARK                         _______ _______ _______ _____ _____    ______ ____
ROOT
ATOM      3  O   UNL     1      10.596   8.301  20.028  0.00  0.00    -0.371 OA
ATOM      9  C   UNL     1      12.594   7.524  19.004  0.00  0.00    +0.111 C 
ATOM     10  C   UNL     1      12.734   7.411  20.511  0.00  0.00    +0.164 C 
ATOM     13  C   UNL     1      11.274   7.423  20.943  0.00  0.00    +0.165 C 
ATOM     14  C   UNL     1      11.441   8.507  18.882  0.00  0.00    +0.181 C 
ENDROOT
BRANCH  10   4
ATOM      4  O   UNL     1      13.393   6.224  20.911  0.00  0.00    -0.388 OA
ATOM     27  H   UNL     1      14.261   6.195  20.474  0.00  0.00    +0.210 HD
ENDBRANCH  10   4
BRANCH   9   6
ATOM      6  N   UNL     1      13.803   7.983  18.340  0.00  0.00    -0.306 NA
ATOM     26  H   UNL     1      14.104   7.302  17.645  0.00  0.00    +0.123 HD
BRANCH   6   8
ATOM      1  F   UNL     1      14.335  12.810  15.621  0.00  0.00    -0.206 F 
ATOM      2  F   UNL     1      15.890  11.342  16.012  0.00  0.00    -0.206 F 
ATOM      8  C   UNL     1      13.581   9.280  17.701  0.00  0.00    +0.054 C 
ATOM     11  C   UNL     1      14.444  10.349  18.381  0.00  0.00    +0.024 C 
ATOM     12  C   UNL     1      13.894   9.183  16.202  0.00  0.00    +0.024 C 
ATOM     15  C   UNL     1      14.293  11.705  17.694  0.00  0.00    +0.077 C 
ATOM     16  C   UNL     1      13.741  10.539  15.515  0.00  0.00    +0.077 C 
ATOM     17  C   UNL     1      14.572  11.608  16.204  0.00  0.00    +0.249 C 
ENDBRANCH   6   8
ENDBRANCH   9   6
BRANCH  13  18
ATOM     18  C   UNL     1      11.073   7.912  22.366  0.00  0.00    +0.138 C 
BRANCH  18   7
ATOM      5  O   UNL     1      12.915  10.085  22.728  0.00  0.00    -0.270 OA
ATOM      7  N   UNL     1      10.753   9.310  22.398  0.00  0.00    -0.309 N 
ATOM     19  C   UNL     1      11.715  10.299  22.578  0.00  0.00    +0.244 C 
ATOM     28  H   UNL     1       9.769   9.552  22.350  0.00  0.00    +0.149 HD
BRANCH  19  20
ATOM     20  C   UNL     1      11.218  11.699  22.613  0.00  0.00    +0.037 A 
ATOM     21  C   UNL     1      10.658  12.212  23.783  0.00  0.00    +0.013 A 
ATOM     22  C   UNL     1      11.312  12.501  21.476  0.00  0.00    +0.013 A 
ATOM     23  C   UNL     1      10.193  13.526  23.817  0.00  0.00    +0.001 A 
ATOM     24  C   UNL     1      10.847  13.815  21.509  0.00  0.00    +0.001 A 
ATOM     25  C   UNL     1      10.287  14.328  22.679  0.00  0.00    +0.000 A 
ENDBRANCH  19  20
ENDBRANCH  18   7
ENDBRANCH  13  18
TORSDOF 6
ENDMDL
MODEL 5
REMARK VINA RESULT:      -6.4      3.735      7.890
REMARK  Name = 75536617
REMARK  6 active torsions:
REMARK  status: ('A' for Active; 'I' for Inactive)
REMARK    1  A    between atoms: O_4  and  C_10
REMARK    2  A    between atoms: N_6  and  C_8
REMARK    3  A    between atoms: N_6  and  C_9
REMARK    4  A    between atoms: N_7  and  C_18
REMARK    5  A    between atoms: C_13  and  C_18
REMARK    6  A    between atoms: C_19  and  C_20
REMARK                            x       y       z     vdW  Elec       q    Type
REMARK                         _______ _______ _______ _____ _____    ______ ____
ROOT
ATOM      3  O   UNL     1      10.773   8.589  20.896  0.00  0.00    -0.371 OA
ATOM      9  C   UNL     1      13.097   8.666  20.408  0.00  0.00    +0.111 C 
ATOM     10  C   UNL     1      12.849   9.345  21.743  0.00  0.00    +0.164 C 
ATOM     13  C   UNL     1      11.499   8.752  22.126  0.00  0.00    +0.165 C 
ATOM     14  C   UNL     1      11.703   8.676  19.802  0.00  0.00    +0.181 C 
ENDROOT
BRANCH  10   4
ATOM      4  O   UNL     1      13.847   9.048  22.701  0.00  0.00    -0.388 OA
ATOM     27  H   UNL     1      13.460   9.149  23.586  0.00  0.00    +0.210 HD
ENDBRANCH  10   4
BRANCH   9   6
ATOM      6  N   UNL     1      14.078   9.349  19.581  0.00  0.00    -0.306 NA
ATOM     26  H   UNL     1      14.292  10.266  19.971  0.00  0.00    +0.123 HD
BRANCH   6   8
ATOM      1  F   UNL     1      18.295   5.810  20.399  0.00  0.00    -0.206 F 
ATOM      2  F   UNL     1      16.580   6.136  21.695  0.00  0.00    -0.206 F 
ATOM      8  C   UNL     1      15.303   8.558  19.473  0.00  0.00    +0.054 C 
ATOM     11  C   UNL     1      16.231   8.870  20.653  0.00  0.00    +0.024 C 
ATOM     12  C   UNL     1      14.955   7.065  19.419  0.00  0.00    +0.024 C 
ATOM     15  C   UNL     1      17.491   8.008  20.612  0.00  0.00    +0.077 C 
ATOM     16  C   UNL     1      16.216   6.203  19.377  0.00  0.00    +0.077 C 
ATOM     17  C   UNL     1      17.152   6.530  20.528  0.00  0.00    +0.249 C 
ENDBRANCH   6   8
ENDBRANCH   9   6
BRANCH  13  18
ATOM     18  C   UNL     1      10.706   9.632  23.077  0.00  0.00    +0.138 C 
BRANCH  18   7
ATOM      5  O   UNL     1      10.065  12.174  24.248  0.00  0.00    -0.270 OA
ATOM      7  N   UNL     1      11.572  10.448  23.877  0.00  0.00    -0.309 N 
ATOM     19  C   UNL     1      11.175  11.673  24.407  0.00  0.00    +0.244 C 
ATOM     28  H   UNL     1      12.526  10.125  23.989  0.00  0.00    +0.149 HD
BRANCH  19  20
ATOM     20  C   UNL     1      12.199  12.410  25.193  0.00  0.00    +0.037 A 
ATOM     21  C   UNL     1      11.871  13.618  25.807  0.00  0.00    +0.013 A 
ATOM     22  C   UNL     1      13.487  11.891  25.318  0.00  0.00    +0.013 A 
ATOM     23  C   UNL     1      12.831  14.308  26.546  0.00  0.00    +0.001 A 
ATOM     24  C   UNL     1      14.447  12.581  26.058  0.00  0.00    +0.001 A 
ATOM     25  C   UNL     1      14.120  13.790  26.671  0.00  0.00    +0.000 A 
ENDBRANCH  19  20
ENDBRANCH  18   7
ENDBRANCH  13  18
TORSDOF 6
ENDMDL
MODEL 6
REMARK VINA RESULT:      -6.3     27.619     29.689
REMARK  Name = 75536617
REMARK  6 active torsions:
REMARK  status: ('A' for Active; 'I' for Inactive)
REMARK    1  A    between atoms: O_4  and  C_10
REMARK    2  A    between atoms: N_6  and  C_8
REMARK    3  A    between atoms: N_6  and  C_9
REMARK    4  A    between atoms: N_7  and  C_18
REMARK    5  A    between atoms: C_13  and  C_18
REMARK    6  A    between atoms: C_19  and  C_20
REMARK                            x       y       z     vdW  Elec       q    Type
REMARK                         _______ _______ _______ _____ _____    ______ ____
ROOT
ATOM      3  O   UNL     1      -4.682 -11.939  17.943  0.00  0.00    -0.371 OA
ATOM      9  C   UNL     1      -4.560 -11.141  15.708  0.00  0.00    +0.111 C 
ATOM     10  C   UNL     1      -5.696 -10.434  16.425  0.00  0.00    +0.164 C 
ATOM     13  C   UNL     1      -5.299 -10.642  17.881  0.00  0.00    +0.165 C 
ATOM     14  C   UNL     1      -4.344 -12.348  16.606  0.00  0.00    +0.181 C 
ENDROOT
BRANCH  10   4
ATOM      4  O   UNL     1      -5.782  -9.061  16.092  0.00  0.00    -0.388 OA
ATOM     27  H   UNL     1      -5.383  -8.935  15.215  0.00  0.00    +0.210 HD
ENDBRANCH  10   4
BRANCH   9   6
ATOM      6  N   UNL     1      -4.873 -11.504  14.336  0.00  0.00    -0.306 NA
ATOM     26  H   UNL     1      -5.882 -11.495  14.190  0.00  0.00    +0.123 HD
BRANCH   6   8
ATOM      1  F   UNL     1      -2.600  -9.088   9.867  0.00  0.00    -0.206 F 
ATOM      2  F   UNL     1      -3.466 -11.079   9.990  0.00  0.00    -0.206 F 
ATOM      8  C   UNL     1      -4.226 -10.588  13.398  0.00  0.00    +0.054 C 
ATOM     11  C   UNL     1      -2.921 -11.207  12.883  0.00  0.00    +0.024 C 
ATOM     12  C   UNL     1      -5.182 -10.265  12.242  0.00  0.00    +0.024 C 
ATOM     15  C   UNL     1      -2.252 -10.308  11.845  0.00  0.00    +0.077 C 
ATOM     16  C   UNL     1      -4.513  -9.365  11.205  0.00  0.00    +0.077 C 
ATOM     17  C   UNL     1      -3.204  -9.960  10.714  0.00  0.00    +0.249 C 
ENDBRANCH   6   8
ENDBRANCH   9   6
BRANCH  13  18
ATOM     18  C   UNL     1      -6.476 -10.587  18.838  0.00  0.00    +0.138 C 
BRANCH  18   7
ATOM      5  O   UNL     1      -9.266 -11.264  18.892  0.00  0.00    -0.270 OA
ATOM      7  N   UNL     1      -7.555  -9.815  18.293  0.00  0.00    -0.309 N 
ATOM     19  C   UNL     1      -8.885 -10.222  18.366  0.00  0.00    +0.244 C 
ATOM     28  H   UNL     1      -7.302  -8.977  17.782  0.00  0.00    +0.149 HD
BRANCH  19  20
ATOM     20  C   UNL     1      -9.882  -9.322  17.730  0.00  0.00    +0.037 A 
ATOM     21  C   UNL     1     -11.240  -9.635  17.785  0.00  0.00    +0.013 A 
ATOM     22  C   UNL     1      -9.459  -8.163  17.079  0.00  0.00    +0.013 A 
ATOM     23  C   UNL     1     -12.176  -8.790  17.190  0.00  0.00    +0.001 A 
ATOM     24  C   UNL     1     -10.395  -7.318  16.484  0.00  0.00    +0.001 A 
ATOM     25  C   UNL     1     -11.753  -7.631  16.539  0.00  0.00    +0.000 A 
ENDBRANCH  19  20
ENDBRANCH  18   7
ENDBRANCH  13  18
TORSDOF 6
ENDMDL
MODEL 7
REMARK VINA RESULT:      -6.3      5.318      8.461
REMARK  Name = 75536617
REMARK  6 active torsions:
REMARK  status: ('A' for Active; 'I' for Inactive)
REMARK    1  A    between atoms: O_4  and  C_10
REMARK    2  A    between atoms: N_6  and  C_8
REMARK    3  A    between atoms: N_6  and  C_9
REMARK    4  A    between atoms: N_7  and  C_18
REMARK    5  A    between atoms: C_13  and  C_18
REMARK    6  A    between atoms: C_19  and  C_20
REMARK                            x       y       z     vdW  Elec       q    Type
REMARK                         _______ _______ _______ _____ _____    ______ ____
ROOT
ATOM      3  O   UNL     1      13.959   6.737  21.198  0.00  0.00    -0.371 OA
ATOM      9  C   UNL     1      16.280   7.238  21.298  0.00  0.00    +0.111 C 
ATOM     10  C   UNL     1      15.488   8.522  21.469  0.00  0.00    +0.164 C 
ATOM     13  C   UNL     1      14.135   7.977  21.905  0.00  0.00    +0.165 C 
ATOM     14  C   UNL     1      15.236   6.322  20.681  0.00  0.00    +0.181 C 
ENDROOT
BRANCH  10   4
ATOM      4  O   UNL     1      16.049   9.384  22.440  0.00  0.00    -0.388 OA
ATOM     27  H   UNL     1      16.898   9.009  22.727  0.00  0.00    +0.210 HD
ENDBRANCH  10   4
BRANCH   9   6
ATOM      6  N   UNL     1      17.463   7.389  20.467  0.00  0.00    -0.306 NA
ATOM     26  H   UNL     1      17.727   8.371  20.404  0.00  0.00    +0.123 HD
BRANCH   6   8
ATOM      1  F   UNL     1      22.421   5.085  21.503  0.00  0.00    -0.206 F 
ATOM      2  F   UNL     1      21.946   6.553  19.972  0.00  0.00    -0.206 F 
ATOM      8  C   UNL     1      18.575   6.607  21.004  0.00  0.00    +0.054 C 
ATOM     11  C   UNL     1      19.132   5.680  19.917  0.00  0.00    +0.024 C 
ATOM     12  C   UNL     1      19.661   7.548  21.542  0.00  0.00    +0.024 C 
ATOM     15  C   UNL     1      20.344   4.898  20.421  0.00  0.00    +0.077 C 
ATOM     16  C   UNL     1      20.871   6.766  22.048  0.00  0.00    +0.077 C 
ATOM     17  C   UNL     1      21.409   5.824  20.984  0.00  0.00    +0.249 C 
ENDBRANCH   6   8
ENDBRANCH   9   6
BRANCH  13  18
ATOM     18  C   UNL     1      12.982   8.913  21.593  0.00  0.00    +0.138 C 
BRANCH  18   7
ATOM      5  O   UNL     1      10.829   8.055  19.897  0.00  0.00    -0.270 OA
ATOM      7  N   UNL     1      12.861   9.140  20.182  0.00  0.00    -0.309 N 
ATOM     19  C   UNL     1      11.777   8.686  19.435  0.00  0.00    +0.244 C 
ATOM     28  H   UNL     1      13.645   9.594  19.726  0.00  0.00    +0.149 HD
BRANCH  19  20
ATOM     20  C   UNL     1      11.815   8.979  17.979  0.00  0.00    +0.037 A 
ATOM     21  C   UNL     1      10.712   8.681  17.179  0.00  0.00    +0.013 A 
ATOM     22  C   UNL     1      12.952   9.555  17.413  0.00  0.00    +0.013 A 
ATOM     23  C   UNL     1      10.747   8.958  15.813  0.00  0.00    +0.001 A 
ATOM     24  C   UNL     1      12.986   9.832  16.047  0.00  0.00    +0.001 A 
ATOM     25  C   UNL     1      11.884   9.533  15.246  0.00  0.00    +0.000 A 
ENDBRANCH  19  20
ENDBRANCH  18   7
ENDBRANCH  13  18
TORSDOF 6
ENDMDL
MODEL 8
REMARK VINA RESULT:      -6.3     28.156     30.147
REMARK  Name = 75536617
REMARK  6 active torsions:
REMARK  status: ('A' for Active; 'I' for Inactive)
REMARK    1  A    between atoms: O_4  and  C_10
REMARK    2  A    between atoms: N_6  and  C_8
REMARK    3  A    between atoms: N_6  and  C_9
REMARK    4  A    between atoms: N_7  and  C_18
REMARK    5  A    between atoms: C_13  and  C_18
REMARK    6  A    between atoms: C_19  and  C_20
REMARK                            x       y       z     vdW  Elec       q    Type
REMARK                         _______ _______ _______ _____ _____    ______ ____
ROOT
ATOM      3  O   UNL     1     -11.561  -8.728  15.866  0.00  0.00    -0.371 OA
ATOM      9  C   UNL     1     -11.798  -6.726  14.610  0.00  0.00    +0.111 C 
ATOM     10  C   UNL     1     -10.821  -6.484  15.746  0.00  0.00    +0.164 C 
ATOM     13  C   UNL     1     -10.398  -7.909  16.076  0.00  0.00    +0.165 C 
ATOM     14  C   UNL     1     -12.511  -7.980  15.088  0.00  0.00    +0.181 C 
ENDROOT
BRANCH  10   4
ATOM      4  O   UNL     1      -9.722  -5.683  15.360  0.00  0.00    -0.388 OA
ATOM     27  H   UNL     1     -10.060  -4.922  14.858  0.00  0.00    +0.210 HD
ENDBRANCH  10   4
BRANCH   9   6
ATOM      6  N   UNL     1     -12.705  -5.614  14.374  0.00  0.00    -0.306 NA
ATOM     26  H   UNL     1     -12.412  -4.800  14.913  0.00  0.00    +0.123 HD
BRANCH   6   8
ATOM      1  F   UNL     1     -13.736  -3.305   9.417  0.00  0.00    -0.206 F 
ATOM      2  F   UNL     1     -14.500  -2.668  11.350  0.00  0.00    -0.206 F 
ATOM      8  C   UNL     1     -12.752  -5.278  12.952  0.00  0.00    +0.054 C 
ATOM     11  C   UNL     1     -14.193  -5.389  12.439  0.00  0.00    +0.024 C 
ATOM     12  C   UNL     1     -12.191  -3.868  12.730  0.00  0.00    +0.024 C 
ATOM     15  C   UNL     1     -14.294  -4.975  10.973  0.00  0.00    +0.077 C 
ATOM     16  C   UNL     1     -12.290  -3.455  11.264  0.00  0.00    +0.077 C 
ATOM     17  C   UNL     1     -13.711  -3.591  10.742  0.00  0.00    +0.249 C 
ENDBRANCH   6   8
ENDBRANCH   9   6
BRANCH  13  18
ATOM     18  C   UNL     1      -9.907  -8.074  17.504  0.00  0.00    +0.138 C 
BRANCH  18   7
ATOM      5  O   UNL     1      -9.179 -10.785  18.106  0.00  0.00    -0.270 OA
ATOM      7  N   UNL     1      -8.580  -8.616  17.539  0.00  0.00    -0.309 N 
ATOM     19  C   UNL     1      -8.319  -9.950  17.842  0.00  0.00    +0.244 C 
ATOM     28  H   UNL     1      -7.817  -7.962  17.399  0.00  0.00    +0.149 HD
BRANCH  19  20
ATOM     20  C   UNL     1      -6.887 -10.349  17.864  0.00  0.00    +0.037 A 
ATOM     21  C   UNL     1      -6.379 -11.064  18.948  0.00  0.00    +0.013 A 
ATOM     22  C   UNL     1      -6.054 -10.011  16.798  0.00  0.00    +0.013 A 
ATOM     23  C   UNL     1      -5.036 -11.441  18.967  0.00  0.00    +0.001 A 
ATOM     24  C   UNL     1      -4.711 -10.388  16.817  0.00  0.00    +0.001 A 
ATOM     25  C   UNL     1      -4.202 -11.102  17.902  0.00  0.00    +0.000 A 
ENDBRANCH  19  20
ENDBRANCH  18   7
ENDBRANCH  13  18
TORSDOF 6
ENDMDL
MODEL 9
REMARK VINA RESULT:      -6.1      1.921      2.589
REMARK  Name = 75536617
REMARK  6 active torsions:
REMARK  status: ('A' for Active; 'I' for Inactive)
REMARK    1  A    between atoms: O_4  and  C_10
REMARK    2  A    between atoms: N_6  and  C_8
REMARK    3  A    between atoms: N_6  and  C_9
REMARK    4  A    between atoms: N_7  and  C_18
REMARK    5  A    between atoms: C_13  and  C_18
REMARK    6  A    between atoms: C_19  and  C_20
REMARK                            x       y       z     vdW  Elec       q    Type
REMARK                         _______ _______ _______ _____ _____    ______ ____
ROOT
ATOM      3  O   UNL     1      11.791   7.767  19.853  0.00  0.00    -0.371 OA
ATOM      9  C   UNL     1      12.571   9.989  19.539  0.00  0.00    +0.111 C 
ATOM     10  C   UNL     1      13.761   9.076  19.774  0.00  0.00    +0.164 C 
ATOM     13  C   UNL     1      13.162   7.720  19.424  0.00  0.00    +0.165 C 
ATOM     14  C   UNL     1      11.431   9.142  20.077  0.00  0.00    +0.181 C 
ENDROOT
BRANCH  10   4
ATOM      4  O   UNL     1      14.866   9.394  18.950  0.00  0.00    -0.388 OA
ATOM     27  H   UNL     1      14.542   9.908  18.191  0.00  0.00    +0.210 HD
ENDBRANCH  10   4
BRANCH   9   6
ATOM      6  N   UNL     1      12.684  11.276  20.205  0.00  0.00    -0.306 NA
ATOM     26  H   UNL     1      12.038  11.946  19.791  0.00  0.00    +0.123 HD
BRANCH   6   8
ATOM      1  F   UNL     1      11.918  12.155  25.647  0.00  0.00    -0.206 F 
ATOM      2  F   UNL     1      12.454  13.626  24.139  0.00  0.00    -0.206 F 
ATOM      8  C   UNL     1      12.414  11.143  21.636  0.00  0.00    +0.054 C 
ATOM     11  C   UNL     1      13.658  11.541  22.440  0.00  0.00    +0.024 C 
ATOM     12  C   UNL     1      11.204  12.005  22.020  0.00  0.00    +0.024 C 
ATOM     15  C   UNL     1      13.390  11.482  23.942  0.00  0.00    +0.077 C 
ATOM     16  C   UNL     1      10.936  11.945  23.522  0.00  0.00    +0.077 C 
ATOM     17  C   UNL     1      12.174  12.310  24.324  0.00  0.00    +0.249 C 
ENDBRANCH   6   8
ENDBRANCH   9   6
BRANCH  13  18
ATOM     18  C   UNL     1      13.871   6.559  20.099  0.00  0.00    +0.138 C 
BRANCH  18   7
ATOM      5  O   UNL     1      16.331   5.729  18.872  0.00  0.00    -0.270 OA
ATOM      7  N   UNL     1      15.197   6.923  20.507  0.00  0.00    -0.309 N 
ATOM     19  C   UNL     1      16.338   6.472  19.850  0.00  0.00    +0.244 C 
ATOM     28  H   UNL     1      15.276   7.479  21.351  0.00  0.00    +0.149 HD
BRANCH  19  20
ATOM     20  C   UNL     1      17.639   6.919  20.413  0.00  0.00    +0.037 A 
ATOM     21  C   UNL     1      18.779   6.133  20.247  0.00  0.00    +0.013 A 
ATOM     22  C   UNL     1      17.719   8.127  21.107  0.00  0.00    +0.013 A 
ATOM     23  C   UNL     1      19.999   6.553  20.773  0.00  0.00    +0.001 A 
ATOM     24  C   UNL     1      18.940   8.547  21.633  0.00  0.00    +0.001 A 
ATOM     25  C   UNL     1      20.080   7.761  21.467  0.00  0.00    +0.000 A 
ENDBRANCH  19  20
ENDBRANCH  18   7
ENDBRANCH  13  18
TORSDOF 6
ENDMDL
MODEL 10
REMARK VINA RESULT:      -6.0      7.844     12.169
REMARK  Name = 75536617
REMARK  6 active torsions:
REMARK  status: ('A' for Active; 'I' for Inactive)
REMARK    1  A    between atoms: O_4  and  C_10
REMARK    2  A    between atoms: N_6  and  C_8
REMARK    3  A    between atoms: N_6  and  C_9
REMARK    4  A    between atoms: N_7  and  C_18
REMARK    5  A    between atoms: C_13  and  C_18
REMARK    6  A    between atoms: C_19  and  C_20
REMARK                            x       y       z     vdW  Elec       q    Type
REMARK                         _______ _______ _______ _____ _____    ______ ____
ROOT
ATOM      3  O   UNL     1      22.086   7.128  21.797  0.00  0.00    -0.371 OA
ATOM      9  C   UNL     1      21.905   5.169  20.465  0.00  0.00    +0.111 C 
ATOM     10  C   UNL     1      20.518   5.593  20.912  0.00  0.00    +0.164 C 
ATOM     13  C   UNL     1      20.755   7.057  21.256  0.00  0.00    +0.165 C 
ATOM     14  C   UNL     1      22.782   5.916  21.456  0.00  0.00    +0.181 C 
ENDROOT
BRANCH  10   4
ATOM      4  O   UNL     1      19.545   5.440  19.896  0.00  0.00    -0.388 OA
ATOM     27  H   UNL     1      19.626   6.188  19.282  0.00  0.00    +0.210 HD
ENDBRANCH  10   4
BRANCH   9   6
ATOM      6  N   UNL     1      22.113   3.730  20.496  0.00  0.00    -0.306 NA
ATOM     26  H   UNL     1      22.105   3.352  19.551  0.00  0.00    +0.123 HD
BRANCH   6   8
ATOM      1  F   UNL     1      26.607   1.186  22.572  0.00  0.00    -0.206 F 
ATOM      2  F   UNL     1      24.964   0.273  21.478  0.00  0.00    -0.206 F 
ATOM      8  C   UNL     1      23.379   3.405  21.152  0.00  0.00    +0.054 C 
ATOM     11  C   UNL     1      23.131   2.426  22.306  0.00  0.00    +0.024 C 
ATOM     12  C   UNL     1      24.361   2.821  20.128  0.00  0.00    +0.024 C 
ATOM     15  C   UNL     1      24.441   2.008  22.970  0.00  0.00    +0.077 C 
ATOM     16  C   UNL     1      25.671   2.403  20.792  0.00  0.00    +0.077 C 
ATOM     17  C   UNL     1      25.429   1.456  21.955  0.00  0.00    +0.249 C 
ENDBRANCH   6   8
ENDBRANCH   9   6
BRANCH  13  18
ATOM     18  C   UNL     1      19.762   7.606  22.264  0.00  0.00    +0.138 C 
BRANCH  18   7
ATOM      5  O   UNL     1      17.770   9.507  21.450  0.00  0.00    -0.270 OA
ATOM      7  N   UNL     1      18.412   7.318  21.876  0.00  0.00    -0.309 N 
ATOM     19  C   UNL     1      17.510   8.308  21.494  0.00  0.00    +0.244 C 
ATOM     28  H   UNL     1      18.111   6.353  21.958  0.00  0.00    +0.149 HD
BRANCH  19  20
ATOM     20  C   UNL     1      16.141   7.848  21.146  0.00  0.00    +0.037 A 
ATOM     21  C   UNL     1      15.073   8.130  21.997  0.00  0.00    +0.013 A 
ATOM     22  C   UNL     1      15.923   7.137  19.966  0.00  0.00    +0.013 A 
ATOM     23  C   UNL     1      13.787   7.701  21.670  0.00  0.00    +0.001 A 
ATOM     24  C   UNL     1      14.638   6.708  19.638  0.00  0.00    +0.001 A 
ATOM     25  C   UNL     1      13.569   6.989  20.490  0.00  0.00    +0.000 A 
ENDBRANCH  19  20
ENDBRANCH  18   7
ENDBRANCH  13  18
TORSDOF 6
ENDMDL
