MODEL 1
REMARK VINA RESULT:      -7.9      0.000      0.000
REMARK  Name = 7143176
REMARK  7 active torsions:
REMARK  status: ('A' for Active; 'I' for Inactive)
REMARK    1  A    between atoms: S_1  and  N_7
REMARK    2  A    between atoms: S_1  and  C_21
REMARK    3  A    between atoms: O_5  and  C_27
REMARK    4  A    between atoms: O_5  and  C_30
REMARK    5  A    between atoms: N_9  and  C_19
REMARK    6  A    between atoms: C_26  and  C_28
REMARK    7  A    between atoms: C_28  and  C_29
REMARK                            x       y       z     vdW  Elec       q    Type
REMARK                         _______ _______ _______ _____ _____    ______ ____
ROOT
ATOM      4  O   UNL     1      17.388   9.642  21.344  0.00  0.00    -0.266 OA
ATOM      7  N   UNL     1      12.825   8.317  19.846  0.00  0.00    -0.176 NA
ATOM      8  N   UNL     1      15.970   8.627  19.788  0.00  0.00    -0.310 N 
ATOM     10  C   UNL     1      14.179   9.920  18.493  0.00  0.00    +0.025 C 
ATOM     11  C   UNL     1      14.436   7.503  18.135  0.00  0.00    +0.052 C 
ATOM     12  C   UNL     1      14.384   8.854  17.425  0.00  0.00    +0.017 C 
ATOM     13  C   UNL     1      12.861   9.683  19.249  0.00  0.00    +0.114 C 
ATOM     14  C   UNL     1      13.095   7.242  18.844  0.00  0.00    +0.119 C 
ATOM     15  C   UNL     1      15.396   9.930  19.427  0.00  0.00    +0.130 C 
ATOM     16  C   UNL     1      15.580   7.456  19.131  0.00  0.00    +0.026 A 
ATOM     17  C   UNL     1      16.198   6.293  19.398  0.00  0.00    +0.024 A 
ATOM     18  C   UNL     1      16.999   8.634  20.752  0.00  0.00    +0.273 A 
ATOM     19  C   UNL     1      17.647   7.314  21.037  0.00  0.00    +0.099 A 
ATOM     20  C   UNL     1      17.251   6.224  20.371  0.00  0.00    +0.030 A 
ENDROOT
BRANCH  19   9
ATOM      6  O   UNL     1      20.462   7.362  20.527  0.00  0.00    -0.275 OA
ATOM      9  N   UNL     1      18.638   7.277  21.973  0.00  0.00    -0.281 N 
ATOM     26  C   UNL     1      19.993   7.303  21.661  0.00  0.00    +0.222 C 
ATOM     36  H   UNL     1      18.364   6.992  22.909  0.00  0.00    +0.155 HD
BRANCH  26  28
ATOM     28  C   UNL     1      20.847   7.251  22.914  0.00  0.00    +0.131 C 
BRANCH  28  29
ATOM     29  C   UNL     1      21.543   5.930  23.108  0.00  0.00    -0.039 A 
ATOM     31  C   UNL     1      22.314   5.723  24.244  0.00  0.00    +0.004 A 
ATOM     32  C   UNL     1      21.404   4.937  22.149  0.00  0.00    +0.004 A 
ATOM     33  C   UNL     1      22.958   4.499  24.423  0.00  0.00    +0.000 A 
ATOM     34  C   UNL     1      22.048   3.713  22.327  0.00  0.00    +0.000 A 
ATOM     35  C   UNL     1      22.826   3.494  23.465  0.00  0.00    +0.000 A 
ENDBRANCH  28  29
ENDBRANCH  26  28
ENDBRANCH  19   9
BRANCH   7   1
ATOM      1  S   UNL     1      11.530   8.015  20.924  0.00  0.00    +0.061 S 
ATOM      2  O   UNL     1      11.781   6.779  21.633  0.00  0.00    -0.153 OA
ATOM      3  O   UNL     1      10.279   8.234  20.228  0.00  0.00    -0.153 OA
BRANCH   1  21
ATOM     21  C   UNL     1      11.758   9.346  22.061  0.00  0.00    +0.106 A 
ATOM     22  C   UNL     1      10.652   9.912  22.674  0.00  0.00    +0.032 A 
ATOM     23  C   UNL     1      13.040   9.801  22.324  0.00  0.00    +0.032 A 
ATOM     24  C   UNL     1      10.833  10.964  23.572  0.00  0.00    +0.047 A 
ATOM     25  C   UNL     1      13.221  10.852  23.223  0.00  0.00    +0.047 A 
ATOM     27  C   UNL     1      12.117  11.434  23.847  0.00  0.00    +0.120 A 
BRANCH  27   5
ATOM      5  O   UNL     1      12.293  12.458  24.724  0.00  0.00    -0.495 OA
ATOM     30  C   UNL     1      11.151  12.881  25.468  0.00  0.00    +0.277 C 
ENDBRANCH  27   5
ENDBRANCH   1  21
ENDBRANCH   7   1
TORSDOF 6
ENDMDL
MODEL 2
REMARK VINA RESULT:      -7.8     18.831     22.558
REMARK  Name = 7143176
REMARK  7 active torsions:
REMARK  status: ('A' for Active; 'I' for Inactive)
REMARK    1  A    between atoms: S_1  and  N_7
REMARK    2  A    between atoms: S_1  and  C_21
REMARK    3  A    between atoms: O_5  and  C_27
REMARK    4  A    between atoms: O_5  and  C_30
REMARK    5  A    between atoms: N_9  and  C_19
REMARK    6  A    between atoms: C_26  and  C_28
REMARK    7  A    between atoms: C_28  and  C_29
REMARK                            x       y       z     vdW  Elec       q    Type
REMARK                         _______ _______ _______ _____ _____    ______ ____
ROOT
ATOM      4  O   UNL     1      10.824   7.101   1.180  0.00  0.00    -0.266 OA
ATOM      7  N   UNL     1      11.846   3.800  -2.408  0.00  0.00    -0.176 NA
ATOM      8  N   UNL     1      12.187   5.431   0.277  0.00  0.00    -0.310 N 
ATOM     10  C   UNL     1      13.408   5.695  -1.958  0.00  0.00    +0.025 C 
ATOM     11  C   UNL     1      13.630   3.605  -0.687  0.00  0.00    +0.052 C 
ATOM     12  C   UNL     1      14.419   4.726  -1.358  0.00  0.00    +0.017 C 
ATOM     13  C   UNL     1      12.530   4.984  -3.002  0.00  0.00    +0.114 C 
ATOM     14  C   UNL     1      12.796   2.858  -1.743  0.00  0.00    +0.119 C 
ATOM     15  C   UNL     1      12.582   6.318  -0.826  0.00  0.00    +0.130 C 
ATOM     16  C   UNL     1      12.732   4.151   0.408  0.00  0.00    +0.026 A 
ATOM     17  C   UNL     1      12.444   3.401   1.485  0.00  0.00    +0.024 A 
ATOM     18  C   UNL     1      11.316   5.974   1.243  0.00  0.00    +0.273 A 
ATOM     19  C   UNL     1      11.002   5.097   2.417  0.00  0.00    +0.099 A 
ATOM     20  C   UNL     1      11.560   3.885   2.507  0.00  0.00    +0.030 A 
ENDROOT
BRANCH  19   9
ATOM      6  O   UNL     1      11.744   6.487   4.805  0.00  0.00    -0.275 OA
ATOM      9  N   UNL     1      10.152   5.580   3.368  0.00  0.00    -0.281 N 
ATOM     26  C   UNL     1      10.575   6.249   4.510  0.00  0.00    +0.222 C 
ATOM     36  H   UNL     1       9.197   5.233   3.338  0.00  0.00    +0.155 HD
BRANCH  26  28
ATOM     28  C   UNL     1       9.398   6.665   5.372  0.00  0.00    +0.131 C 
BRANCH  28  29
ATOM     29  C   UNL     1       9.409   6.037   6.741  0.00  0.00    -0.039 A 
ATOM     31  C   UNL     1       9.065   6.803   7.847  0.00  0.00    +0.004 A 
ATOM     32  C   UNL     1       9.763   4.702   6.878  0.00  0.00    +0.004 A 
ATOM     33  C   UNL     1       9.076   6.220   9.115  0.00  0.00    +0.000 A 
ATOM     34  C   UNL     1       9.774   4.120   8.145  0.00  0.00    +0.000 A 
ATOM     35  C   UNL     1       9.430   4.880   9.264  0.00  0.00    +0.000 A 
ENDBRANCH  28  29
ENDBRANCH  26  28
ENDBRANCH  19   9
BRANCH   7   1
ATOM      1  S   UNL     1      10.646   3.071  -3.388  0.00  0.00    +0.061 S 
ATOM      2  O   UNL     1      10.068   1.952  -2.676  0.00  0.00    -0.153 OA
ATOM      3  O   UNL     1      11.168   2.911  -4.729  0.00  0.00    -0.153 OA
BRANCH   1  21
ATOM     21  C   UNL     1       9.448   4.366  -3.423  0.00  0.00    +0.106 A 
ATOM     22  C   UNL     1       9.266   5.153  -2.297  0.00  0.00    +0.032 A 
ATOM     23  C   UNL     1       8.708   4.576  -4.576  0.00  0.00    +0.032 A 
ATOM     24  C   UNL     1       8.318   6.176  -2.325  0.00  0.00    +0.047 A 
ATOM     25  C   UNL     1       7.761   5.600  -4.604  0.00  0.00    +0.047 A 
ATOM     27  C   UNL     1       7.566   6.400  -3.478  0.00  0.00    +0.120 A 
BRANCH  27   5
ATOM      5  O   UNL     1       6.643   7.399  -3.505  0.00  0.00    -0.495 OA
ATOM     30  C   UNL     1       5.503   7.254  -2.659  0.00  0.00    +0.277 C 
ENDBRANCH  27   5
ENDBRANCH   1  21
ENDBRANCH   7   1
TORSDOF 6
ENDMDL
MODEL 3
REMARK VINA RESULT:      -7.6     28.057     30.422
REMARK  Name = 7143176
REMARK  7 active torsions:
REMARK  status: ('A' for Active; 'I' for Inactive)
REMARK    1  A    between atoms: S_1  and  N_7
REMARK    2  A    between atoms: S_1  and  C_21
REMARK    3  A    between atoms: O_5  and  C_27
REMARK    4  A    between atoms: O_5  and  C_30
REMARK    5  A    between atoms: N_9  and  C_19
REMARK    6  A    between atoms: C_26  and  C_28
REMARK    7  A    between atoms: C_28  and  C_29
REMARK                            x       y       z     vdW  Elec       q    Type
REMARK                         _______ _______ _______ _____ _____    ______ ____
ROOT
ATOM      4  O   UNL     1      -5.564 -13.673  15.347  0.00  0.00    -0.266 OA
ATOM      7  N   UNL     1      -8.695 -10.776  17.922  0.00  0.00    -0.176 NA
ATOM      8  N   UNL     1      -6.017 -12.274  17.164  0.00  0.00    -0.310 N 
ATOM     10  C   UNL     1      -7.755 -12.846  18.955  0.00  0.00    +0.025 C 
ATOM     11  C   UNL     1      -6.505 -10.736  19.099  0.00  0.00    +0.052 C 
ATOM     12  C   UNL     1      -6.882 -11.998  19.871  0.00  0.00    +0.017 C 
ATOM     13  C   UNL     1      -9.030 -12.080  18.562  0.00  0.00    +0.114 C 
ATOM     14  C   UNL     1      -7.779  -9.942  18.756  0.00  0.00    +0.119 C 
ATOM     15  C   UNL     1      -6.930 -13.274  17.736  0.00  0.00    +0.130 C 
ATOM     16  C   UNL     1      -5.739 -11.080  17.835  0.00  0.00    +0.026 A 
ATOM     17  C   UNL     1      -4.815 -10.232  17.350  0.00  0.00    +0.024 A 
ATOM     18  C   UNL     1      -5.365 -12.626  15.965  0.00  0.00    +0.273 A 
ATOM     19  C   UNL     1      -4.360 -11.643  15.446  0.00  0.00    +0.099 A 
ATOM     20  C   UNL     1      -4.115 -10.521  16.132  0.00  0.00    +0.030 A 
ENDROOT
BRANCH  19   9
ATOM      6  O   UNL     1      -1.530 -11.625  15.020  0.00  0.00    -0.275 OA
ATOM      9  N   UNL     1      -3.716 -11.941  14.281  0.00  0.00    -0.281 N 
ATOM     26  C   UNL     1      -2.334 -11.914  14.136  0.00  0.00    +0.222 C 
ATOM     36  H   UNL     1      -4.289 -11.960  13.442  0.00  0.00    +0.155 HD
BRANCH  26  28
ATOM     28  C   UNL     1      -1.921 -12.294  12.727  0.00  0.00    +0.131 C 
BRANCH  28  29
ATOM     29  C   UNL     1      -2.549 -11.428  11.667  0.00  0.00    -0.039 A 
ATOM     31  C   UNL     1      -3.518 -11.967  10.831  0.00  0.00    +0.004 A 
ATOM     32  C   UNL     1      -2.152 -10.105  11.540  0.00  0.00    +0.004 A 
ATOM     33  C   UNL     1      -4.100 -11.164   9.849  0.00  0.00    +0.000 A 
ATOM     34  C   UNL     1      -2.734  -9.302  10.559  0.00  0.00    +0.000 A 
ATOM     35  C   UNL     1      -3.708  -9.833   9.713  0.00  0.00    +0.000 A 
ENDBRANCH  28  29
ENDBRANCH  26  28
ENDBRANCH  19   9
BRANCH   7   1
ATOM      1  S   UNL     1     -10.011  -9.944  17.209  0.00  0.00    +0.061 S 
ATOM      2  O   UNL     1     -10.036  -8.585  17.706  0.00  0.00    -0.153 OA
ATOM      3  O   UNL     1     -11.189 -10.783  17.274  0.00  0.00    -0.153 OA
BRANCH   1  21
ATOM     21  C   UNL     1      -9.471  -9.894  15.530  0.00  0.00    +0.106 A 
ATOM     22  C   UNL     1     -10.406  -9.724  14.521  0.00  0.00    +0.032 A 
ATOM     23  C   UNL     1      -8.120 -10.024  15.246  0.00  0.00    +0.032 A 
ATOM     24  C   UNL     1      -9.979  -9.685  13.194  0.00  0.00    +0.047 A 
ATOM     25  C   UNL     1      -7.694  -9.984  13.919  0.00  0.00    +0.047 A 
ATOM     27  C   UNL     1      -8.623  -9.815  12.893  0.00  0.00    +0.120 A 
BRANCH  27   5
ATOM      5  O   UNL     1      -8.207  -9.776  11.598  0.00  0.00    -0.495 OA
ATOM     30  C   UNL     1      -6.958  -9.139  11.335  0.00  0.00    +0.277 C 
ENDBRANCH  27   5
ENDBRANCH   1  21
ENDBRANCH   7   1
TORSDOF 6
ENDMDL
MODEL 4
REMARK VINA RESULT:      -7.6     28.544     30.508
REMARK  Name = 7143176
REMARK  7 active torsions:
REMARK  status: ('A' for Active; 'I' for Inactive)
REMARK    1  A    between atoms: S_1  and  N_7
REMARK    2  A    between atoms: S_1  and  C_21
REMARK    3  A    between atoms: O_5  and  C_27
REMARK    4  A    between atoms: O_5  and  C_30
REMARK    5  A    between atoms: N_9  and  C_19
REMARK    6  A    between atoms: C_26  and  C_28
REMARK    7  A    between atoms: C_28  and  C_29
REMARK                            x       y       z     vdW  Elec       q    Type
REMARK                         _______ _______ _______ _____ _____    ______ ____
ROOT
ATOM      4  O   UNL     1      -4.936 -13.546  15.423  0.00  0.00    -0.266 OA
ATOM      7  N   UNL     1      -8.619 -11.468  18.057  0.00  0.00    -0.176 NA
ATOM      8  N   UNL     1      -5.698 -11.947  16.948  0.00  0.00    -0.310 N 
ATOM     10  C   UNL     1      -6.701 -12.565  19.221  0.00  0.00    +0.025 C 
ATOM     11  C   UNL     1      -6.538 -10.204  18.561  0.00  0.00    +0.052 C 
ATOM     12  C   UNL     1      -6.183 -11.202  19.661  0.00  0.00    +0.017 C 
ATOM     13  C   UNL     1      -8.227 -12.528  19.030  0.00  0.00    +0.114 C 
ATOM     14  C   UNL     1      -8.068 -10.126  18.411  0.00  0.00    +0.119 C 
ATOM     15  C   UNL     1      -5.963 -12.992  17.946  0.00  0.00    +0.130 C 
ATOM     16  C   UNL     1      -5.896 -10.595  17.243  0.00  0.00    +0.026 A 
ATOM     17  C   UNL     1      -5.540  -9.650  16.356  0.00  0.00    +0.024 A 
ATOM     18  C   UNL     1      -5.143 -12.369  15.722  0.00  0.00    +0.273 A 
ATOM     19  C   UNL     1      -4.782 -11.286  14.752  0.00  0.00    +0.099 A 
ATOM     20  C   UNL     1      -4.974 -10.006  15.086  0.00  0.00    +0.030 A 
ENDROOT
BRANCH  19   9
ATOM      6  O   UNL     1      -2.003 -11.371  14.075  0.00  0.00    -0.275 OA
ATOM      9  N   UNL     1      -4.254 -11.655  13.550  0.00  0.00    -0.281 N 
ATOM     26  C   UNL     1      -2.890 -11.675  13.281  0.00  0.00    +0.222 C 
ATOM     36  H   UNL     1      -4.900 -11.694  12.766  0.00  0.00    +0.155 HD
BRANCH  26  28
ATOM     28  C   UNL     1      -2.615 -12.130  11.860  0.00  0.00    +0.131 C 
BRANCH  28  29
ATOM     29  C   UNL     1      -3.188 -11.207  10.817  0.00  0.00    -0.039 A 
ATOM     31  C   UNL     1      -4.016 -11.722   9.829  0.00  0.00    +0.004 A 
ATOM     32  C   UNL     1      -2.881  -9.854  10.859  0.00  0.00    +0.004 A 
ATOM     33  C   UNL     1      -4.546 -10.867   8.863  0.00  0.00    +0.000 A 
ATOM     34  C   UNL     1      -3.412  -8.999   9.893  0.00  0.00    +0.000 A 
ATOM     35  C   UNL     1      -4.245  -9.506   8.895  0.00  0.00    +0.000 A 
ENDBRANCH  28  29
ENDBRANCH  26  28
ENDBRANCH  19   9
BRANCH   7   1
ATOM      1  S   UNL     1     -10.258 -11.488  17.563  0.00  0.00    +0.061 S 
ATOM      2  O   UNL     1     -11.105 -11.555  18.734  0.00  0.00    -0.153 OA
ATOM      3  O   UNL     1     -10.411 -12.436  16.478  0.00  0.00    -0.153 OA
BRANCH   1  21
ATOM     21  C   UNL     1     -10.397  -9.863  16.888  0.00  0.00    +0.106 A 
ATOM     22  C   UNL     1      -9.845  -9.595  15.646  0.00  0.00    +0.032 A 
ATOM     23  C   UNL     1     -11.057  -8.882  17.611  0.00  0.00    +0.032 A 
ATOM     24  C   UNL     1      -9.955  -8.311  15.113  0.00  0.00    +0.047 A 
ATOM     25  C   UNL     1     -11.167  -7.598  17.078  0.00  0.00    +0.047 A 
ATOM     27  C   UNL     1     -10.615  -7.312  15.828  0.00  0.00    +0.120 A 
BRANCH  27   5
ATOM      5  O   UNL     1     -10.724  -6.060  15.308  0.00  0.00    -0.495 OA
ATOM     30  C   UNL     1     -11.942  -5.736  14.641  0.00  0.00    +0.277 C 
ENDBRANCH  27   5
ENDBRANCH   1  21
ENDBRANCH   7   1
TORSDOF 6
ENDMDL
MODEL 5
REMARK VINA RESULT:      -7.5     15.650     18.930
REMARK  Name = 7143176
REMARK  7 active torsions:
REMARK  status: ('A' for Active; 'I' for Inactive)
REMARK    1  A    between atoms: S_1  and  N_7
REMARK    2  A    between atoms: S_1  and  C_21
REMARK    3  A    between atoms: O_5  and  C_27
REMARK    4  A    between atoms: O_5  and  C_30
REMARK    5  A    between atoms: N_9  and  C_19
REMARK    6  A    between atoms: C_26  and  C_28
REMARK    7  A    between atoms: C_28  and  C_29
REMARK                            x       y       z     vdW  Elec       q    Type
REMARK                         _______ _______ _______ _____ _____    ______ ____
ROOT
ATOM      4  O   UNL     1      11.473   7.040   2.175  0.00  0.00    -0.266 OA
ATOM      7  N   UNL     1       9.845   9.751   6.025  0.00  0.00    -0.176 NA
ATOM      8  N   UNL     1       9.799   7.603   3.706  0.00  0.00    -0.310 N 
ATOM     10  C   UNL     1       8.728   9.927   3.798  0.00  0.00    +0.025 C 
ATOM     11  C   UNL     1       8.016   8.192   5.385  0.00  0.00    +0.052 C 
ATOM     12  C   UNL     1       7.513   9.190   4.344  0.00  0.00    +0.017 C 
ATOM     13  C   UNL     1       9.455  10.680   4.925  0.00  0.00    +0.114 C 
ATOM     14  C   UNL     1       8.693   8.952   6.540  0.00  0.00    +0.119 C 
ATOM     15  C   UNL     1       9.640   8.923   3.082  0.00  0.00    +0.130 C 
ATOM     16  C   UNL     1       8.982   7.200   4.766  0.00  0.00    +0.026 A 
ATOM     17  C   UNL     1       9.067   5.948   5.247  0.00  0.00    +0.024 A 
ATOM     18  C   UNL     1      10.742   6.735   3.119  0.00  0.00    +0.273 A 
ATOM     19  C   UNL     1      10.823   5.356   3.700  0.00  0.00    +0.099 A 
ATOM     20  C   UNL     1      10.008   5.011   4.702  0.00  0.00    +0.030 A 
ENDROOT
BRANCH  19   9
ATOM      6  O   UNL     1      10.517   3.847   1.288  0.00  0.00    -0.275 OA
ATOM      9  N   UNL     1      11.732   4.490   3.167  0.00  0.00    -0.281 N 
ATOM     26  C   UNL     1      11.524   3.784   1.988  0.00  0.00    +0.222 C 
ATOM     36  H   UNL     1      12.484   4.192   3.782  0.00  0.00    +0.155 HD
BRANCH  26  28
ATOM     28  C   UNL     1      12.716   2.905   1.656  0.00  0.00    +0.131 C 
BRANCH  28  29
ATOM     29  C   UNL     1      13.650   3.522   0.649  0.00  0.00    -0.039 A 
ATOM     31  C   UNL     1      14.897   3.973   1.061  0.00  0.00    +0.004 A 
ATOM     32  C   UNL     1      13.253   3.631  -0.675  0.00  0.00    +0.004 A 
ATOM     33  C   UNL     1      15.763   4.544   0.128  0.00  0.00    +0.000 A 
ATOM     34  C   UNL     1      14.118   4.203  -1.608  0.00  0.00    +0.000 A 
ATOM     35  C   UNL     1      15.374   4.659  -1.206  0.00  0.00    +0.000 A 
ENDBRANCH  28  29
ENDBRANCH  26  28
ENDBRANCH  19   9
BRANCH   7   1
ATOM      1  S   UNL     1      10.880  10.411   7.217  0.00  0.00    +0.061 S 
ATOM      2  O   UNL     1      10.503   9.889   8.514  0.00  0.00    -0.153 OA
ATOM      3  O   UNL     1      11.005  11.836   6.996  0.00  0.00    -0.153 OA
BRANCH   1  21
ATOM     21  C   UNL     1      12.406   9.654   6.754  0.00  0.00    +0.106 A 
ATOM     22  C   UNL     1      13.579  10.389   6.831  0.00  0.00    +0.032 A 
ATOM     23  C   UNL     1      12.408   8.338   6.322  0.00  0.00    +0.032 A 
ATOM     24  C   UNL     1      14.784   9.791   6.464  0.00  0.00    +0.047 A 
ATOM     25  C   UNL     1      13.613   7.740   5.956  0.00  0.00    +0.047 A 
ATOM     27  C   UNL     1      14.802   8.467   6.027  0.00  0.00    +0.120 A 
BRANCH  27   5
ATOM      5  O   UNL     1      15.978   7.883   5.671  0.00  0.00    -0.495 OA
ATOM     30  C   UNL     1      16.338   7.934   4.291  0.00  0.00    +0.277 C 
ENDBRANCH  27   5
ENDBRANCH   1  21
ENDBRANCH   7   1
TORSDOF 6
ENDMDL
MODEL 6
REMARK VINA RESULT:      -7.5     27.549     30.785
REMARK  Name = 7143176
REMARK  7 active torsions:
REMARK  status: ('A' for Active; 'I' for Inactive)
REMARK    1  A    between atoms: S_1  and  N_7
REMARK    2  A    between atoms: S_1  and  C_21
REMARK    3  A    between atoms: O_5  and  C_27
REMARK    4  A    between atoms: O_5  and  C_30
REMARK    5  A    between atoms: N_9  and  C_19
REMARK    6  A    between atoms: C_26  and  C_28
REMARK    7  A    between atoms: C_28  and  C_29
REMARK                            x       y       z     vdW  Elec       q    Type
REMARK                         _______ _______ _______ _____ _____    ______ ____
ROOT
ATOM      4  O   UNL     1      -5.800 -13.551  16.531  0.00  0.00    -0.266 OA
ATOM      7  N   UNL     1     -10.071 -11.652  18.256  0.00  0.00    -0.176 NA
ATOM      8  N   UNL     1      -7.255 -13.087  18.301  0.00  0.00    -0.310 N 
ATOM     10  C   UNL     1      -9.603 -14.095  18.467  0.00  0.00    +0.025 C 
ATOM     11  C   UNL     1      -8.814 -12.549  20.205  0.00  0.00    +0.052 C 
ATOM     12  C   UNL     1      -9.411 -13.934  19.969  0.00  0.00    +0.017 C 
ATOM     13  C   UNL     1     -10.561 -13.021  17.925  0.00  0.00    +0.114 C 
ATOM     14  C   UNL     1      -9.799 -11.473  19.714  0.00  0.00    +0.119 C 
ATOM     15  C   UNL     1      -8.231 -14.056  17.783  0.00  0.00    +0.130 C 
ATOM     16  C   UNL     1      -7.478 -12.405  19.501  0.00  0.00    +0.026 A 
ATOM     17  C   UNL     1      -6.524 -11.610  20.014  0.00  0.00    +0.024 A 
ATOM     18  C   UNL     1      -6.048 -12.959  17.583  0.00  0.00    +0.273 A 
ATOM     19  C   UNL     1      -5.020 -12.046  18.177  0.00  0.00    +0.099 A 
ATOM     20  C   UNL     1      -5.272 -11.428  19.335  0.00  0.00    +0.030 A 
ENDROOT
BRANCH  19   9
ATOM      6  O   UNL     1      -4.341  -9.877  16.437  0.00  0.00    -0.275 OA
ATOM      9  N   UNL     1      -3.843 -11.885  17.506  0.00  0.00    -0.281 N 
ATOM     26  C   UNL     1      -3.573 -10.806  16.672  0.00  0.00    +0.222 C 
ATOM     36  H   UNL     1      -3.244 -12.704  17.445  0.00  0.00    +0.155 HD
BRANCH  26  28
ATOM     28  C   UNL     1      -2.183 -10.909  16.072  0.00  0.00    +0.131 C 
BRANCH  28  29
ATOM     29  C   UNL     1      -2.191 -11.130  14.582  0.00  0.00    -0.039 A 
ATOM     31  C   UNL     1      -2.562 -12.369  14.077  0.00  0.00    +0.004 A 
ATOM     32  C   UNL     1      -1.829 -10.093  13.735  0.00  0.00    +0.004 A 
ATOM     33  C   UNL     1      -2.570 -12.573  12.697  0.00  0.00    +0.000 A 
ATOM     34  C   UNL     1      -1.837 -10.297  12.356  0.00  0.00    +0.000 A 
ATOM     35  C   UNL     1      -2.207 -11.538  11.837  0.00  0.00    +0.000 A 
ENDBRANCH  28  29
ENDBRANCH  26  28
ENDBRANCH  19   9
BRANCH   7   1
ATOM      1  S   UNL     1     -10.905 -10.365  17.496  0.00  0.00    +0.061 S 
ATOM      2  O   UNL     1     -10.833  -9.190  18.338  0.00  0.00    -0.153 OA
ATOM      3  O   UNL     1     -12.178 -10.853  17.007  0.00  0.00    -0.153 OA
BRANCH   1  21
ATOM     21  C   UNL     1      -9.855 -10.097  16.103  0.00  0.00    +0.106 A 
ATOM     22  C   UNL     1      -8.484 -10.230  16.251  0.00  0.00    +0.032 A 
ATOM     23  C   UNL     1     -10.419  -9.758  14.883  0.00  0.00    +0.032 A 
ATOM     24  C   UNL     1      -7.654 -10.017  15.151  0.00  0.00    +0.047 A 
ATOM     25  C   UNL     1      -9.589  -9.547  13.782  0.00  0.00    +0.047 A 
ATOM     27  C   UNL     1      -8.206  -9.676  13.916  0.00  0.00    +0.120 A 
BRANCH  27   5
ATOM      5  O   UNL     1      -7.396  -9.470  12.842  0.00  0.00    -0.495 OA
ATOM     30  C   UNL     1      -6.021  -9.820  12.989  0.00  0.00    +0.277 C 
ENDBRANCH  27   5
ENDBRANCH   1  21
ENDBRANCH   7   1
TORSDOF 6
ENDMDL
MODEL 7
REMARK VINA RESULT:      -7.4     27.073     30.568
REMARK  Name = 7143176
REMARK  7 active torsions:
REMARK  status: ('A' for Active; 'I' for Inactive)
REMARK    1  A    between atoms: S_1  and  N_7
REMARK    2  A    between atoms: S_1  and  C_21
REMARK    3  A    between atoms: O_5  and  C_27
REMARK    4  A    between atoms: O_5  and  C_30
REMARK    5  A    between atoms: N_9  and  C_19
REMARK    6  A    between atoms: C_26  and  C_28
REMARK    7  A    between atoms: C_28  and  C_29
REMARK                            x       y       z     vdW  Elec       q    Type
REMARK                         _______ _______ _______ _____ _____    ______ ____
ROOT
ATOM      4  O   UNL     1     -14.973   9.557  19.653  0.00  0.00    -0.266 OA
ATOM      7  N   UNL     1     -11.294   9.492  16.294  0.00  0.00    -0.176 NA
ATOM      8  N   UNL     1     -12.696   9.549  19.126  0.00  0.00    -0.310 N 
ATOM     10  C   UNL     1     -11.566  11.444  17.827  0.00  0.00    +0.025 C 
ATOM     11  C   UNL     1     -10.244   9.503  18.548  0.00  0.00    +0.052 C 
ATOM     12  C   UNL     1     -10.313  11.027  18.588  0.00  0.00    +0.017 C 
ATOM     13  C   UNL     1     -11.495  10.968  16.366  0.00  0.00    +0.114 C 
ATOM     14  C   UNL     1     -10.117   9.030  17.089  0.00  0.00    +0.119 C 
ATOM     15  C   UNL     1     -12.798  10.901  18.561  0.00  0.00    +0.130 C 
ATOM     16  C   UNL     1     -11.468   8.885  19.200  0.00  0.00    +0.026 A 
ATOM     17  C   UNL     1     -11.377   7.698  19.823  0.00  0.00    +0.024 A 
ATOM     18  C   UNL     1     -13.873   9.004  19.679  0.00  0.00    +0.273 A 
ATOM     19  C   UNL     1     -13.734   7.668  20.344  0.00  0.00    +0.099 A 
ATOM     20  C   UNL     1     -12.535   7.079  20.404  0.00  0.00    +0.030 A 
ENDROOT
BRANCH  19   9
ATOM      6  O   UNL     1     -14.607   7.879  23.060  0.00  0.00    -0.275 OA
ATOM      9  N   UNL     1     -14.852   7.101  20.879  0.00  0.00    -0.281 N 
ATOM     26  C   UNL     1     -15.224   7.240  22.211  0.00  0.00    +0.222 C 
ATOM     36  H   UNL     1     -15.295   6.370  20.329  0.00  0.00    +0.155 HD
BRANCH  26  28
ATOM     28  C   UNL     1     -16.514   6.496  22.504  0.00  0.00    +0.131 C 
BRANCH  28  29
ATOM     29  C   UNL     1     -16.388   5.506  23.632  0.00  0.00    -0.039 A 
ATOM     31  C   UNL     1     -17.217   5.624  24.740  0.00  0.00    +0.004 A 
ATOM     32  C   UNL     1     -15.448   4.489  23.548  0.00  0.00    +0.004 A 
ATOM     33  C   UNL     1     -17.101   4.707  25.784  0.00  0.00    +0.000 A 
ATOM     34  C   UNL     1     -15.332   3.572  24.592  0.00  0.00    +0.000 A 
ATOM     35  C   UNL     1     -16.159   3.682  25.711  0.00  0.00    +0.000 A 
ENDBRANCH  28  29
ENDBRANCH  26  28
ENDBRANCH  19   9
BRANCH   7   1
ATOM      1  S   UNL     1     -11.453   8.800  14.736  0.00  0.00    +0.061 S 
ATOM      2  O   UNL     1     -10.531   7.691  14.614  0.00  0.00    -0.153 OA
ATOM      3  O   UNL     1     -11.476   9.861  13.751  0.00  0.00    -0.153 OA
BRANCH   1  21
ATOM     21  C   UNL     1     -13.084   8.136  14.858  0.00  0.00    +0.106 A 
ATOM     22  C   UNL     1     -13.654   7.531  13.750  0.00  0.00    +0.032 A 
ATOM     23  C   UNL     1     -13.767   8.229  16.060  0.00  0.00    +0.032 A 
ATOM     24  C   UNL     1     -14.943   7.007  13.846  0.00  0.00    +0.047 A 
ATOM     25  C   UNL     1     -15.055   7.703  16.157  0.00  0.00    +0.047 A 
ATOM     27  C   UNL     1     -15.643   7.093  15.049  0.00  0.00    +0.120 A 
BRANCH  27   5
ATOM      5  O   UNL     1     -16.900   6.580  15.143  0.00  0.00    -0.495 OA
ATOM     30  C   UNL     1     -17.020   5.159  15.200  0.00  0.00    +0.277 C 
ENDBRANCH  27   5
ENDBRANCH   1  21
ENDBRANCH   7   1
TORSDOF 6
ENDMDL
MODEL 8
REMARK VINA RESULT:      -7.4     16.728     20.920
REMARK  Name = 7143176
REMARK  7 active torsions:
REMARK  status: ('A' for Active; 'I' for Inactive)
REMARK    1  A    between atoms: S_1  and  N_7
REMARK    2  A    between atoms: S_1  and  C_21
REMARK    3  A    between atoms: O_5  and  C_27
REMARK    4  A    between atoms: O_5  and  C_30
REMARK    5  A    between atoms: N_9  and  C_19
REMARK    6  A    between atoms: C_26  and  C_28
REMARK    7  A    between atoms: C_28  and  C_29
REMARK                            x       y       z     vdW  Elec       q    Type
REMARK                         _______ _______ _______ _____ _____    ______ ____
ROOT
ATOM      4  O   UNL     1       9.994   7.627   1.305  0.00  0.00    -0.266 OA
ATOM      7  N   UNL     1      11.447   7.232   6.054  0.00  0.00    -0.176 NA
ATOM      8  N   UNL     1       9.820   6.630   3.412  0.00  0.00    -0.310 N 
ATOM     10  C   UNL     1       9.112   7.925   5.504  0.00  0.00    +0.025 C 
ATOM     11  C   UNL     1       9.666   5.538   5.677  0.00  0.00    +0.052 C 
ATOM     12  C   UNL     1       8.593   6.578   5.989  0.00  0.00    +0.017 C 
ATOM     13  C   UNL     1      10.417   8.295   6.230  0.00  0.00    +0.114 C 
ATOM     14  C   UNL     1      10.954   5.879   6.449  0.00  0.00    +0.119 C 
ATOM     15  C   UNL     1       9.283   7.874   3.981  0.00  0.00    +0.130 C 
ATOM     16  C   UNL     1       9.944   5.473   4.186  0.00  0.00    +0.026 A 
ATOM     17  C   UNL     1      10.329   4.318   3.618  0.00  0.00    +0.024 A 
ATOM     18  C   UNL     1      10.103   6.637   2.030  0.00  0.00    +0.273 A 
ATOM     19  C   UNL     1      10.552   5.335   1.441  0.00  0.00    +0.099 A 
ATOM     20  C   UNL     1      10.639   4.251   2.218  0.00  0.00    +0.030 A 
ENDROOT
BRANCH  19   9
ATOM      6  O   UNL     1      13.135   4.905   0.288  0.00  0.00    -0.275 OA
ATOM      9  N   UNL     1      10.848   5.304   0.110  0.00  0.00    -0.281 N 
ATOM     26  C   UNL     1      12.127   5.090  -0.390  0.00  0.00    +0.222 C 
ATOM     36  H   UNL     1      10.141   5.676  -0.518  0.00  0.00    +0.155 HD
BRANCH  26  28
ATOM     28  C   UNL     1      12.136   5.110  -1.907  0.00  0.00    +0.131 C 
BRANCH  28  29
ATOM     29  C   UNL     1      11.206   4.098  -2.522  0.00  0.00    -0.039 A 
ATOM     31  C   UNL     1      10.130   4.533  -3.284  0.00  0.00    +0.004 A 
ATOM     32  C   UNL     1      11.438   2.745  -2.321  0.00  0.00    +0.004 A 
ATOM     33  C   UNL     1       9.269   3.596  -3.854  0.00  0.00    +0.000 A 
ATOM     34  C   UNL     1      10.577   1.807  -2.891  0.00  0.00    +0.000 A 
ATOM     35  C   UNL     1       9.492   2.233  -3.658  0.00  0.00    +0.000 A 
ENDBRANCH  28  29
ENDBRANCH  26  28
ENDBRANCH  19   9
BRANCH   7   1
ATOM      1  S   UNL     1      13.022   7.633   6.593  0.00  0.00    +0.061 S 
ATOM      2  O   UNL     1      13.511   6.576   7.453  0.00  0.00    -0.153 OA
ATOM      3  O   UNL     1      13.032   9.013   7.030  0.00  0.00    -0.153 OA
BRANCH   1  21
ATOM     21  C   UNL     1      13.904   7.539   5.068  0.00  0.00    +0.106 A 
ATOM     22  C   UNL     1      13.206   7.312   3.893  0.00  0.00    +0.032 A 
ATOM     23  C   UNL     1      15.281   7.695   5.069  0.00  0.00    +0.032 A 
ATOM     24  C   UNL     1      13.904   7.238   2.687  0.00  0.00    +0.047 A 
ATOM     25  C   UNL     1      15.979   7.622   3.864  0.00  0.00    +0.047 A 
ATOM     27  C   UNL     1      15.290   7.393   2.672  0.00  0.00    +0.120 A 
BRANCH  27   5
ATOM      5  O   UNL     1      15.970   7.322   1.496  0.00  0.00    -0.495 OA
ATOM     30  C   UNL     1      17.239   7.971   1.439  0.00  0.00    +0.277 C 
ENDBRANCH  27   5
ENDBRANCH   1  21
ENDBRANCH   7   1
TORSDOF 6
ENDMDL
MODEL 9
REMARK VINA RESULT:      -7.3     28.429     31.475
REMARK  Name = 7143176
REMARK  7 active torsions:
REMARK  status: ('A' for Active; 'I' for Inactive)
REMARK    1  A    between atoms: S_1  and  N_7
REMARK    2  A    between atoms: S_1  and  C_21
REMARK    3  A    between atoms: O_5  and  C_27
REMARK    4  A    between atoms: O_5  and  C_30
REMARK    5  A    between atoms: N_9  and  C_19
REMARK    6  A    between atoms: C_26  and  C_28
REMARK    7  A    between atoms: C_28  and  C_29
REMARK                            x       y       z     vdW  Elec       q    Type
REMARK                         _______ _______ _______ _____ _____    ______ ____
ROOT
ATOM      4  O   UNL     1      -7.596  -8.819  17.272  0.00  0.00    -0.266 OA
ATOM      7  N   UNL     1      -4.853 -12.686  15.740  0.00  0.00    -0.176 NA
ATOM      8  N   UNL     1      -6.285 -10.698  17.737  0.00  0.00    -0.310 N 
ATOM     10  C   UNL     1      -3.814 -10.860  17.088  0.00  0.00    +0.025 C 
ATOM     11  C   UNL     1      -4.902 -12.746  18.226  0.00  0.00    +0.052 C 
ATOM     12  C   UNL     1      -3.708 -11.796  18.285  0.00  0.00    +0.017 C 
ATOM     13  C   UNL     1      -3.776 -11.656  15.773  0.00  0.00    +0.114 C 
ATOM     14  C   UNL     1      -4.832 -13.582  16.935  0.00  0.00    +0.119 C 
ATOM     15  C   UNL     1      -5.088 -10.017  17.226  0.00  0.00    +0.130 C 
ATOM     16  C   UNL     1      -6.210 -11.979  18.290  0.00  0.00    +0.026 A 
ATOM     17  C   UNL     1      -7.295 -12.537  18.853  0.00  0.00    +0.024 A 
ATOM     18  C   UNL     1      -7.484  -9.956  17.733  0.00  0.00    +0.273 A 
ATOM     19  C   UNL     1      -8.676 -10.623  18.349  0.00  0.00    +0.099 A 
ATOM     20  C   UNL     1      -8.551 -11.843  18.881  0.00  0.00    +0.030 A 
ENDROOT
BRANCH  19   9
ATOM      6  O   UNL     1     -10.711 -10.747  16.341  0.00  0.00    -0.275 OA
ATOM      9  N   UNL     1      -9.858  -9.943  18.353  0.00  0.00    -0.281 N 
ATOM     26  C   UNL     1     -10.809 -10.045  17.345  0.00  0.00    +0.222 C 
ATOM     36  H   UNL     1      -9.931  -9.169  19.008  0.00  0.00    +0.155 HD
BRANCH  26  28
ATOM     28  C   UNL     1     -12.015  -9.171  17.634  0.00  0.00    +0.131 C 
BRANCH  28  29
ATOM     29  C   UNL     1     -12.126  -7.984  16.714  0.00  0.00    -0.039 A 
ATOM     31  C   UNL     1     -13.260  -7.834  15.926  0.00  0.00    +0.004 A 
ATOM     32  C   UNL     1     -11.095  -7.057  16.667  0.00  0.00    +0.004 A 
ATOM     33  C   UNL     1     -13.362  -6.734  15.075  0.00  0.00    +0.000 A 
ATOM     34  C   UNL     1     -11.198  -5.957  15.815  0.00  0.00    +0.000 A 
ATOM     35  C   UNL     1     -12.332  -5.797  15.018  0.00  0.00    +0.000 A 
ENDBRANCH  28  29
ENDBRANCH  26  28
ENDBRANCH  19   9
BRANCH   7   1
ATOM      1  S   UNL     1      -5.084 -13.467  14.234  0.00  0.00    +0.061 S 
ATOM      2  O   UNL     1      -6.495 -13.734  14.050  0.00  0.00    -0.153 OA
ATOM      3  O   UNL     1      -4.102 -14.522  14.097  0.00  0.00    -0.153 OA
BRANCH   1  21
ATOM     21  C   UNL     1      -4.634 -12.160  13.137  0.00  0.00    +0.106 A 
ATOM     22  C   UNL     1      -3.459 -12.261  12.408  0.00  0.00    +0.032 A 
ATOM     23  C   UNL     1      -5.462 -11.055  13.020  0.00  0.00    +0.032 A 
ATOM     24  C   UNL     1      -3.103 -11.228  11.541  0.00  0.00    +0.047 A 
ATOM     25  C   UNL     1      -5.106 -10.023  12.152  0.00  0.00    +0.047 A 
ATOM     27  C   UNL     1      -3.927 -10.109  11.413  0.00  0.00    +0.120 A 
BRANCH  27   5
ATOM      5  O   UNL     1      -3.580  -9.102  10.566  0.00  0.00    -0.495 OA
ATOM     30  C   UNL     1      -4.083  -9.172   9.233  0.00  0.00    +0.277 C 
ENDBRANCH  27   5
ENDBRANCH   1  21
ENDBRANCH   7   1
TORSDOF 6
ENDMDL
MODEL 10
REMARK VINA RESULT:      -7.3     28.343     31.302
REMARK  Name = 7143176
REMARK  7 active torsions:
REMARK  status: ('A' for Active; 'I' for Inactive)
REMARK    1  A    between atoms: S_1  and  N_7
REMARK    2  A    between atoms: S_1  and  C_21
REMARK    3  A    between atoms: O_5  and  C_27
REMARK    4  A    between atoms: O_5  and  C_30
REMARK    5  A    between atoms: N_9  and  C_19
REMARK    6  A    between atoms: C_26  and  C_28
REMARK    7  A    between atoms: C_28  and  C_29
REMARK                            x       y       z     vdW  Elec       q    Type
REMARK                         _______ _______ _______ _____ _____    ______ ____
ROOT
ATOM      4  O   UNL     1      -4.059 -12.929  15.889  0.00  0.00    -0.266 OA
ATOM      7  N   UNL     1      -8.466 -12.233  18.107  0.00  0.00    -0.176 NA
ATOM      8  N   UNL     1      -5.552 -11.576  17.074  0.00  0.00    -0.310 N 
ATOM     10  C   UNL     1      -6.356 -12.138  19.439  0.00  0.00    +0.025 C 
ATOM     11  C   UNL     1      -7.183 -10.114  18.318  0.00  0.00    +0.052 C 
ATOM     12  C   UNL     1      -6.514 -10.631  19.590  0.00  0.00    +0.017 C 
ATOM     13  C   UNL     1      -7.729 -12.811  19.267  0.00  0.00    +0.114 C 
ATOM     14  C   UNL     1      -8.580 -10.746  18.178  0.00  0.00    +0.119 C 
ATOM     15  C   UNL     1      -5.412 -12.425  18.265  0.00  0.00    +0.130 C 
ATOM     16  C   UNL     1      -6.338 -10.420  17.096  0.00  0.00    +0.026 A 
ATOM     17  C   UNL     1      -6.361  -9.598  16.033  0.00  0.00    +0.024 A 
ATOM     18  C   UNL     1      -4.778 -11.931  15.950  0.00  0.00    +0.273 A 
ATOM     19  C   UNL     1      -4.850 -11.001  14.778  0.00  0.00    +0.099 A 
ATOM     20  C   UNL     1      -5.602  -9.898  14.852  0.00  0.00    +0.030 A 
ENDROOT
BRANCH  19   9
ATOM      6  O   UNL     1      -2.157 -10.204  14.227  0.00  0.00    -0.275 OA
ATOM      9  N   UNL     1      -4.126 -11.315  13.666  0.00  0.00    -0.281 N 
ATOM     26  C   UNL     1      -2.817 -10.897  13.455  0.00  0.00    +0.222 C 
ATOM     36  H   UNL     1      -4.650 -11.677  12.874  0.00  0.00    +0.155 HD
BRANCH  26  28
ATOM     28  C   UNL     1      -2.282 -11.408  12.131  0.00  0.00    +0.131 C 
BRANCH  28  29
ATOM     29  C   UNL     1      -3.050 -10.898  10.940  0.00  0.00    -0.039 A 
ATOM     31  C   UNL     1      -3.772 -11.791  10.159  0.00  0.00    +0.004 A 
ATOM     32  C   UNL     1      -3.027  -9.543  10.640  0.00  0.00    +0.004 A 
ATOM     33  C   UNL     1      -4.484 -11.318   9.056  0.00  0.00    +0.000 A 
ATOM     34  C   UNL     1      -3.739  -9.071   9.538  0.00  0.00    +0.000 A 
ATOM     35  C   UNL     1      -4.467  -9.959   8.746  0.00  0.00    +0.000 A 
ENDBRANCH  28  29
ENDBRANCH  26  28
ENDBRANCH  19   9
BRANCH   7   1
ATOM      1  S   UNL     1      -9.892 -13.063  17.650  0.00  0.00    +0.061 S 
ATOM      2  O   UNL     1      -9.546 -14.404  17.228  0.00  0.00    -0.153 OA
ATOM      3  O   UNL     1     -10.689 -12.199  16.805  0.00  0.00    -0.153 OA
BRANCH   1  21
ATOM     21  C   UNL     1     -10.696 -13.182  19.217  0.00  0.00    +0.106 A 
ATOM     22  C   UNL     1     -10.604 -14.361  19.939  0.00  0.00    +0.032 A 
ATOM     23  C   UNL     1     -11.405 -12.093  19.701  0.00  0.00    +0.032 A 
ATOM     24  C   UNL     1     -11.240 -14.454  21.177  0.00  0.00    +0.047 A 
ATOM     25  C   UNL     1     -12.039 -12.187  20.939  0.00  0.00    +0.047 A 
ATOM     27  C   UNL     1     -11.957 -13.368  21.677  0.00  0.00    +0.120 A 
BRANCH  27   5
ATOM      5  O   UNL     1     -12.576 -13.459  22.886  0.00  0.00    -0.495 OA
ATOM     30  C   UNL     1     -13.682 -12.589  23.117  0.00  0.00    +0.277 C 
ENDBRANCH  27   5
ENDBRANCH   1  21
ENDBRANCH   7   1
TORSDOF 6
ENDMDL
