MODEL 1
REMARK VINA RESULT:      -7.2      0.000      0.000
REMARK  Name = 11879672
REMARK  11 active torsions:
REMARK  status: ('A' for Active; 'I' for Inactive)
REMARK    1  A    between atoms: O_3  and  C_19
REMARK    2  A    between atoms: O_3  and  C_23
REMARK    3  A    between atoms: O_5  and  C_24
REMARK    4  A    between atoms: N_7  and  C_15
REMARK    5  A    between atoms: N_8  and  C_16
REMARK    6  A    between atoms: N_12  and  C_27
REMARK    7  A    between atoms: N_12  and  C_30
REMARK    8  A    between atoms: N_12  and  C_31
REMARK    9  A    between atoms: C_20  and  C_21
REMARK   10  A    between atoms: C_21  and  C_22
REMARK   11  A    between atoms: C_22  and  C_24
REMARK                            x       y       z     vdW  Elec       q    Type
REMARK                         _______ _______ _______ _____ _____    ______ ____
ROOT
ATOM      1  O   UNL     1      14.243   8.610  19.572  0.00  0.00    -0.370 OA
ATOM      2  O   UNL     1      11.882   6.720  20.436  0.00  0.00    -0.370 OA
ATOM     13  C   UNL     1      11.985   7.846  19.545  0.00  0.00    +0.176 C 
ATOM     14  C   UNL     1      12.957   8.827  20.172  0.00  0.00    +0.171 C 
ATOM     15  C   UNL     1      12.650   7.419  18.250  0.00  0.00    +0.171 C 
ATOM     16  C   UNL     1      12.988   8.439  21.634  0.00  0.00    +0.130 C 
ATOM     17  C   UNL     1      14.133   7.613  18.547  0.00  0.00    +0.190 C 
ATOM     18  C   UNL     1      12.720   6.946  21.578  0.00  0.00    +0.185 C 
ENDROOT
BRANCH  15   7
ATOM      7  N   UNL     1      12.148   8.160  17.090  0.00  0.00    -0.187 N 
ATOM      9  N   UNL     1      10.844   8.160  16.777  0.00  0.00    -0.041 NA
ATOM     10  N   UNL     1      11.988   9.394  15.314  0.00  0.00    -0.071 NA
ATOM     11  N   UNL     1      10.753   8.916  15.690  0.00  0.00    -0.020 NA
ATOM     19  C   UNL     1      12.836   8.913  16.194  0.00  0.00    +0.342 A 
BRANCH  19   3
ATOM      3  O   UNL     1      14.141   9.114  16.222  0.00  0.00    -0.423 OA
BRANCH   3  23
ATOM     23  C   UNL     1      14.711  10.361  16.008  0.00  0.00    +0.134 A 
ATOM     25  C   UNL     1      15.433  10.607  14.840  0.00  0.00    +0.069 A 
ATOM     26  C   UNL     1      14.560  11.368  16.960  0.00  0.00    +0.046 A 
ATOM     27  C   UNL     1      16.006  11.860  14.625  0.00  0.00    +0.033 A 
ATOM     28  C   UNL     1      15.133  12.623  16.746  0.00  0.00    +0.005 A 
ATOM     29  C   UNL     1      15.855  12.868  15.579  0.00  0.00    +0.023 A 
BRANCH  27  12
ATOM     12  N   UNL     1      16.737  12.110  13.446  0.00  0.00    -0.336 N 
ATOM     30  C   UNL     1      18.155  12.406  13.511  0.00  0.00    +0.129 C 
ATOM     31  C   UNL     1      16.080  12.086  12.155  0.00  0.00    +0.129 C 
ENDBRANCH  27  12
ENDBRANCH   3  23
ENDBRANCH  19   3
ENDBRANCH  15   7
BRANCH  16   8
ATOM      4  O   UNL     1      13.161  11.062  22.845  0.00  0.00    -0.276 OA
ATOM      8  N   UNL     1      11.961   9.126  22.379  0.00  0.00    -0.308 N 
ATOM     20  C   UNL     1      12.135  10.390  22.926  0.00  0.00    +0.214 C 
ATOM     32  H   UNL     1      11.088   8.636  22.552  0.00  0.00    +0.149 HD
BRANCH  20  21
ATOM     21  C   UNL     1      10.890  10.862  23.655  0.00  0.00    +0.107 C 
BRANCH  21  22
ATOM     22  C   UNL     1      11.216  11.592  24.954  0.00  0.00    +0.129 C 
BRANCH  22  24
ATOM      6  O   UNL     1      10.626  13.728  25.960  0.00  0.00    -0.251 OA
ATOM     24  C   UNL     1      10.482  12.908  25.063  0.00  0.00    +0.305 C 
BRANCH  24   5
ATOM      5  O   UNL     1       9.623  13.085  24.025  0.00  0.00    -0.481 OA
ATOM     33  H   UNL     1       9.987  13.698  23.351  0.00  0.00    +0.295 HD
ENDBRANCH  24   5
ENDBRANCH  22  24
ENDBRANCH  21  22
ENDBRANCH  20  21
ENDBRANCH  16   8
TORSDOF 9
ENDMDL
MODEL 2
REMARK VINA RESULT:      -7.0     26.880     28.385
REMARK  Name = 11879672
REMARK  11 active torsions:
REMARK  status: ('A' for Active; 'I' for Inactive)
REMARK    1  A    between atoms: O_3  and  C_19
REMARK    2  A    between atoms: O_3  and  C_23
REMARK    3  A    between atoms: O_5  and  C_24
REMARK    4  A    between atoms: N_7  and  C_15
REMARK    5  A    between atoms: N_8  and  C_16
REMARK    6  A    between atoms: N_12  and  C_27
REMARK    7  A    between atoms: N_12  and  C_30
REMARK    8  A    between atoms: N_12  and  C_31
REMARK    9  A    between atoms: C_20  and  C_21
REMARK   10  A    between atoms: C_21  and  C_22
REMARK   11  A    between atoms: C_22  and  C_24
REMARK                            x       y       z     vdW  Elec       q    Type
REMARK                         _______ _______ _______ _____ _____    ______ ____
ROOT
ATOM      1  O   UNL     1      -5.368 -10.882  17.817  0.00  0.00    -0.370 OA
ATOM      2  O   UNL     1      -6.816 -11.604  15.120  0.00  0.00    -0.370 OA
ATOM     13  C   UNL     1      -5.689 -10.775  15.458  0.00  0.00    +0.176 C 
ATOM     14  C   UNL     1      -6.002 -10.111  16.784  0.00  0.00    +0.171 C 
ATOM     15  C   UNL     1      -4.477 -11.642  15.736  0.00  0.00    +0.171 C 
ATOM     16  C   UNL     1      -7.507 -10.208  16.905  0.00  0.00    +0.130 C 
ATOM     17  C   UNL     1      -4.606 -11.943  17.226  0.00  0.00    +0.190 C 
ATOM     18  C   UNL     1      -7.810 -11.489  16.148  0.00  0.00    +0.185 C 
ENDROOT
BRANCH  15   7
ATOM      7  N   UNL     1      -3.221 -10.997  15.341  0.00  0.00    -0.187 N 
ATOM      9  N   UNL     1      -2.428 -10.409  16.248  0.00  0.00    -0.041 NA
ATOM     10  N   UNL     1      -1.539 -10.225  14.211  0.00  0.00    -0.071 NA
ATOM     11  N   UNL     1      -1.401  -9.938  15.551  0.00  0.00    -0.020 NA
ATOM     19  C   UNL     1      -2.672 -10.880  14.105  0.00  0.00    +0.342 A 
BRANCH  19   3
ATOM      3  O   UNL     1      -3.208 -11.354  12.994  0.00  0.00    -0.423 OA
BRANCH   3  23
ATOM     23  C   UNL     1      -3.714 -10.531  11.999  0.00  0.00    +0.134 A 
ATOM     25  C   UNL     1      -5.079 -10.248  11.954  0.00  0.00    +0.069 A 
ATOM     26  C   UNL     1      -2.857  -9.986  11.043  0.00  0.00    +0.046 A 
ATOM     27  C   UNL     1      -5.588  -9.420  10.952  0.00  0.00    +0.033 A 
ATOM     28  C   UNL     1      -3.365  -9.158  10.040  0.00  0.00    +0.005 A 
ATOM     29  C   UNL     1      -4.730  -8.876   9.996  0.00  0.00    +0.023 A 
BRANCH  27  12
ATOM     12  N   UNL     1      -6.967  -9.135  10.906  0.00  0.00    -0.336 N 
ATOM     30  C   UNL     1      -7.816  -9.427  12.044  0.00  0.00    +0.129 C 
ATOM     31  C   UNL     1      -7.559  -8.557   9.715  0.00  0.00    +0.129 C 
ENDBRANCH  27  12
ENDBRANCH   3  23
ENDBRANCH  19   3
ENDBRANCH  15   7
BRANCH  16   8
ATOM      4  O   UNL     1     -10.022  -9.003  17.676  0.00  0.00    -0.276 OA
ATOM      8  N   UNL     1      -8.155  -9.074  16.293  0.00  0.00    -0.308 N 
ATOM     20  C   UNL     1      -9.368  -8.562  16.734  0.00  0.00    +0.214 C 
ATOM     32  H   UNL     1      -7.724  -8.666  15.468  0.00  0.00    +0.149 HD
BRANCH  20  21
ATOM     21  C   UNL     1      -9.809  -7.371  15.902  0.00  0.00    +0.107 C 
BRANCH  21  22
ATOM     22  C   UNL     1     -10.948  -6.594  16.554  0.00  0.00    +0.129 C 
BRANCH  22  24
ATOM      6  O   UNL     1     -13.133  -6.332  15.515  0.00  0.00    -0.251 OA
ATOM     24  C   UNL     1     -11.936  -6.077  15.535  0.00  0.00    +0.305 C 
BRANCH  24   5
ATOM      5  O   UNL     1     -11.332  -5.275  14.620  0.00  0.00    -0.481 OA
ATOM     33  H   UNL     1     -11.026  -4.433  15.018  0.00  0.00    +0.295 HD
ENDBRANCH  24   5
ENDBRANCH  22  24
ENDBRANCH  21  22
ENDBRANCH  20  21
ENDBRANCH  16   8
TORSDOF 9
ENDMDL
MODEL 3
REMARK VINA RESULT:      -6.8      3.403      6.927
REMARK  Name = 11879672
REMARK  11 active torsions:
REMARK  status: ('A' for Active; 'I' for Inactive)
REMARK    1  A    between atoms: O_3  and  C_19
REMARK    2  A    between atoms: O_3  and  C_23
REMARK    3  A    between atoms: O_5  and  C_24
REMARK    4  A    between atoms: N_7  and  C_15
REMARK    5  A    between atoms: N_8  and  C_16
REMARK    6  A    between atoms: N_12  and  C_27
REMARK    7  A    between atoms: N_12  and  C_30
REMARK    8  A    between atoms: N_12  and  C_31
REMARK    9  A    between atoms: C_20  and  C_21
REMARK   10  A    between atoms: C_21  and  C_22
REMARK   11  A    between atoms: C_22  and  C_24
REMARK                            x       y       z     vdW  Elec       q    Type
REMARK                         _______ _______ _______ _____ _____    ______ ____
ROOT
ATOM      1  O   UNL     1      13.343   7.328  17.935  0.00  0.00    -0.370 OA
ATOM      2  O   UNL     1      13.676   8.503  20.833  0.00  0.00    -0.370 OA
ATOM     13  C   UNL     1      14.151   8.901  19.534  0.00  0.00    +0.176 C 
ATOM     14  C   UNL     1      14.473   7.633  18.767  0.00  0.00    +0.171 C 
ATOM     15  C   UNL     1      13.026   9.551  18.751  0.00  0.00    +0.171 C 
ATOM     16  C   UNL     1      14.634   6.578  19.839  0.00  0.00    +0.130 C 
ATOM     17  C   UNL     1      12.360   8.365  18.062  0.00  0.00    +0.190 C 
ATOM     18  C   UNL     1      13.692   7.072  20.922  0.00  0.00    +0.185 C 
ENDROOT
BRANCH  15   7
ATOM      7  N   UNL     1      13.504  10.603  17.849  0.00  0.00    -0.187 N 
ATOM      9  N   UNL     1      13.517  10.424  16.520  0.00  0.00    -0.041 NA
ATOM     10  N   UNL     1      14.295  12.450  17.034  0.00  0.00    -0.071 NA
ATOM     11  N   UNL     1      14.002  11.557  16.028  0.00  0.00    -0.020 NA
ATOM     19  C   UNL     1      13.978  11.838  18.152  0.00  0.00    +0.342 A 
BRANCH  19   3
ATOM      3  O   UNL     1      14.095  12.321  19.376  0.00  0.00    -0.423 OA
BRANCH   3  23
ATOM     23  C   UNL     1      13.008  12.785  20.103  0.00  0.00    +0.134 A 
ATOM     25  C   UNL     1      12.539  12.058  21.198  0.00  0.00    +0.069 A 
ATOM     26  C   UNL     1      12.385  13.978  19.740  0.00  0.00    +0.046 A 
ATOM     27  C   UNL     1      11.447  12.524  21.929  0.00  0.00    +0.033 A 
ATOM     28  C   UNL     1      11.292  14.446  20.470  0.00  0.00    +0.005 A 
ATOM     29  C   UNL     1      10.824  13.718  21.565  0.00  0.00    +0.023 A 
BRANCH  27  12
ATOM     12  N   UNL     1      10.972  11.790  23.034  0.00  0.00    -0.336 N 
ATOM     30  C   UNL     1      10.543  12.473  24.239  0.00  0.00    +0.129 C 
ATOM     31  C   UNL     1      10.918  10.342  22.986  0.00  0.00    +0.129 C 
ENDBRANCH  27  12
ENDBRANCH   3  23
ENDBRANCH  19   3
ENDBRANCH  15   7
BRANCH  16   8
ATOM      4  O   UNL     1      16.924   5.453  18.473  0.00  0.00    -0.276 OA
ATOM      8  N   UNL     1      15.995   6.522  20.316  0.00  0.00    -0.308 N 
ATOM     20  C   UNL     1      17.034   5.960  19.587  0.00  0.00    +0.214 C 
ATOM     32  H   UNL     1      16.187   6.865  21.253  0.00  0.00    +0.149 HD
BRANCH  20  21
ATOM     21  C   UNL     1      18.352   6.039  20.336  0.00  0.00    +0.107 C 
BRANCH  21  22
ATOM     22  C   UNL     1      18.865   7.470  20.464  0.00  0.00    +0.129 C 
BRANCH  22  24
ATOM      6  O   UNL     1      19.598   7.976  22.728  0.00  0.00    -0.251 OA
ATOM     24  C   UNL     1      18.724   7.998  21.872  0.00  0.00    +0.305 C 
BRANCH  24   5
ATOM      5  O   UNL     1      17.487   8.516  22.087  0.00  0.00    -0.481 OA
ATOM     33  H   UNL     1      17.302   9.276  21.496  0.00  0.00    +0.295 HD
ENDBRANCH  24   5
ENDBRANCH  22  24
ENDBRANCH  21  22
ENDBRANCH  20  21
ENDBRANCH  16   8
TORSDOF 9
ENDMDL
MODEL 4
REMARK VINA RESULT:      -6.7      4.441      7.883
REMARK  Name = 11879672
REMARK  11 active torsions:
REMARK  status: ('A' for Active; 'I' for Inactive)
REMARK    1  A    between atoms: O_3  and  C_19
REMARK    2  A    between atoms: O_3  and  C_23
REMARK    3  A    between atoms: O_5  and  C_24
REMARK    4  A    between atoms: N_7  and  C_15
REMARK    5  A    between atoms: N_8  and  C_16
REMARK    6  A    between atoms: N_12  and  C_27
REMARK    7  A    between atoms: N_12  and  C_30
REMARK    8  A    between atoms: N_12  and  C_31
REMARK    9  A    between atoms: C_20  and  C_21
REMARK   10  A    between atoms: C_21  and  C_22
REMARK   11  A    between atoms: C_22  and  C_24
REMARK                            x       y       z     vdW  Elec       q    Type
REMARK                         _______ _______ _______ _____ _____    ______ ____
ROOT
ATOM      1  O   UNL     1      15.209   8.898  19.845  0.00  0.00    -0.370 OA
ATOM      2  O   UNL     1      15.843   5.818  19.771  0.00  0.00    -0.370 OA
ATOM     13  C   UNL     1      15.020   6.648  20.611  0.00  0.00    +0.176 C 
ATOM     14  C   UNL     1      15.750   7.964  20.793  0.00  0.00    +0.171 C 
ATOM     15  C   UNL     1      13.742   7.014  19.881  0.00  0.00    +0.171 C 
ATOM     16  C   UNL     1      17.189   7.645  20.452  0.00  0.00    +0.130 C 
ATOM     17  C   UNL     1      14.127   8.284  19.131  0.00  0.00    +0.190 C 
ATOM     18  C   UNL     1      17.039   6.533  19.429  0.00  0.00    +0.185 C 
ENDROOT
BRANCH  15   7
ATOM      7  N   UNL     1      12.597   7.152  20.786  0.00  0.00    -0.187 N 
ATOM      9  N   UNL     1      11.631   6.223  20.830  0.00  0.00    -0.041 NA
ATOM     10  N   UNL     1      11.189   7.865  22.272  0.00  0.00    -0.071 NA
ATOM     11  N   UNL     1      10.772   6.665  21.740  0.00  0.00    -0.020 NA
ATOM     19  C   UNL     1      12.319   8.147  21.667  0.00  0.00    +0.342 A 
BRANCH  19   3
ATOM      3  O   UNL     1      13.075   9.212  21.864  0.00  0.00    -0.423 OA
BRANCH   3  23
ATOM     23  C   UNL     1      12.572  10.504  21.820  0.00  0.00    +0.134 A 
ATOM     25  C   UNL     1      11.913  11.036  22.929  0.00  0.00    +0.069 A 
ATOM     26  C   UNL     1      12.724  11.272  20.666  0.00  0.00    +0.046 A 
ATOM     27  C   UNL     1      11.407  12.334  22.884  0.00  0.00    +0.033 A 
ATOM     28  C   UNL     1      12.218  12.572  20.619  0.00  0.00    +0.005 A 
ATOM     29  C   UNL     1      11.560  13.102  21.729  0.00  0.00    +0.023 A 
BRANCH  27  12
ATOM     12  N   UNL     1      10.741  12.872  24.004  0.00  0.00    -0.336 N 
ATOM     30  C   UNL     1       9.889  14.036  23.862  0.00  0.00    +0.129 C 
ATOM     31  C   UNL     1      10.909  12.276  25.315  0.00  0.00    +0.129 C 
ENDBRANCH  27  12
ENDBRANCH   3  23
ENDBRANCH  19   3
ENDBRANCH  15   7
BRANCH  16   8
ATOM      4  O   UNL     1      20.051   7.309  20.708  0.00  0.00    -0.276 OA
ATOM      8  N   UNL     1      17.914   7.191  21.614  0.00  0.00    -0.308 N 
ATOM     20  C   UNL     1      19.296   7.061  21.645  0.00  0.00    +0.214 C 
ATOM     32  H   UNL     1      17.378   6.906  22.429  0.00  0.00    +0.149 HD
BRANCH  20  21
ATOM     21  C   UNL     1      19.781   6.563  22.994  0.00  0.00    +0.107 C 
BRANCH  21  22
ATOM     22  C   UNL     1      20.245   7.698  23.902  0.00  0.00    +0.129 C 
BRANCH  22  24
ATOM      6  O   UNL     1      21.841   7.340  25.704  0.00  0.00    -0.251 OA
ATOM     24  C   UNL     1      20.716   7.192  25.245  0.00  0.00    +0.305 C 
BRANCH  24   5
ATOM      5  O   UNL     1      19.725   6.537  25.905  0.00  0.00    -0.481 OA
ATOM     33  H   UNL     1      18.847   6.941  25.738  0.00  0.00    +0.295 HD
ENDBRANCH  24   5
ENDBRANCH  22  24
ENDBRANCH  21  22
ENDBRANCH  20  21
ENDBRANCH  16   8
TORSDOF 9
ENDMDL
MODEL 5
REMARK VINA RESULT:      -6.6      3.687      6.212
REMARK  Name = 11879672
REMARK  11 active torsions:
REMARK  status: ('A' for Active; 'I' for Inactive)
REMARK    1  A    between atoms: O_3  and  C_19
REMARK    2  A    between atoms: O_3  and  C_23
REMARK    3  A    between atoms: O_5  and  C_24
REMARK    4  A    between atoms: N_7  and  C_15
REMARK    5  A    between atoms: N_8  and  C_16
REMARK    6  A    between atoms: N_12  and  C_27
REMARK    7  A    between atoms: N_12  and  C_30
REMARK    8  A    between atoms: N_12  and  C_31
REMARK    9  A    between atoms: C_20  and  C_21
REMARK   10  A    between atoms: C_21  and  C_22
REMARK   11  A    between atoms: C_22  and  C_24
REMARK                            x       y       z     vdW  Elec       q    Type
REMARK                         _______ _______ _______ _____ _____    ______ ____
ROOT
ATOM      1  O   UNL     1      13.131   7.359  17.378  0.00  0.00    -0.370 OA
ATOM      2  O   UNL     1      13.703   9.176  19.881  0.00  0.00    -0.370 OA
ATOM     13  C   UNL     1      14.176   9.171  18.521  0.00  0.00    +0.176 C 
ATOM     14  C   UNL     1      14.318   7.722  18.101  0.00  0.00    +0.171 C 
ATOM     15  C   UNL     1      13.110   9.737  17.602  0.00  0.00    +0.171 C 
ATOM     16  C   UNL     1      14.391   6.960  19.406  0.00  0.00    +0.130 C 
ATOM     17  C   UNL     1      12.283   8.507  17.241  0.00  0.00    +0.190 C 
ATOM     18  C   UNL     1      13.552   7.823  20.331  0.00  0.00    +0.185 C 
ENDROOT
BRANCH  15   7
ATOM      7  N   UNL     1      13.676  10.460  16.461  0.00  0.00    -0.187 N 
ATOM      9  N   UNL     1      13.603   9.962  15.218  0.00  0.00    -0.041 NA
ATOM     10  N   UNL     1      14.662  11.924  15.202  0.00  0.00    -0.071 NA
ATOM     11  N   UNL     1      14.207  10.862  14.452  0.00  0.00    -0.020 NA
ATOM     19  C   UNL     1      14.323  11.654  16.441  0.00  0.00    +0.342 A 
BRANCH  19   3
ATOM      3  O   UNL     1      14.561  12.400  17.504  0.00  0.00    -0.423 OA
BRANCH   3  23
ATOM     23  C   UNL     1      15.793  12.421  18.143  0.00  0.00    +0.134 A 
ATOM     25  C   UNL     1      15.908  11.958  19.453  0.00  0.00    +0.069 A 
ATOM     26  C   UNL     1      16.916  12.905  17.473  0.00  0.00    +0.046 A 
ATOM     27  C   UNL     1      17.146  11.979  20.095  0.00  0.00    +0.033 A 
ATOM     28  C   UNL     1      18.156  12.927  18.114  0.00  0.00    +0.005 A 
ATOM     29  C   UNL     1      18.270  12.464  19.425  0.00  0.00    +0.023 A 
BRANCH  27  12
ATOM     12  N   UNL     1      17.263  11.512  21.420  0.00  0.00    -0.336 N 
ATOM     30  C   UNL     1      18.086  12.223  22.378  0.00  0.00    +0.129 C 
ATOM     31  C   UNL     1      16.572  10.308  21.839  0.00  0.00    +0.129 C 
ENDBRANCH  27  12
ENDBRANCH   3  23
ENDBRANCH  19   3
ENDBRANCH  15   7
BRANCH  16   8
ATOM      4  O   UNL     1      16.567   5.507  18.169  0.00  0.00    -0.276 OA
ATOM      8  N   UNL     1      15.751   6.857  19.877  0.00  0.00    -0.308 N 
ATOM     20  C   UNL     1      16.733   6.134  19.213  0.00  0.00    +0.214 C 
ATOM     32  H   UNL     1      15.983   7.295  20.764  0.00  0.00    +0.149 HD
BRANCH  20  21
ATOM     21  C   UNL     1      18.065   6.202  19.938  0.00  0.00    +0.107 C 
BRANCH  21  22
ATOM     22  C   UNL     1      17.957   6.895  21.292  0.00  0.00    +0.129 C 
BRANCH  22  24
ATOM      6  O   UNL     1      20.274   6.292  21.728  0.00  0.00    -0.251 OA
ATOM     24  C   UNL     1      19.290   6.969  21.998  0.00  0.00    +0.305 C 
BRANCH  24   5
ATOM      5  O   UNL     1      19.277   7.896  22.990  0.00  0.00    -0.481 OA
ATOM     33  H   UNL     1      19.623   8.762  22.686  0.00  0.00    +0.295 HD
ENDBRANCH  24   5
ENDBRANCH  22  24
ENDBRANCH  21  22
ENDBRANCH  20  21
ENDBRANCH  16   8
TORSDOF 9
ENDMDL
MODEL 6
REMARK VINA RESULT:      -6.5     27.156     28.882
REMARK  Name = 11879672
REMARK  11 active torsions:
REMARK  status: ('A' for Active; 'I' for Inactive)
REMARK    1  A    between atoms: O_3  and  C_19
REMARK    2  A    between atoms: O_3  and  C_23
REMARK    3  A    between atoms: O_5  and  C_24
REMARK    4  A    between atoms: N_7  and  C_15
REMARK    5  A    between atoms: N_8  and  C_16
REMARK    6  A    between atoms: N_12  and  C_27
REMARK    7  A    between atoms: N_12  and  C_30
REMARK    8  A    between atoms: N_12  and  C_31
REMARK    9  A    between atoms: C_20  and  C_21
REMARK   10  A    between atoms: C_21  and  C_22
REMARK   11  A    between atoms: C_22  and  C_24
REMARK                            x       y       z     vdW  Elec       q    Type
REMARK                         _______ _______ _______ _____ _____    ______ ____
ROOT
ATOM      1  O   UNL     1      -5.288  -9.660  16.442  0.00  0.00    -0.370 OA
ATOM      2  O   UNL     1      -6.087 -11.632  18.758  0.00  0.00    -0.370 OA
ATOM     13  C   UNL     1      -6.004 -11.755  17.326  0.00  0.00    +0.176 C 
ATOM     14  C   UNL     1      -6.461 -10.436  16.736  0.00  0.00    +0.171 C 
ATOM     15  C   UNL     1      -4.553 -11.885  16.904  0.00  0.00    +0.171 C 
ATOM     16  C   UNL     1      -7.255  -9.784  17.847  0.00  0.00    +0.130 C 
ATOM     17  C   UNL     1      -4.116 -10.435  16.730  0.00  0.00    +0.190 C 
ATOM     18  C   UNL     1      -6.574 -10.325  19.091  0.00  0.00    +0.185 C 
ENDROOT
BRANCH  15   7
ATOM      7  N   UNL     1      -4.386 -12.729  15.717  0.00  0.00    -0.187 N 
ATOM      9  N   UNL     1      -4.867 -13.980  15.683  0.00  0.00    -0.041 NA
ATOM     10  N   UNL     1      -3.857 -13.488  13.756  0.00  0.00    -0.071 NA
ATOM     11  N   UNL     1      -4.540 -14.440  14.481  0.00  0.00    -0.020 NA
ATOM     19  C   UNL     1      -3.774 -12.439  14.541  0.00  0.00    +0.342 A 
BRANCH  19   3
ATOM      3  O   UNL     1      -3.196 -11.286  14.257  0.00  0.00    -0.423 OA
BRANCH   3  23
ATOM     23  C   UNL     1      -3.354 -10.652  13.033  0.00  0.00    +0.134 A 
ATOM     25  C   UNL     1      -4.619 -10.224  12.627  0.00  0.00    +0.069 A 
ATOM     26  C   UNL     1      -2.249 -10.442  12.208  0.00  0.00    +0.046 A 
ATOM     27  C   UNL     1      -4.778  -9.587  11.396  0.00  0.00    +0.033 A 
ATOM     28  C   UNL     1      -2.407  -9.805  10.977  0.00  0.00    +0.005 A 
ATOM     29  C   UNL     1      -3.672  -9.377  10.572  0.00  0.00    +0.023 A 
BRANCH  27  12
ATOM     12  N   UNL     1      -6.055  -9.155  10.985  0.00  0.00    -0.336 N 
ATOM     30  C   UNL     1      -7.196  -9.293  11.869  0.00  0.00    +0.129 C 
ATOM     31  C   UNL     1      -6.248  -8.580   9.668  0.00  0.00    +0.129 C 
ENDBRANCH  27  12
ENDBRANCH   3  23
ENDBRANCH  19   3
ENDBRANCH  15   7
BRANCH  16   8
ATOM      4  O   UNL     1      -9.547  -8.070  17.421  0.00  0.00    -0.276 OA
ATOM      8  N   UNL     1      -8.642 -10.178  17.797  0.00  0.00    -0.308 N 
ATOM     20  C   UNL     1      -9.680  -9.280  17.586  0.00  0.00    +0.214 C 
ATOM     32  H   UNL     1      -8.869 -11.152  17.977  0.00  0.00    +0.149 HD
BRANCH  20  21
ATOM     21  C   UNL     1     -11.030  -9.975  17.586  0.00  0.00    +0.107 C 
BRANCH  21  22
ATOM     22  C   UNL     1     -11.186 -10.947  18.750  0.00  0.00    +0.129 C 
BRANCH  22  24
ATOM      6  O   UNL     1     -12.281  -9.735  20.555  0.00  0.00    -0.251 OA
ATOM     24  C   UNL     1     -11.269 -10.231  20.078  0.00  0.00    +0.305 C 
BRANCH  24   5
ATOM      5  O   UNL     1     -10.062 -10.201  20.702  0.00  0.00    -0.481 OA
ATOM     33  H   UNL     1      -9.402 -10.768  20.250  0.00  0.00    +0.295 HD
ENDBRANCH  24   5
ENDBRANCH  22  24
ENDBRANCH  21  22
ENDBRANCH  20  21
ENDBRANCH  16   8
TORSDOF 9
ENDMDL
MODEL 7
REMARK VINA RESULT:      -6.4     13.765     17.640
REMARK  Name = 11879672
REMARK  11 active torsions:
REMARK  status: ('A' for Active; 'I' for Inactive)
REMARK    1  A    between atoms: O_3  and  C_19
REMARK    2  A    between atoms: O_3  and  C_23
REMARK    3  A    between atoms: O_5  and  C_24
REMARK    4  A    between atoms: N_7  and  C_15
REMARK    5  A    between atoms: N_8  and  C_16
REMARK    6  A    between atoms: N_12  and  C_27
REMARK    7  A    between atoms: N_12  and  C_30
REMARK    8  A    between atoms: N_12  and  C_31
REMARK    9  A    between atoms: C_20  and  C_21
REMARK   10  A    between atoms: C_21  and  C_22
REMARK   11  A    between atoms: C_22  and  C_24
REMARK                            x       y       z     vdW  Elec       q    Type
REMARK                         _______ _______ _______ _____ _____    ______ ____
ROOT
ATOM      1  O   UNL     1      10.230   8.636   1.631  0.00  0.00    -0.370 OA
ATOM      2  O   UNL     1      12.064   6.753   3.359  0.00  0.00    -0.370 OA
ATOM     13  C   UNL     1      10.987   6.522   2.432  0.00  0.00    +0.176 C 
ATOM     14  C   UNL     1       9.978   7.635   2.630  0.00  0.00    +0.171 C 
ATOM     15  C   UNL     1      11.485   6.701   1.010  0.00  0.00    +0.171 C 
ATOM     16  C   UNL     1      10.287   8.179   4.008  0.00  0.00    +0.130 C 
ATOM     17  C   UNL     1      11.280   8.191   0.761  0.00  0.00    +0.190 C 
ATOM     18  C   UNL     1      11.781   7.932   4.125  0.00  0.00    +0.185 C 
ENDROOT
BRANCH  15   7
ATOM      7  N   UNL     1      10.805   5.815   0.061  0.00  0.00    -0.187 N 
ATOM      9  N   UNL     1       9.889   6.289  -0.797  0.00  0.00    -0.041 NA
ATOM     10  N   UNL     1      10.144   4.091  -1.077  0.00  0.00    -0.071 NA
ATOM     11  N   UNL     1       9.489   5.230  -1.489  0.00  0.00    -0.020 NA
ATOM     19  C   UNL     1      10.953   4.477  -0.117  0.00  0.00    +0.342 A 
BRANCH  19   3
ATOM      3  O   UNL     1      11.779   3.712   0.573  0.00  0.00    -0.423 OA
BRANCH   3  23
ATOM     23  C   UNL     1      13.158   3.795   0.446  0.00  0.00    +0.134 A 
ATOM     25  C   UNL     1      13.726   4.159  -0.776  0.00  0.00    +0.069 A 
ATOM     26  C   UNL     1      13.977   3.515   1.539  0.00  0.00    +0.046 A 
ATOM     27  C   UNL     1      15.112   4.242  -0.904  0.00  0.00    +0.033 A 
ATOM     28  C   UNL     1      15.364   3.598   1.412  0.00  0.00    +0.005 A 
ATOM     29  C   UNL     1      15.931   3.961   0.191  0.00  0.00    +0.023 A 
BRANCH  27  12
ATOM     12  N   UNL     1      15.686   4.609  -2.138  0.00  0.00    -0.336 N 
ATOM     30  C   UNL     1      17.127   4.672  -2.286  0.00  0.00    +0.129 C 
ATOM     31  C   UNL     1      14.845   4.940  -3.271  0.00  0.00    +0.129 C 
ENDBRANCH  27  12
ENDBRANCH   3  23
ENDBRANCH  19   3
ENDBRANCH  15   7
BRANCH  16   8
ATOM      4  O   UNL     1       9.979   8.926   6.786  0.00  0.00    -0.276 OA
ATOM      8  N   UNL     1       9.558   7.466   5.028  0.00  0.00    -0.308 N 
ATOM     20  C   UNL     1       9.464   7.903   6.342  0.00  0.00    +0.214 C 
ATOM     32  H   UNL     1       9.138   6.574   4.779  0.00  0.00    +0.149 HD
BRANCH  20  21
ATOM     21  C   UNL     1       8.638   6.954   7.191  0.00  0.00    +0.107 C 
BRANCH  21  22
ATOM     22  C   UNL     1       9.499   6.103   8.119  0.00  0.00    +0.129 C 
BRANCH  22  24
ATOM      6  O   UNL     1       9.829   4.543   6.280  0.00  0.00    -0.251 OA
ATOM     24  C   UNL     1       9.907   4.799   7.475  0.00  0.00    +0.305 C 
BRANCH  24   5
ATOM      5  O   UNL     1      10.386   3.919   8.393  0.00  0.00    -0.481 OA
ATOM     33  H   UNL     1      10.052   4.114   9.294  0.00  0.00    +0.295 HD
ENDBRANCH  24   5
ENDBRANCH  22  24
ENDBRANCH  21  22
ENDBRANCH  20  21
ENDBRANCH  16   8
TORSDOF 9
ENDMDL
MODEL 8
REMARK VINA RESULT:      -6.3     27.161     29.561
REMARK  Name = 11879672
REMARK  11 active torsions:
REMARK  status: ('A' for Active; 'I' for Inactive)
REMARK    1  A    between atoms: O_3  and  C_19
REMARK    2  A    between atoms: O_3  and  C_23
REMARK    3  A    between atoms: O_5  and  C_24
REMARK    4  A    between atoms: N_7  and  C_15
REMARK    5  A    between atoms: N_8  and  C_16
REMARK    6  A    between atoms: N_12  and  C_27
REMARK    7  A    between atoms: N_12  and  C_30
REMARK    8  A    between atoms: N_12  and  C_31
REMARK    9  A    between atoms: C_20  and  C_21
REMARK   10  A    between atoms: C_21  and  C_22
REMARK   11  A    between atoms: C_22  and  C_24
REMARK                            x       y       z     vdW  Elec       q    Type
REMARK                         _______ _______ _______ _____ _____    ______ ____
ROOT
ATOM      1  O   UNL     1     -15.422   3.533  24.054  0.00  0.00    -0.370 OA
ATOM      2  O   UNL     1     -18.299   3.571  25.324  0.00  0.00    -0.370 OA
ATOM     13  C   UNL     1     -17.270   4.563  25.152  0.00  0.00    +0.176 C 
ATOM     14  C   UNL     1     -15.938   3.866  25.352  0.00  0.00    +0.171 C 
ATOM     15  C   UNL     1     -17.246   5.036  23.712  0.00  0.00    +0.171 C 
ATOM     16  C   UNL     1     -16.285   2.608  26.118  0.00  0.00    +0.130 C 
ATOM     17  C   UNL     1     -16.299   4.046  23.042  0.00  0.00    +0.190 C 
ATOM     18  C   UNL     1     -17.690   2.308  25.626  0.00  0.00    +0.185 C 
ENDROOT
BRANCH  15   7
ATOM      7  N   UNL     1     -16.858   6.444  23.589  0.00  0.00    -0.187 N 
ATOM      9  N   UNL     1     -17.178   7.337  24.536  0.00  0.00    -0.041 NA
ATOM     10  N   UNL     1     -16.047   8.330  22.891  0.00  0.00    -0.071 NA
ATOM     11  N   UNL     1     -16.680   8.489  24.104  0.00  0.00    -0.020 NA
ATOM     19  C   UNL     1     -16.170   7.057  22.592  0.00  0.00    +0.342 A 
BRANCH  19   3
ATOM      3  O   UNL     1     -15.713   6.454  21.510  0.00  0.00    -0.423 OA
BRANCH   3  23
ATOM     23  C   UNL     1     -14.441   6.686  21.006  0.00  0.00    +0.134 A 
ATOM     25  C   UNL     1     -14.275   7.465  19.861  0.00  0.00    +0.069 A 
ATOM     26  C   UNL     1     -13.328   6.139  21.645  0.00  0.00    +0.046 A 
ATOM     27  C   UNL     1     -12.996   7.697  19.354  0.00  0.00    +0.033 A 
ATOM     28  C   UNL     1     -12.048   6.372  21.139  0.00  0.00    +0.005 A 
ATOM     29  C   UNL     1     -11.883   7.150  19.994  0.00  0.00    +0.023 A 
BRANCH  27  12
ATOM     12  N   UNL     1     -12.828   8.483  18.196  0.00  0.00    -0.336 N 
ATOM     30  C   UNL     1     -13.882   9.375  17.755  0.00  0.00    +0.129 C 
ATOM     31  C   UNL     1     -11.604   8.401  17.424  0.00  0.00    +0.129 C 
ENDBRANCH  27  12
ENDBRANCH   3  23
ENDBRANCH  19   3
ENDBRANCH  15   7
BRANCH  16   8
ATOM      4  O   UNL     1     -16.053   0.627  28.213  0.00  0.00    -0.276 OA
ATOM      8  N   UNL     1     -16.269   2.841  27.541  0.00  0.00    -0.308 N 
ATOM     20  C   UNL     1     -16.152   1.822  28.477  0.00  0.00    +0.214 C 
ATOM     32  H   UNL     1     -16.400   3.794  27.871  0.00  0.00    +0.149 HD
BRANCH  20  21
ATOM     21  C   UNL     1     -16.166   2.361  29.896  0.00  0.00    +0.107 C 
BRANCH  21  22
ATOM     22  C   UNL     1     -14.927   3.192  30.216  0.00  0.00    +0.129 C 
BRANCH  22  24
ATOM      6  O   UNL     1     -13.602   2.296  32.050  0.00  0.00    -0.251 OA
ATOM     24  C   UNL     1     -13.837   2.362  30.850  0.00  0.00    +0.305 C 
BRANCH  24   5
ATOM      5  O   UNL     1     -13.127   1.676  29.916  0.00  0.00    -0.481 OA
ATOM     33  H   UNL     1     -12.445   1.103  30.324  0.00  0.00    +0.295 HD
ENDBRANCH  24   5
ENDBRANCH  22  24
ENDBRANCH  21  22
ENDBRANCH  20  21
ENDBRANCH  16   8
TORSDOF 9
ENDMDL
MODEL 9
REMARK VINA RESULT:      -6.3     12.565     16.480
REMARK  Name = 11879672
REMARK  11 active torsions:
REMARK  status: ('A' for Active; 'I' for Inactive)
REMARK    1  A    between atoms: O_3  and  C_19
REMARK    2  A    between atoms: O_3  and  C_23
REMARK    3  A    between atoms: O_5  and  C_24
REMARK    4  A    between atoms: N_7  and  C_15
REMARK    5  A    between atoms: N_8  and  C_16
REMARK    6  A    between atoms: N_12  and  C_27
REMARK    7  A    between atoms: N_12  and  C_30
REMARK    8  A    between atoms: N_12  and  C_31
REMARK    9  A    between atoms: C_20  and  C_21
REMARK   10  A    between atoms: C_21  and  C_22
REMARK   11  A    between atoms: C_22  and  C_24
REMARK                            x       y       z     vdW  Elec       q    Type
REMARK                         _______ _______ _______ _____ _____    ______ ____
ROOT
ATOM      1  O   UNL     1      14.044   7.565   6.255  0.00  0.00    -0.370 OA
ATOM      2  O   UNL     1      11.895   8.814   4.327  0.00  0.00    -0.370 OA
ATOM     13  C   UNL     1      11.918   7.654   5.179  0.00  0.00    +0.176 C 
ATOM     14  C   UNL     1      13.319   7.078   5.114  0.00  0.00    +0.171 C 
ATOM     15  C   UNL     1      11.740   8.074   6.626  0.00  0.00    +0.171 C 
ATOM     16  C   UNL     1      13.900   7.650   3.840  0.00  0.00    +0.130 C 
ATOM     17  C   UNL     1      13.170   8.345   7.082  0.00  0.00    +0.190 C 
ATOM     18  C   UNL     1      13.189   8.987   3.732  0.00  0.00    +0.185 C 
ENDROOT
BRANCH  15   7
ATOM      7  N   UNL     1      11.017   7.074   7.416  0.00  0.00    -0.187 N 
ATOM      9  N   UNL     1      11.638   5.988   7.897  0.00  0.00    -0.041 NA
ATOM     10  N   UNL     1       9.487   5.969   8.484  0.00  0.00    -0.071 NA
ATOM     11  N   UNL     1      10.698   5.316   8.549  0.00  0.00    -0.020 NA
ATOM     19  C   UNL     1       9.708   7.054   7.778  0.00  0.00    +0.342 A 
BRANCH  19   3
ATOM      3  O   UNL     1       8.824   7.981   7.460  0.00  0.00    -0.423 OA
BRANCH   3  23
ATOM     23  C   UNL     1       8.539   8.323   6.146  0.00  0.00    +0.134 A 
ATOM     25  C   UNL     1       8.504   9.665   5.766  0.00  0.00    +0.069 A 
ATOM     26  C   UNL     1       8.287   7.325   5.205  0.00  0.00    +0.046 A 
ATOM     27  C   UNL     1       8.218  10.009   4.445  0.00  0.00    +0.033 A 
ATOM     28  C   UNL     1       8.000   7.668   3.883  0.00  0.00    +0.005 A 
ATOM     29  C   UNL     1       7.966   9.010   3.504  0.00  0.00    +0.023 A 
BRANCH  27  12
ATOM     12  N   UNL     1       8.181  11.364   4.060  0.00  0.00    -0.336 N 
ATOM     30  C   UNL     1       8.301  12.413   5.054  0.00  0.00    +0.129 C 
ATOM     31  C   UNL     1       8.011  11.729   2.667  0.00  0.00    +0.129 C 
ENDBRANCH  27  12
ENDBRANCH   3  23
ENDBRANCH  19   3
ENDBRANCH  15   7
BRANCH  16   8
ATOM      4  O   UNL     1      15.556   7.206   1.509  0.00  0.00    -0.276 OA
ATOM      8  N   UNL     1      13.604   6.808   2.706  0.00  0.00    -0.308 N 
ATOM     20  C   UNL     1      14.464   6.655   1.628  0.00  0.00    +0.214 C 
ATOM     32  H   UNL     1      12.699   6.347   2.677  0.00  0.00    +0.149 HD
BRANCH  20  21
ATOM     21  C   UNL     1      13.892   5.713   0.584  0.00  0.00    +0.107 C 
BRANCH  21  22
ATOM     22  C   UNL     1      14.713   4.435   0.440  0.00  0.00    +0.129 C 
BRANCH  22  24
ATOM      6  O   UNL     1      13.339   2.887   1.721  0.00  0.00    -0.251 OA
ATOM     24  C   UNL     1      14.414   3.444   1.540  0.00  0.00    +0.305 C 
BRANCH  24   5
ATOM      5  O   UNL     1      15.501   3.232   2.327  0.00  0.00    -0.481 OA
ATOM     33  H   UNL     1      15.801   4.056   2.765  0.00  0.00    +0.295 HD
ENDBRANCH  24   5
ENDBRANCH  22  24
ENDBRANCH  21  22
ENDBRANCH  20  21
ENDBRANCH  16   8
TORSDOF 9
ENDMDL
MODEL 10
REMARK VINA RESULT:      -6.2     27.113     29.531
REMARK  Name = 11879672
REMARK  11 active torsions:
REMARK  status: ('A' for Active; 'I' for Inactive)
REMARK    1  A    between atoms: O_3  and  C_19
REMARK    2  A    between atoms: O_3  and  C_23
REMARK    3  A    between atoms: O_5  and  C_24
REMARK    4  A    between atoms: N_7  and  C_15
REMARK    5  A    between atoms: N_8  and  C_16
REMARK    6  A    between atoms: N_12  and  C_27
REMARK    7  A    between atoms: N_12  and  C_30
REMARK    8  A    between atoms: N_12  and  C_31
REMARK    9  A    between atoms: C_20  and  C_21
REMARK   10  A    between atoms: C_21  and  C_22
REMARK   11  A    between atoms: C_22  and  C_24
REMARK                            x       y       z     vdW  Elec       q    Type
REMARK                         _______ _______ _______ _____ _____    ______ ____
ROOT
ATOM      1  O   UNL     1      -4.795 -12.983  17.373  0.00  0.00    -0.370 OA
ATOM      2  O   UNL     1      -4.083  -9.929  17.127  0.00  0.00    -0.370 OA
ATOM     13  C   UNL     1      -5.318 -10.662  17.231  0.00  0.00    +0.176 C 
ATOM     14  C   UNL     1      -5.145 -11.946  16.443  0.00  0.00    +0.171 C 
ATOM     15  C   UNL     1      -5.531 -11.113  18.663  0.00  0.00    +0.171 C 
ATOM     16  C   UNL     1      -3.986 -11.661  15.514  0.00  0.00    +0.130 C 
ATOM     17  C   UNL     1      -4.816 -12.459  18.707  0.00  0.00    +0.190 C 
ATOM     18  C   UNL     1      -3.161 -10.673  16.319  0.00  0.00    +0.185 C 
ENDROOT
BRANCH  15   7
ATOM      7  N   UNL     1      -6.948 -11.152  19.036  0.00  0.00    -0.187 N 
ATOM      9  N   UNL     1      -7.411 -12.056  19.911  0.00  0.00    -0.041 NA
ATOM     10  N   UNL     1      -9.072 -10.749  19.202  0.00  0.00    -0.071 NA
ATOM     11  N   UNL     1      -8.710 -11.805  20.008  0.00  0.00    -0.020 NA
ATOM     19  C   UNL     1      -7.966 -10.361  18.610  0.00  0.00    +0.342 A 
BRANCH  19   3
ATOM      3  O   UNL     1      -7.840  -9.373  17.742  0.00  0.00    -0.423 OA
BRANCH   3  23
ATOM     23  C   UNL     1      -8.625  -9.275  16.602  0.00  0.00    +0.134 A 
ATOM     25  C   UNL     1      -9.527  -8.220  16.464  0.00  0.00    +0.069 A 
ATOM     26  C   UNL     1      -8.512 -10.232  15.594  0.00  0.00    +0.046 A 
ATOM     27  C   UNL     1     -10.316  -8.122  15.318  0.00  0.00    +0.033 A 
ATOM     28  C   UNL     1      -9.300 -10.135  14.447  0.00  0.00    +0.005 A 
ATOM     29  C   UNL     1     -10.202  -9.080  14.310  0.00  0.00    +0.023 A 
BRANCH  27  12
ATOM     12  N   UNL     1     -11.229  -7.057  15.179  0.00  0.00    -0.336 N 
ATOM     30  C   UNL     1     -12.155  -7.026  14.064  0.00  0.00    +0.129 C 
ATOM     31  C   UNL     1     -11.245  -5.972  16.140  0.00  0.00    +0.129 C 
ENDBRANCH  27  12
ENDBRANCH   3  23
ENDBRANCH  19   3
ENDBRANCH  15   7
BRANCH  16   8
ATOM      4  O   UNL     1      -2.454 -11.288  13.087  0.00  0.00    -0.276 OA
ATOM      8  N   UNL     1      -4.440 -11.075  14.276  0.00  0.00    -0.308 N 
ATOM     20  C   UNL     1      -3.629 -10.937  13.158  0.00  0.00    +0.214 C 
ATOM     32  H   UNL     1      -5.384 -10.701  14.243  0.00  0.00    +0.149 HD
BRANCH  20  21
ATOM     21  C   UNL     1      -4.372 -10.287  12.004  0.00  0.00    +0.107 C 
BRANCH  21  22
ATOM     22  C   UNL     1      -3.434  -9.825  10.893  0.00  0.00    +0.129 C 
BRANCH  22  24
ATOM      6  O   UNL     1      -3.920  -8.792   8.744  0.00  0.00    -0.251 OA
ATOM     24  C   UNL     1      -4.107  -8.854   9.952  0.00  0.00    +0.305 C 
BRANCH  24   5
ATOM      5  O   UNL     1      -4.970  -8.038  10.612  0.00  0.00    -0.481 OA
ATOM     33  H   UNL     1      -5.292  -7.309  10.041  0.00  0.00    +0.295 HD
ENDBRANCH  24   5
ENDBRANCH  22  24
ENDBRANCH  21  22
ENDBRANCH  20  21
ENDBRANCH  16   8
TORSDOF 9
ENDMDL
