MODEL 1
REMARK VINA RESULT:      -6.8      0.000      0.000
REMARK  Name = 75537119
REMARK  5 active torsions:
REMARK  status: ('A' for Active; 'I' for Inactive)
REMARK    1  A    between atoms: O_2  and  C_24
REMARK    2  A    between atoms: O_2  and  C_25
REMARK    3  A    between atoms: N_3  and  C_7
REMARK    4  A    between atoms: N_5  and  C_18
REMARK    5  A    between atoms: C_18  and  C_19
REMARK                            x       y       z     vdW  Elec       q    Type
REMARK                         _______ _______ _______ _____ _____    ______ ____
ROOT
ATOM      1  O   UNL     1      17.248   5.621  18.384  0.00  0.00    -0.252 OA
ATOM      3  N   UNL     1      17.687   6.828  20.363  0.00  0.00    -0.281 N 
ATOM      4  N   UNL     1      15.628   6.928  19.472  0.00  0.00    -0.278 N 
ATOM      5  N   UNL     1      13.523   8.766  19.799  0.00  0.00    -0.295 NA
ATOM      6  C   UNL     1      15.522   7.661  20.718  0.00  0.00    +0.109 C 
ATOM      8  C   UNL     1      16.968   7.779  21.193  0.00  0.00    +0.133 C 
ATOM      9  C   UNL     1      14.808   8.993  20.492  0.00  0.00    +0.109 C 
ATOM     12  C   UNL     1      16.897   6.362  19.293  0.00  0.00    +0.305 C 
ATOM     13  C   UNL     1      14.454   6.775  18.639  0.00  0.00    +0.125 C 
ATOM     14  C   UNL     1      13.738   8.119  18.489  0.00  0.00    +0.104 C 
ENDROOT
BRANCH   3   7
ATOM      7  C   UNL     1      19.087   6.545  20.563  0.00  0.00    +0.078 C 
ATOM     10  C   UNL     1      19.383   5.070  20.280  0.00  0.00    +0.022 C 
ATOM     11  C   UNL     1      19.524   6.939  21.977  0.00  0.00    +0.022 C 
ATOM     15  C   UNL     1      20.849   4.731  20.534  0.00  0.00    +0.002 C 
ATOM     16  C   UNL     1      20.991   6.598  22.228  0.00  0.00    +0.002 C 
ATOM     17  C   UNL     1      21.283   5.128  21.943  0.00  0.00    +0.000 C 
ENDBRANCH   3   7
BRANCH   5  18
ATOM     18  C   UNL     1      12.804  10.028  19.633  0.00  0.00    +0.119 C 
BRANCH  18  19
ATOM     19  C   UNL     1      12.154  10.476  20.914  0.00  0.00    -0.033 A 
ATOM     20  C   UNL     1      12.306  11.791  21.352  0.00  0.00    +0.008 A 
ATOM     21  C   UNL     1      11.399   9.574  21.664  0.00  0.00    +0.008 A 
ATOM     22  C   UNL     1      11.703  12.206  22.540  0.00  0.00    +0.046 A 
ATOM     23  C   UNL     1      10.795   9.988  22.852  0.00  0.00    +0.046 A 
ATOM     24  C   UNL     1      10.948  11.305  23.290  0.00  0.00    +0.120 A 
BRANCH  24   2
ATOM      2  O   UNL     1      10.359  11.709  24.449  0.00  0.00    -0.495 OA
ATOM     25  C   UNL     1      10.632  13.040  24.886  0.00  0.00    +0.277 C 
ENDBRANCH  24   2
ENDBRANCH  18  19
ENDBRANCH   5  18
TORSDOF 4
ENDMDL
MODEL 2
REMARK VINA RESULT:      -6.6     27.282     29.856
REMARK  Name = 75537119
REMARK  5 active torsions:
REMARK  status: ('A' for Active; 'I' for Inactive)
REMARK    1  A    between atoms: O_2  and  C_24
REMARK    2  A    between atoms: O_2  and  C_25
REMARK    3  A    between atoms: N_3  and  C_7
REMARK    4  A    between atoms: N_5  and  C_18
REMARK    5  A    between atoms: C_18  and  C_19
REMARK                            x       y       z     vdW  Elec       q    Type
REMARK                         _______ _______ _______ _____ _____    ______ ____
ROOT
ATOM      1  O   UNL     1      -4.902 -10.624  18.387  0.00  0.00    -0.252 OA
ATOM      3  N   UNL     1      -6.523 -10.240  16.716  0.00  0.00    -0.281 N 
ATOM      4  N   UNL     1      -4.493 -10.976  16.101  0.00  0.00    -0.278 N 
ATOM      5  N   UNL     1      -3.137 -10.918  13.637  0.00  0.00    -0.295 NA
ATOM      6  C   UNL     1      -5.264 -10.967  14.875  0.00  0.00    +0.109 C 
ATOM      8  C   UNL     1      -6.556 -10.253  15.264  0.00  0.00    +0.133 C 
ATOM      9  C   UNL     1      -4.472 -10.297  13.753  0.00  0.00    +0.109 C 
ATOM     12  C   UNL     1      -5.261 -10.618  17.217  0.00  0.00    +0.305 C 
ATOM     13  C   UNL     1      -3.118 -11.428  16.070  0.00  0.00    +0.125 C 
ATOM     14  C   UNL     1      -2.379 -10.778  14.897  0.00  0.00    +0.104 C 
ENDROOT
BRANCH   3   7
ATOM      7  C   UNL     1      -7.627  -9.743  17.501  0.00  0.00    +0.078 C 
ATOM     10  C   UNL     1      -8.436 -10.904  18.084  0.00  0.00    +0.022 C 
ATOM     11  C   UNL     1      -8.511  -8.811  16.667  0.00  0.00    +0.022 C 
ATOM     15  C   UNL     1      -9.642 -10.407  18.878  0.00  0.00    +0.002 C 
ATOM     16  C   UNL     1      -9.716  -8.317  17.464  0.00  0.00    +0.002 C 
ATOM     17  C   UNL     1     -10.519  -9.476  18.044  0.00  0.00    +0.000 C 
ENDBRANCH   3   7
BRANCH   5  18
ATOM     18  C   UNL     1      -2.393 -10.324  12.527  0.00  0.00    +0.119 C 
BRANCH  18  19
ATOM     19  C   UNL     1      -3.100 -10.517  11.212  0.00  0.00    -0.033 A 
ATOM     20  C   UNL     1      -3.428  -9.412  10.426  0.00  0.00    +0.008 A 
ATOM     21  C   UNL     1      -3.428 -11.802  10.780  0.00  0.00    +0.008 A 
ATOM     22  C   UNL     1      -4.082  -9.592   9.208  0.00  0.00    +0.046 A 
ATOM     23  C   UNL     1      -4.083 -11.982   9.561  0.00  0.00    +0.046 A 
ATOM     24  C   UNL     1      -4.410 -10.877   8.775  0.00  0.00    +0.120 A 
BRANCH  24   2
ATOM      2  O   UNL     1      -5.049 -11.052   7.586  0.00  0.00    -0.495 OA
ATOM     25  C   UNL     1      -5.720  -9.920   7.036  0.00  0.00    +0.277 C 
ENDBRANCH  24   2
ENDBRANCH  18  19
ENDBRANCH   5  18
TORSDOF 4
ENDMDL
MODEL 3
REMARK VINA RESULT:      -6.6     27.767     29.557
REMARK  Name = 75537119
REMARK  5 active torsions:
REMARK  status: ('A' for Active; 'I' for Inactive)
REMARK    1  A    between atoms: O_2  and  C_24
REMARK    2  A    between atoms: O_2  and  C_25
REMARK    3  A    between atoms: N_3  and  C_7
REMARK    4  A    between atoms: N_5  and  C_18
REMARK    5  A    between atoms: C_18  and  C_19
REMARK                            x       y       z     vdW  Elec       q    Type
REMARK                         _______ _______ _______ _____ _____    ______ ____
ROOT
ATOM      1  O   UNL     1      -4.922 -12.071  18.295  0.00  0.00    -0.252 OA
ATOM      3  N   UNL     1      -5.091 -10.697  16.384  0.00  0.00    -0.281 N 
ATOM      4  N   UNL     1      -6.715 -10.597  17.933  0.00  0.00    -0.278 N 
ATOM      5  N   UNL     1      -9.367  -9.666  17.821  0.00  0.00    -0.295 NA
ATOM      6  C   UNL     1      -7.056  -9.560  16.980  0.00  0.00    +0.109 C 
ATOM      8  C   UNL     1      -6.083  -9.793  15.827  0.00  0.00    +0.133 C 
ATOM      9  C   UNL     1      -8.534  -9.652  16.601  0.00  0.00    +0.109 C 
ATOM     12  C   UNL     1      -5.501 -11.226  17.625  0.00  0.00    +0.305 C 
ATOM     13  C   UNL     1      -7.556 -10.795  19.094  0.00  0.00    +0.125 C 
ATOM     14  C   UNL     1      -9.028 -10.820  18.678  0.00  0.00    +0.104 C 
ENDROOT
BRANCH   3   7
ATOM      7  C   UNL     1      -3.916 -11.091  15.646  0.00  0.00    +0.078 C 
ATOM     10  C   UNL     1      -2.661 -10.470  16.264  0.00  0.00    +0.022 C 
ATOM     11  C   UNL     1      -4.053 -10.717  14.167  0.00  0.00    +0.022 C 
ATOM     15  C   UNL     1      -1.406 -10.830  15.471  0.00  0.00    +0.002 C 
ATOM     16  C   UNL     1      -2.796 -11.078  13.378  0.00  0.00    +0.002 C 
ATOM     17  C   UNL     1      -1.547 -10.459  13.997  0.00  0.00    +0.000 C 
ENDBRANCH   3   7
BRANCH   5  18
ATOM     18  C   UNL     1     -10.786  -9.692  17.469  0.00  0.00    +0.119 C 
BRANCH  18  19
ATOM     19  C   UNL     1     -11.179  -8.500  16.638  0.00  0.00    -0.033 A 
ATOM     20  C   UNL     1     -10.821  -7.215  17.045  0.00  0.00    +0.008 A 
ATOM     21  C   UNL     1     -11.903  -8.682  15.459  0.00  0.00    +0.008 A 
ATOM     22  C   UNL     1     -11.186  -6.112  16.274  0.00  0.00    +0.046 A 
ATOM     23  C   UNL     1     -12.268  -7.578  14.687  0.00  0.00    +0.046 A 
ATOM     24  C   UNL     1     -11.909  -6.293  15.095  0.00  0.00    +0.120 A 
BRANCH  24   2
ATOM      2  O   UNL     1     -12.265  -5.216  14.342  0.00  0.00    -0.495 OA
ATOM     25  C   UNL     1     -13.448  -5.338  13.554  0.00  0.00    +0.277 C 
ENDBRANCH  24   2
ENDBRANCH  18  19
ENDBRANCH   5  18
TORSDOF 4
ENDMDL
MODEL 4
REMARK VINA RESULT:      -6.5     27.274     29.708
REMARK  Name = 75537119
REMARK  5 active torsions:
REMARK  status: ('A' for Active; 'I' for Inactive)
REMARK    1  A    between atoms: O_2  and  C_24
REMARK    2  A    between atoms: O_2  and  C_25
REMARK    3  A    between atoms: N_3  and  C_7
REMARK    4  A    between atoms: N_5  and  C_18
REMARK    5  A    between atoms: C_18  and  C_19
REMARK                            x       y       z     vdW  Elec       q    Type
REMARK                         _______ _______ _______ _____ _____    ______ ____
ROOT
ATOM      1  O   UNL     1      -1.758 -10.765  15.852  0.00  0.00    -0.252 OA
ATOM      3  N   UNL     1      -4.112 -10.744  15.704  0.00  0.00    -0.281 N 
ATOM      4  N   UNL     1      -2.913 -10.874  13.810  0.00  0.00    -0.278 N 
ATOM      5  N   UNL     1      -3.564 -10.325  11.129  0.00  0.00    -0.295 NA
ATOM      6  C   UNL     1      -4.290 -11.009  13.379  0.00  0.00    +0.109 C 
ATOM      8  C   UNL     1      -5.096 -10.690  14.636  0.00  0.00    +0.133 C 
ATOM      9  C   UNL     1      -4.567 -10.092  12.188  0.00  0.00    +0.109 C 
ATOM     12  C   UNL     1      -2.795 -10.795  15.204  0.00  0.00    +0.305 C 
ATOM     13  C   UNL     1      -1.854 -10.938  12.825  0.00  0.00    +0.125 C 
ATOM     14  C   UNL     1      -2.200 -10.053  11.625  0.00  0.00    +0.104 C 
ENDROOT
BRANCH   3   7
ATOM      7  C   UNL     1      -4.482 -10.605  17.092  0.00  0.00    +0.078 C 
ATOM     10  C   UNL     1      -4.101 -11.861  17.878  0.00  0.00    +0.022 C 
ATOM     11  C   UNL     1      -5.976 -10.294  17.226  0.00  0.00    +0.022 C 
ATOM     15  C   UNL     1      -4.528 -11.761  19.340  0.00  0.00    +0.002 C 
ATOM     16  C   UNL     1      -6.399 -10.196  18.690  0.00  0.00    +0.002 C 
ATOM     17  C   UNL     1      -6.017 -11.449  19.471  0.00  0.00    +0.000 C 
ENDBRANCH   3   7
BRANCH   5  18
ATOM     18  C   UNL     1      -3.856  -9.496   9.960  0.00  0.00    +0.119 C 
BRANCH  18  19
ATOM     19  C   UNL     1      -4.428 -10.305   8.827  0.00  0.00    -0.033 A 
ATOM     20  C   UNL     1      -4.223 -11.684   8.780  0.00  0.00    +0.008 A 
ATOM     21  C   UNL     1      -5.163  -9.675   7.823  0.00  0.00    +0.008 A 
ATOM     22  C   UNL     1      -4.754 -12.433   7.731  0.00  0.00    +0.046 A 
ATOM     23  C   UNL     1      -5.694 -10.424   6.773  0.00  0.00    +0.046 A 
ATOM     24  C   UNL     1      -5.489 -11.804   6.726  0.00  0.00    +0.120 A 
BRANCH  24   2
ATOM      2  O   UNL     1      -6.008 -12.535   5.702  0.00  0.00    -0.495 OA
ATOM     25  C   UNL     1      -5.652 -13.915   5.645  0.00  0.00    +0.277 C 
ENDBRANCH  24   2
ENDBRANCH  18  19
ENDBRANCH   5  18
TORSDOF 4
ENDMDL
MODEL 5
REMARK VINA RESULT:      -6.5     27.844     30.731
REMARK  Name = 75537119
REMARK  5 active torsions:
REMARK  status: ('A' for Active; 'I' for Inactive)
REMARK    1  A    between atoms: O_2  and  C_24
REMARK    2  A    between atoms: O_2  and  C_25
REMARK    3  A    between atoms: N_3  and  C_7
REMARK    4  A    between atoms: N_5  and  C_18
REMARK    5  A    between atoms: C_18  and  C_19
REMARK                            x       y       z     vdW  Elec       q    Type
REMARK                         _______ _______ _______ _____ _____    ______ ____
ROOT
ATOM      1  O   UNL     1     -10.613 -10.054  19.446  0.00  0.00    -0.252 OA
ATOM      3  N   UNL     1      -9.944  -9.095  17.397  0.00  0.00    -0.281 N 
ATOM      4  N   UNL     1      -8.640 -10.669  18.328  0.00  0.00    -0.278 N 
ATOM      5  N   UNL     1      -5.932 -11.333  17.954  0.00  0.00    -0.295 NA
ATOM      6  C   UNL     1      -8.019 -10.391  17.049  0.00  0.00    +0.109 C 
ATOM      8  C   UNL     1      -8.776  -9.169  16.536  0.00  0.00    +0.133 C 
ATOM      9  C   UNL     1      -6.514 -10.190  17.221  0.00  0.00    +0.109 C 
ATOM     12  C   UNL     1      -9.833  -9.955  18.508  0.00  0.00    +0.305 C 
ATOM     13  C   UNL     1      -8.059 -11.672  19.195  0.00  0.00    +0.125 C 
ATOM     14  C   UNL     1      -6.545 -11.469  19.291  0.00  0.00    +0.104 C 
ENDROOT
BRANCH   3   7
ATOM      7  C   UNL     1     -10.993  -8.128  17.181  0.00  0.00    +0.078 C 
ATOM     10  C   UNL     1     -12.220  -8.800  16.560  0.00  0.00    +0.022 C 
ATOM     11  C   UNL     1     -10.493  -6.969  16.314  0.00  0.00    +0.022 C 
ATOM     15  C   UNL     1     -13.329  -7.790  16.272  0.00  0.00    +0.002 C 
ATOM     16  C   UNL     1     -11.605  -5.962  16.028  0.00  0.00    +0.002 C 
ATOM     17  C   UNL     1     -12.827  -6.634  15.410  0.00  0.00    +0.000 C 
ENDBRANCH   3   7
BRANCH   5  18
ATOM     18  C   UNL     1      -4.483 -11.179  18.071  0.00  0.00    +0.119 C 
BRANCH  18  19
ATOM     19  C   UNL     1      -3.786 -11.422  16.759  0.00  0.00    -0.033 A 
ATOM     20  C   UNL     1      -4.198 -12.466  15.931  0.00  0.00    +0.008 A 
ATOM     21  C   UNL     1      -2.725 -10.603  16.372  0.00  0.00    +0.008 A 
ATOM     22  C   UNL     1      -3.552 -12.690  14.716  0.00  0.00    +0.046 A 
ATOM     23  C   UNL     1      -2.078 -10.827  15.156  0.00  0.00    +0.046 A 
ATOM     24  C   UNL     1      -2.492 -11.871  14.328  0.00  0.00    +0.120 A 
BRANCH  24   2
ATOM      2  O   UNL     1      -1.861 -12.090  13.142  0.00  0.00    -0.495 OA
ATOM     25  C   UNL     1      -1.991 -11.080  12.142  0.00  0.00    +0.277 C 
ENDBRANCH  24   2
ENDBRANCH  18  19
ENDBRANCH   5  18
TORSDOF 4
ENDMDL
MODEL 6
REMARK VINA RESULT:      -6.3      3.868      6.652
REMARK  Name = 75537119
REMARK  5 active torsions:
REMARK  status: ('A' for Active; 'I' for Inactive)
REMARK    1  A    between atoms: O_2  and  C_24
REMARK    2  A    between atoms: O_2  and  C_25
REMARK    3  A    between atoms: N_3  and  C_7
REMARK    4  A    between atoms: N_5  and  C_18
REMARK    5  A    between atoms: C_18  and  C_19
REMARK                            x       y       z     vdW  Elec       q    Type
REMARK                         _______ _______ _______ _____ _____    ______ ____
ROOT
ATOM      1  O   UNL     1      24.699   5.852  20.747  0.00  0.00    -0.252 OA
ATOM      3  N   UNL     1      23.250   4.127  21.448  0.00  0.00    -0.281 N 
ATOM      4  N   UNL     1      22.359   6.037  20.671  0.00  0.00    -0.278 N 
ATOM      5  N   UNL     1      19.804   7.177  20.966  0.00  0.00    -0.295 NA
ATOM      6  C   UNL     1      21.221   5.166  20.889  0.00  0.00    +0.109 C 
ATOM      8  C   UNL     1      21.817   3.969  21.626  0.00  0.00    +0.133 C 
ATOM      9  C   UNL     1      20.122   5.907  21.649  0.00  0.00    +0.109 C 
ATOM     12  C   UNL     1      23.578   5.396  20.928  0.00  0.00    +0.305 C 
ATOM     13  C   UNL     1      22.141   7.366  20.142  0.00  0.00    +0.125 C 
ATOM     14  C   UNL     1      20.994   8.048  20.891  0.00  0.00    +0.104 C 
ENDROOT
BRANCH   3   7
ATOM      7  C   UNL     1      24.192   3.134  21.906  0.00  0.00    +0.078 C 
ATOM     10  C   UNL     1      24.047   1.843  21.097  0.00  0.00    +0.022 C 
ATOM     11  C   UNL     1      24.020   2.874  23.405  0.00  0.00    +0.022 C 
ATOM     15  C   UNL     1      24.997   0.757  21.595  0.00  0.00    +0.002 C 
ATOM     16  C   UNL     1      24.971   1.787  23.900  0.00  0.00    +0.002 C 
ATOM     17  C   UNL     1      24.825   0.503  23.090  0.00  0.00    +0.000 C 
ENDBRANCH   3   7
BRANCH   5  18
ATOM     18  C   UNL     1      18.711   7.865  21.651  0.00  0.00    +0.119 C 
BRANCH  18  19
ATOM     19  C   UNL     1      17.427   7.796  20.869  0.00  0.00    -0.033 A 
ATOM     20  C   UNL     1      16.559   8.888  20.852  0.00  0.00    +0.008 A 
ATOM     21  C   UNL     1      17.104   6.639  20.160  0.00  0.00    +0.008 A 
ATOM     22  C   UNL     1      15.370   8.823  20.127  0.00  0.00    +0.046 A 
ATOM     23  C   UNL     1      15.915   6.574  19.434  0.00  0.00    +0.046 A 
ATOM     24  C   UNL     1      15.048   7.667  19.418  0.00  0.00    +0.120 A 
BRANCH  24   2
ATOM      2  O   UNL     1      13.887   7.604  18.709  0.00  0.00    -0.495 OA
ATOM     25  C   UNL     1      12.769   6.988  19.348  0.00  0.00    +0.277 C 
ENDBRANCH  24   2
ENDBRANCH  18  19
ENDBRANCH   5  18
TORSDOF 4
ENDMDL
MODEL 7
REMARK VINA RESULT:      -6.3     31.152     32.838
REMARK  Name = 75537119
REMARK  5 active torsions:
REMARK  status: ('A' for Active; 'I' for Inactive)
REMARK    1  A    between atoms: O_2  and  C_24
REMARK    2  A    between atoms: O_2  and  C_25
REMARK    3  A    between atoms: N_3  and  C_7
REMARK    4  A    between atoms: N_5  and  C_18
REMARK    5  A    between atoms: C_18  and  C_19
REMARK                            x       y       z     vdW  Elec       q    Type
REMARK                         _______ _______ _______ _____ _____    ______ ____
ROOT
ATOM      1  O   UNL     1     -14.754  -0.233  29.301  0.00  0.00    -0.252 OA
ATOM      3  N   UNL     1     -16.083   1.574  28.569  0.00  0.00    -0.281 N 
ATOM      4  N   UNL     1     -14.680   1.895  30.293  0.00  0.00    -0.278 N 
ATOM      5  N   UNL     1     -14.602   3.847  32.317  0.00  0.00    -0.295 NA
ATOM      6  C   UNL     1     -15.236   3.206  30.026  0.00  0.00    +0.109 C 
ATOM      8  C   UNL     1     -16.347   2.931  29.016  0.00  0.00    +0.133 C 
ATOM      9  C   UNL     1     -15.698   3.863  31.326  0.00  0.00    +0.109 C 
ATOM     12  C   UNL     1     -15.122   0.932  29.376  0.00  0.00    +0.305 C 
ATOM     13  C   UNL     1     -13.702   1.742  31.349  0.00  0.00    +0.125 C 
ATOM     14  C   UNL     1     -14.177   2.464  32.612  0.00  0.00    +0.104 C 
ENDROOT
BRANCH   3   7
ATOM      7  C   UNL     1     -16.850   0.954  27.516  0.00  0.00    +0.078 C 
ATOM     10  C   UNL     1     -16.716   1.749  26.215  0.00  0.00    +0.022 C 
ATOM     11  C   UNL     1     -18.317   0.803  27.929  0.00  0.00    +0.022 C 
ATOM     15  C   UNL     1     -17.560   1.143  25.096  0.00  0.00    +0.002 C 
ATOM     16  C   UNL     1     -19.157   0.198  26.807  0.00  0.00    +0.002 C 
ATOM     17  C   UNL     1     -19.021   0.991  25.512  0.00  0.00    +0.000 C 
ENDBRANCH   3   7
BRANCH   5  18
ATOM     18  C   UNL     1     -15.014   4.527  33.544  0.00  0.00    +0.119 C 
BRANCH  18  19
ATOM     19  C   UNL     1     -14.206   5.772  33.794  0.00  0.00    -0.033 A 
ATOM     20  C   UNL     1     -13.833   6.114  35.093  0.00  0.00    +0.008 A 
ATOM     21  C   UNL     1     -13.830   6.585  32.724  0.00  0.00    +0.008 A 
ATOM     22  C   UNL     1     -13.084   7.268  35.323  0.00  0.00    +0.046 A 
ATOM     23  C   UNL     1     -13.080   7.739  32.953  0.00  0.00    +0.046 A 
ATOM     24  C   UNL     1     -12.707   8.080  34.254  0.00  0.00    +0.120 A 
BRANCH  24   2
ATOM      2  O   UNL     1     -11.976   9.206  34.479  0.00  0.00    -0.495 OA
ATOM     25  C   UNL     1     -12.563  10.206  35.310  0.00  0.00    +0.277 C 
ENDBRANCH  24   2
ENDBRANCH  18  19
ENDBRANCH   5  18
TORSDOF 4
ENDMDL
MODEL 8
REMARK VINA RESULT:      -6.2      3.782      5.934
REMARK  Name = 75537119
REMARK  5 active torsions:
REMARK  status: ('A' for Active; 'I' for Inactive)
REMARK    1  A    between atoms: O_2  and  C_24
REMARK    2  A    between atoms: O_2  and  C_25
REMARK    3  A    between atoms: N_3  and  C_7
REMARK    4  A    between atoms: N_5  and  C_18
REMARK    5  A    between atoms: C_18  and  C_19
REMARK                            x       y       z     vdW  Elec       q    Type
REMARK                         _______ _______ _______ _____ _____    ______ ____
ROOT
ATOM      1  O   UNL     1      22.940   7.072  22.461  0.00  0.00    -0.252 OA
ATOM      3  N   UNL     1      22.186   5.222  21.205  0.00  0.00    -0.281 N 
ATOM      4  N   UNL     1      20.871   7.037  21.350  0.00  0.00    -0.278 N 
ATOM      5  N   UNL     1      18.115   7.403  20.920  0.00  0.00    -0.295 NA
ATOM      6  C   UNL     1      20.181   6.160  20.425  0.00  0.00    +0.109 C 
ATOM      8  C   UNL     1      20.962   4.851  20.516  0.00  0.00    +0.133 C 
ATOM      9  C   UNL     1      18.703   6.054  20.795  0.00  0.00    +0.109 C 
ATOM     12  C   UNL     1      22.106   6.516  21.758  0.00  0.00    +0.305 C 
ATOM     13  C   UNL     1      20.299   8.331  21.658  0.00  0.00    +0.125 C 
ATOM     14  C   UNL     1      18.807   8.185  21.964  0.00  0.00    +0.104 C 
ENDROOT
BRANCH   3   7
ATOM      7  C   UNL     1      23.265   4.285  21.405  0.00  0.00    +0.078 C 
ATOM     10  C   UNL     1      24.007   4.033  20.090  0.00  0.00    +0.022 C 
ATOM     11  C   UNL     1      22.744   2.978  22.010  0.00  0.00    +0.022 C 
ATOM     15  C   UNL     1      25.122   3.005  20.261  0.00  0.00    +0.002 C 
ATOM     16  C   UNL     1      23.862   1.952  22.179  0.00  0.00    +0.002 C 
ATOM     17  C   UNL     1      24.601   1.705  20.867  0.00  0.00    +0.000 C 
ENDBRANCH   3   7
BRANCH   5  18
ATOM     18  C   UNL     1      16.686   7.312  21.214  0.00  0.00    +0.119 C 
BRANCH  18  19
ATOM     19  C   UNL     1      15.845   7.829  20.078  0.00  0.00    -0.033 A 
ATOM     20  C   UNL     1      15.382   6.953  19.096  0.00  0.00    +0.008 A 
ATOM     21  C   UNL     1      15.529   9.186  20.007  0.00  0.00    +0.008 A 
ATOM     22  C   UNL     1      14.603   7.433  18.044  0.00  0.00    +0.046 A 
ATOM     23  C   UNL     1      14.750   9.667  18.955  0.00  0.00    +0.046 A 
ATOM     24  C   UNL     1      14.286   8.790  17.973  0.00  0.00    +0.120 A 
BRANCH  24   2
ATOM      2  O   UNL     1      13.525   9.259  16.946  0.00  0.00    -0.495 OA
ATOM     25  C   UNL     1      14.188   9.506  15.707  0.00  0.00    +0.277 C 
ENDBRANCH  24   2
ENDBRANCH  18  19
ENDBRANCH   5  18
TORSDOF 4
ENDMDL
MODEL 9
REMARK VINA RESULT:      -6.0     13.910     15.587
REMARK  Name = 75537119
REMARK  5 active torsions:
REMARK  status: ('A' for Active; 'I' for Inactive)
REMARK    1  A    between atoms: O_2  and  C_24
REMARK    2  A    between atoms: O_2  and  C_25
REMARK    3  A    between atoms: N_3  and  C_7
REMARK    4  A    between atoms: N_5  and  C_18
REMARK    5  A    between atoms: C_18  and  C_19
REMARK                            x       y       z     vdW  Elec       q    Type
REMARK                         _______ _______ _______ _____ _____    ______ ____
ROOT
ATOM      1  O   UNL     1      17.390   8.109   3.002  0.00  0.00    -0.252 OA
ATOM      3  N   UNL     1      16.962   8.541   5.282  0.00  0.00    -0.281 N 
ATOM      4  N   UNL     1      15.399   7.472   4.075  0.00  0.00    -0.278 N 
ATOM      5  N   UNL     1      12.642   7.091   4.482  0.00  0.00    -0.295 NA
ATOM      6  C   UNL     1      14.883   7.462   5.429  0.00  0.00    +0.109 C 
ATOM      8  C   UNL     1      15.836   8.384   6.186  0.00  0.00    +0.133 C 
ATOM      9  C   UNL     1      13.419   7.900   5.443  0.00  0.00    +0.109 C 
ATOM     12  C   UNL     1      16.675   8.044   3.994  0.00  0.00    +0.305 C 
ATOM     13  C   UNL     1      14.637   6.834   3.022  0.00  0.00    +0.125 C 
ATOM     14  C   UNL     1      13.167   7.252   3.111  0.00  0.00    +0.104 C 
ENDROOT
BRANCH   3   7
ATOM      7  C   UNL     1      18.153   9.262   5.662  0.00  0.00    +0.078 C 
ATOM     10  C   UNL     1      19.019   8.414   6.596  0.00  0.00    +0.022 C 
ATOM     11  C   UNL     1      17.792  10.605   6.303  0.00  0.00    +0.022 C 
ATOM     15  C   UNL     1      20.262   9.174   7.055  0.00  0.00    +0.002 C 
ATOM     16  C   UNL     1      19.037  11.361   6.761  0.00  0.00    +0.002 C 
ATOM     17  C   UNL     1      19.899  10.513   7.691  0.00  0.00    +0.000 C 
ENDBRANCH   3   7
BRANCH   5  18
ATOM     18  C   UNL     1      11.228   7.461   4.532  0.00  0.00    +0.119 C 
BRANCH  18  19
ATOM     19  C   UNL     1      10.573   7.001   5.807  0.00  0.00    -0.033 A 
ATOM     20  C   UNL     1      10.543   5.644   6.127  0.00  0.00    +0.008 A 
ATOM     21  C   UNL     1       9.995   7.933   6.668  0.00  0.00    +0.008 A 
ATOM     22  C   UNL     1       9.936   5.219   7.308  0.00  0.00    +0.046 A 
ATOM     23  C   UNL     1       9.388   7.509   7.851  0.00  0.00    +0.046 A 
ATOM     24  C   UNL     1       9.359   6.150   8.171  0.00  0.00    +0.120 A 
BRANCH  24   2
ATOM      2  O   UNL     1       8.767   5.736   9.324  0.00  0.00    -0.495 OA
ATOM     25  C   UNL     1       9.251   4.524   9.903  0.00  0.00    +0.277 C 
ENDBRANCH  24   2
ENDBRANCH  18  19
ENDBRANCH   5  18
TORSDOF 4
ENDMDL
MODEL 10
REMARK VINA RESULT:      -6.0     13.602     16.091
REMARK  Name = 75537119
REMARK  5 active torsions:
REMARK  status: ('A' for Active; 'I' for Inactive)
REMARK    1  A    between atoms: O_2  and  C_24
REMARK    2  A    between atoms: O_2  and  C_25
REMARK    3  A    between atoms: N_3  and  C_7
REMARK    4  A    between atoms: N_5  and  C_18
REMARK    5  A    between atoms: C_18  and  C_19
REMARK                            x       y       z     vdW  Elec       q    Type
REMARK                         _______ _______ _______ _____ _____    ______ ____
ROOT
ATOM      1  O   UNL     1       9.819   4.000   5.478  0.00  0.00    -0.252 OA
ATOM      3  N   UNL     1      10.931   5.575   4.118  0.00  0.00    -0.281 N 
ATOM      4  N   UNL     1      10.326   6.179   6.195  0.00  0.00    -0.278 N 
ATOM      5  N   UNL     1       9.969   8.699   7.393  0.00  0.00    -0.295 NA
ATOM      6  C   UNL     1      11.080   7.310   5.692  0.00  0.00    +0.109 C 
ATOM      8  C   UNL     1      11.283   6.981   4.214  0.00  0.00    +0.133 C 
ATOM      9  C   UNL     1      10.329   8.612   5.963  0.00  0.00    +0.109 C 
ATOM     12  C   UNL     1      10.301   5.109   5.290  0.00  0.00    +0.305 C 
ATOM     13  C   UNL     1       9.797   6.224   7.542  0.00  0.00    +0.125 C 
ATOM     14  C   UNL     1       9.107   7.567   7.789  0.00  0.00    +0.104 C 
ENDROOT
BRANCH   3   7
ATOM      7  C   UNL     1      11.089   4.830   2.892  0.00  0.00    +0.078 C 
ATOM     10  C   UNL     1      12.541   4.886   2.413  0.00  0.00    +0.022 C 
ATOM     11  C   UNL     1      10.127   5.344   1.817  0.00  0.00    +0.022 C 
ATOM     15  C   UNL     1      12.726   4.148   1.090  0.00  0.00    +0.002 C 
ATOM     16  C   UNL     1      10.315   4.604   0.495  0.00  0.00    +0.002 C 
ATOM     17  C   UNL     1      11.764   4.660   0.021  0.00  0.00    +0.000 C 
ENDBRANCH   3   7
BRANCH   5  18
ATOM     18  C   UNL     1       9.303   9.970   7.675  0.00  0.00    +0.119 C 
BRANCH  18  19
ATOM     19  C   UNL     1       9.929  10.683   8.844  0.00  0.00    -0.033 A 
ATOM     20  C   UNL     1       9.142  11.075   9.926  0.00  0.00    +0.008 A 
ATOM     21  C   UNL     1      11.298  10.954   8.843  0.00  0.00    +0.008 A 
ATOM     22  C   UNL     1       9.723  11.735  11.008  0.00  0.00    +0.046 A 
ATOM     23  C   UNL     1      11.879  11.614   9.925  0.00  0.00    +0.046 A 
ATOM     24  C   UNL     1      11.091  12.005  11.009  0.00  0.00    +0.120 A 
BRANCH  24   2
ATOM      2  O   UNL     1      11.658  12.650  12.065  0.00  0.00    -0.495 OA
ATOM     25  C   UNL     1      13.083  12.632  12.147  0.00  0.00    +0.277 C 
ENDBRANCH  24   2
ENDBRANCH  18  19
ENDBRANCH   5  18
TORSDOF 4
ENDMDL
