MODEL 1
REMARK VINA RESULT:      -7.4      0.000      0.000
REMARK  Name = 38026580
REMARK  8 active torsions:
REMARK  status: ('A' for Active; 'I' for Inactive)
REMARK    1  A    between atoms: S_1  and  N_6
REMARK    2  A    between atoms: S_1  and  C_15
REMARK    3  A    between atoms: N_5  and  C_14
REMARK    4  A    between atoms: N_6  and  C_9
REMARK    5  A    between atoms: C_10  and  C_13
REMARK    6  A    between atoms: C_15  and  C_16
REMARK    7  A    between atoms: C_16  and  C_18
REMARK    8  A    between atoms: C_17  and  C_19
REMARK                            x       y       z     vdW  Elec       q    Type
REMARK                         _______ _______ _______ _____ _____    ______ ____
ROOT
ATOM      5  N   UNL     1      11.425   6.914  21.706  0.00  0.00    -0.293 NA
ATOM      9  C   UNL     1      10.691   9.106  22.020  0.00  0.00    +0.092 C 
ATOM     10  C   UNL     1      11.720   7.576  20.421  0.00  0.00    +0.147 C 
ATOM     11  C   UNL     1      11.417   9.065  20.678  0.00  0.00    +0.050 C 
ATOM     12  C   UNL     1      10.308   7.660  22.293  0.00  0.00    +0.105 C 
ATOM     14  C   UNL     1      11.116   5.497  21.565  0.00  0.00    +0.105 C 
ENDROOT
BRANCH  10  13
ATOM      2  O   UNL     1      13.354   7.535  18.604  0.00  0.00    -0.336 OA
ATOM      7  N   UNL     1      14.197   6.986  20.605  0.00  0.00    -0.190 NA
ATOM      8  N   UNL     1      14.713   7.267  18.394  0.00  0.00    -0.056 NA
ATOM     13  C   UNL     1      13.134   7.346  19.932  0.00  0.00    +0.245 A 
ATOM     17  C   UNL     1      15.141   6.950  19.620  0.00  0.00    +0.202 A 
BRANCH  17  19
ATOM     19  C   UNL     1      16.503   6.596  19.894  0.00  0.00    +0.022 A 
ATOM     20  C   UNL     1      17.190   5.748  19.025  0.00  0.00    +0.012 A 
ATOM     21  C   UNL     1      17.141   7.096  21.029  0.00  0.00    +0.012 A 
ATOM     22  C   UNL     1      18.516   5.402  19.290  0.00  0.00    +0.001 A 
ATOM     23  C   UNL     1      18.466   6.751  21.294  0.00  0.00    +0.001 A 
ATOM     24  C   UNL     1      19.153   5.904  20.424  0.00  0.00    +0.000 A 
ENDBRANCH  17  19
ENDBRANCH  10  13
BRANCH   9   6
ATOM      6  N   UNL     1      11.611   9.597  23.078  0.00  0.00    -0.190 NA
ATOM     25  H   UNL     1      11.725   9.013  23.915  0.00  0.00    +0.148 HD
BRANCH   6   1
ATOM      1  S   UNL     1      11.968  11.259  23.149  0.00  0.00    +0.030 S 
ATOM      3  O   UNL     1      10.979  12.012  22.404  0.00  0.00    -0.158 OA
ATOM      4  O   UNL     1      13.384  11.429  22.887  0.00  0.00    -0.158 OA
BRANCH   1  15
ATOM     15  C   UNL     1      11.708  11.577  24.880  0.00  0.00    +0.185 C 
BRANCH  15  16
ATOM     16  C   UNL     1      10.622  12.619  25.094  0.00  0.00    +0.021 C 
ATOM     18  C   UNL     1      11.178  13.874  25.745  0.00  0.00    +0.005 C 
ENDBRANCH  15  16
ENDBRANCH   1  15
ENDBRANCH   6   1
ENDBRANCH   9   6
TORSDOF 6
ENDMDL
MODEL 2
REMARK VINA RESULT:      -6.1     28.279     30.626
REMARK  Name = 38026580
REMARK  8 active torsions:
REMARK  status: ('A' for Active; 'I' for Inactive)
REMARK    1  A    between atoms: S_1  and  N_6
REMARK    2  A    between atoms: S_1  and  C_15
REMARK    3  A    between atoms: N_5  and  C_14
REMARK    4  A    between atoms: N_6  and  C_9
REMARK    5  A    between atoms: C_10  and  C_13
REMARK    6  A    between atoms: C_15  and  C_16
REMARK    7  A    between atoms: C_16  and  C_18
REMARK    8  A    between atoms: C_17  and  C_19
REMARK                            x       y       z     vdW  Elec       q    Type
REMARK                         _______ _______ _______ _____ _____    ______ ____
ROOT
ATOM      5  N   UNL     1     -17.953   1.735  26.833  0.00  0.00    -0.293 NA
ATOM      9  C   UNL     1     -16.538   1.723  28.688  0.00  0.00    +0.092 C 
ATOM     10  C   UNL     1     -17.230   3.018  26.738  0.00  0.00    +0.147 C 
ATOM     11  C   UNL     1     -16.161   2.938  27.844  0.00  0.00    +0.050 C 
ATOM     12  C   UNL     1     -17.956   1.382  28.256  0.00  0.00    +0.105 C 
ATOM     14  C   UNL     1     -19.304   1.795  26.287  0.00  0.00    +0.105 C 
ENDROOT
BRANCH  10  13
ATOM      2  O   UNL     1     -16.676   2.246  24.486  0.00  0.00    -0.336 OA
ATOM      7  N   UNL     1     -16.075   4.363  24.901  0.00  0.00    -0.190 NA
ATOM      8  N   UNL     1     -16.075   2.717  23.312  0.00  0.00    -0.056 NA
ATOM     13  C   UNL     1     -16.635   3.277  25.370  0.00  0.00    +0.245 A 
ATOM     17  C   UNL     1     -15.747   3.972  23.636  0.00  0.00    +0.202 A 
BRANCH  17  19
ATOM     19  C   UNL     1     -15.094   4.859  22.718  0.00  0.00    +0.022 A 
ATOM     20  C   UNL     1     -13.703   4.971  22.728  0.00  0.00    +0.012 A 
ATOM     21  C   UNL     1     -15.847   5.612  21.817  0.00  0.00    +0.012 A 
ATOM     22  C   UNL     1     -13.066   5.834  21.835  0.00  0.00    +0.001 A 
ATOM     23  C   UNL     1     -15.211   6.473  20.924  0.00  0.00    +0.001 A 
ATOM     24  C   UNL     1     -13.820   6.585  20.934  0.00  0.00    +0.000 A 
ENDBRANCH  17  19
ENDBRANCH  10  13
BRANCH   9   6
ATOM      6  N   UNL     1     -15.627   0.591  28.379  0.00  0.00    -0.190 NA
ATOM     25  H   UNL     1     -15.794   0.072  27.509  0.00  0.00    +0.148 HD
BRANCH   6   1
ATOM      1  S   UNL     1     -14.770  -0.143  29.652  0.00  0.00    +0.030 S 
ATOM      3  O   UNL     1     -13.723  -0.992  29.121  0.00  0.00    -0.158 OA
ATOM      4  O   UNL     1     -15.732  -0.659  30.607  0.00  0.00    -0.158 OA
BRANCH   1  15
ATOM     15  C   UNL     1     -14.000   1.279  30.393  0.00  0.00    +0.185 C 
BRANCH  15  16
ATOM     16  C   UNL     1     -14.479   1.487  31.821  0.00  0.00    +0.021 C 
ATOM     18  C   UNL     1     -15.120   2.852  31.998  0.00  0.00    +0.005 C 
ENDBRANCH  15  16
ENDBRANCH   1  15
ENDBRANCH   6   1
ENDBRANCH   9   6
TORSDOF 6
ENDMDL
MODEL 3
REMARK VINA RESULT:      -6.0     26.759     29.709
REMARK  Name = 38026580
REMARK  8 active torsions:
REMARK  status: ('A' for Active; 'I' for Inactive)
REMARK    1  A    between atoms: S_1  and  N_6
REMARK    2  A    between atoms: S_1  and  C_15
REMARK    3  A    between atoms: N_5  and  C_14
REMARK    4  A    between atoms: N_6  and  C_9
REMARK    5  A    between atoms: C_10  and  C_13
REMARK    6  A    between atoms: C_15  and  C_16
REMARK    7  A    between atoms: C_16  and  C_18
REMARK    8  A    between atoms: C_17  and  C_19
REMARK                            x       y       z     vdW  Elec       q    Type
REMARK                         _______ _______ _______ _____ _____    ______ ____
ROOT
ATOM      5  N   UNL     1     -16.963   2.791  24.391  0.00  0.00    -0.293 NA
ATOM      9  C   UNL     1     -17.289   3.463  26.601  0.00  0.00    +0.092 C 
ATOM     10  C   UNL     1     -16.847   4.261  24.337  0.00  0.00    +0.147 C 
ATOM     11  C   UNL     1     -16.869   4.702  25.814  0.00  0.00    +0.050 C 
ATOM     12  C   UNL     1     -17.815   2.499  25.548  0.00  0.00    +0.105 C 
ATOM     14  C   UNL     1     -17.498   2.213  23.164  0.00  0.00    +0.105 C 
ENDROOT
BRANCH  10  13
ATOM      2  O   UNL     1     -14.418   4.285  24.062  0.00  0.00    -0.336 OA
ATOM      7  N   UNL     1     -15.519   5.553  22.580  0.00  0.00    -0.190 NA
ATOM      8  N   UNL     1     -13.441   4.861  23.240  0.00  0.00    -0.056 NA
ATOM     13  C   UNL     1     -15.613   4.744  23.605  0.00  0.00    +0.245 A 
ATOM     17  C   UNL     1     -14.169   5.594  22.392  0.00  0.00    +0.202 A 
BRANCH  17  19
ATOM     19  C   UNL     1     -13.576   6.378  21.347  0.00  0.00    +0.022 A 
ATOM     20  C   UNL     1     -14.386   7.134  20.499  0.00  0.00    +0.012 A 
ATOM     21  C   UNL     1     -12.192   6.383  21.176  0.00  0.00    +0.012 A 
ATOM     22  C   UNL     1     -13.812   7.896  19.482  0.00  0.00    +0.001 A 
ATOM     23  C   UNL     1     -11.617   7.145  20.160  0.00  0.00    +0.001 A 
ATOM     24  C   UNL     1     -12.427   7.902  19.312  0.00  0.00    +0.000 A 
ENDBRANCH  17  19
ENDBRANCH  10  13
BRANCH   9   6
ATOM      6  N   UNL     1     -16.109   2.875  27.285  0.00  0.00    -0.190 NA
ATOM     25  H   UNL     1     -15.254   2.749  26.730  0.00  0.00    +0.148 HD
BRANCH   6   1
ATOM      1  S   UNL     1     -16.353   1.944  28.688  0.00  0.00    +0.030 S 
ATOM      3  O   UNL     1     -16.267   0.533  28.369  0.00  0.00    -0.158 OA
ATOM      4  O   UNL     1     -17.503   2.479  29.391  0.00  0.00    -0.158 OA
BRANCH   1  15
ATOM     15  C   UNL     1     -14.907   2.382  29.628  0.00  0.00    +0.185 C 
BRANCH  15  16
ATOM     16  C   UNL     1     -14.234   1.151  30.212  0.00  0.00    +0.021 C 
ATOM     18  C   UNL     1     -14.705   0.882  31.632  0.00  0.00    +0.005 C 
ENDBRANCH  15  16
ENDBRANCH   1  15
ENDBRANCH   6   1
ENDBRANCH   9   6
TORSDOF 6
ENDMDL
MODEL 4
REMARK VINA RESULT:      -6.0     26.450     28.235
REMARK  Name = 38026580
REMARK  8 active torsions:
REMARK  status: ('A' for Active; 'I' for Inactive)
REMARK    1  A    between atoms: S_1  and  N_6
REMARK    2  A    between atoms: S_1  and  C_15
REMARK    3  A    between atoms: N_5  and  C_14
REMARK    4  A    between atoms: N_6  and  C_9
REMARK    5  A    between atoms: C_10  and  C_13
REMARK    6  A    between atoms: C_15  and  C_16
REMARK    7  A    between atoms: C_16  and  C_18
REMARK    8  A    between atoms: C_17  and  C_19
REMARK                            x       y       z     vdW  Elec       q    Type
REMARK                         _______ _______ _______ _____ _____    ______ ____
ROOT
ATOM      5  N   UNL     1      -3.245 -12.691  12.279  0.00  0.00    -0.293 NA
ATOM      9  C   UNL     1      -3.446 -10.934  10.759  0.00  0.00    +0.092 C 
ATOM     10  C   UNL     1      -2.385 -11.633  12.842  0.00  0.00    +0.147 C 
ATOM     11  C   UNL     1      -2.657 -10.404  11.954  0.00  0.00    +0.050 C 
ATOM     12  C   UNL     1      -3.290 -12.444  10.835  0.00  0.00    +0.105 C 
ATOM     14  C   UNL     1      -2.774 -14.037  12.585  0.00  0.00    +0.105 C 
ENDROOT
BRANCH  10  13
ATOM      2  O   UNL     1      -1.589 -10.901  15.034  0.00  0.00    -0.336 OA
ATOM      7  N   UNL     1      -3.747 -11.499  14.997  0.00  0.00    -0.190 NA
ATOM      8  N   UNL     1      -2.065 -10.725  16.340  0.00  0.00    -0.056 NA
ATOM     13  C   UNL     1      -2.643 -11.359  14.309  0.00  0.00    +0.245 A 
ATOM     17  C   UNL     1      -3.344 -11.099  16.237  0.00  0.00    +0.202 A 
BRANCH  17  19
ATOM     19  C   UNL     1      -4.244 -11.082  17.354  0.00  0.00    +0.022 A 
ATOM     20  C   UNL     1      -3.935 -11.801  18.509  0.00  0.00    +0.012 A 
ATOM     21  C   UNL     1      -5.428 -10.348  17.286  0.00  0.00    +0.012 A 
ATOM     22  C   UNL     1      -4.809 -11.786  19.596  0.00  0.00    +0.001 A 
ATOM     23  C   UNL     1      -6.302 -10.331  18.372  0.00  0.00    +0.001 A 
ATOM     24  C   UNL     1      -5.993 -11.051  19.528  0.00  0.00    +0.000 A 
ENDBRANCH  17  19
ENDBRANCH  10  13
BRANCH   9   6
ATOM      6  N   UNL     1      -4.879 -10.564  10.895  0.00  0.00    -0.190 NA
ATOM     25  H   UNL     1      -5.524 -11.287  11.234  0.00  0.00    +0.148 HD
BRANCH   6   1
ATOM      1  S   UNL     1      -5.476  -9.248   9.998  0.00  0.00    +0.030 S 
ATOM      3  O   UNL     1      -4.976  -8.004  10.548  0.00  0.00    -0.158 OA
ATOM      4  O   UNL     1      -6.897  -9.450   9.790  0.00  0.00    -0.158 OA
BRANCH   1  15
ATOM     15  C   UNL     1      -4.668  -9.520   8.437  0.00  0.00    +0.185 C 
BRANCH  15  16
ATOM     16  C   UNL     1      -5.665  -9.918   7.361  0.00  0.00    +0.021 C 
ATOM     18  C   UNL     1      -5.118 -11.029   6.480  0.00  0.00    +0.005 C 
ENDBRANCH  15  16
ENDBRANCH   1  15
ENDBRANCH   6   1
ENDBRANCH   9   6
TORSDOF 6
ENDMDL
MODEL 5
REMARK VINA RESULT:      -5.9     26.648     28.403
REMARK  Name = 38026580
REMARK  8 active torsions:
REMARK  status: ('A' for Active; 'I' for Inactive)
REMARK    1  A    between atoms: S_1  and  N_6
REMARK    2  A    between atoms: S_1  and  C_15
REMARK    3  A    between atoms: N_5  and  C_14
REMARK    4  A    between atoms: N_6  and  C_9
REMARK    5  A    between atoms: C_10  and  C_13
REMARK    6  A    between atoms: C_15  and  C_16
REMARK    7  A    between atoms: C_16  and  C_18
REMARK    8  A    between atoms: C_17  and  C_19
REMARK                            x       y       z     vdW  Elec       q    Type
REMARK                         _______ _______ _______ _____ _____    ______ ____
ROOT
ATOM      5  N   UNL     1      -4.141 -11.510  10.330  0.00  0.00    -0.293 NA
ATOM      9  C   UNL     1      -4.357  -9.512   9.144  0.00  0.00    +0.092 C 
ATOM     10  C   UNL     1      -3.077 -10.650  10.883  0.00  0.00    +0.147 C 
ATOM     11  C   UNL     1      -3.329  -9.270  10.247  0.00  0.00    +0.050 C 
ATOM     12  C   UNL     1      -4.381 -11.022   8.968  0.00  0.00    +0.105 C 
ATOM     14  C   UNL     1      -3.801 -12.927  10.346  0.00  0.00    +0.105 C 
ENDROOT
BRANCH  10  13
ATOM      2  O   UNL     1      -1.852 -10.445  12.988  0.00  0.00    -0.336 OA
ATOM      7  N   UNL     1      -4.064 -10.686  13.237  0.00  0.00    -0.190 NA
ATOM      8  N   UNL     1      -2.092 -10.428  14.368  0.00  0.00    -0.056 NA
ATOM     13  C   UNL     1      -3.065 -10.600  12.396  0.00  0.00    +0.245 A 
ATOM     17  C   UNL     1      -3.419 -10.576  14.434  0.00  0.00    +0.202 A 
BRANCH  17  19
ATOM     19  C   UNL     1      -4.129 -10.615  15.680  0.00  0.00    +0.022 A 
ATOM     20  C   UNL     1      -5.409 -10.068  15.771  0.00  0.00    +0.012 A 
ATOM     21  C   UNL     1      -3.539 -11.198  16.802  0.00  0.00    +0.012 A 
ATOM     22  C   UNL     1      -6.100 -10.105  16.982  0.00  0.00    +0.001 A 
ATOM     23  C   UNL     1      -4.230 -11.237  18.012  0.00  0.00    +0.001 A 
ATOM     24  C   UNL     1      -5.510 -10.690  18.103  0.00  0.00    +0.000 A 
ENDBRANCH  17  19
ENDBRANCH  10  13
BRANCH   9   6
ATOM      6  N   UNL     1      -5.692  -9.030   9.583  0.00  0.00    -0.190 NA
ATOM     25  H   UNL     1      -5.829  -8.863  10.587  0.00  0.00    +0.148 HD
BRANCH   6   1
ATOM      1  S   UNL     1      -7.036  -9.312   8.580  0.00  0.00    +0.030 S 
ATOM      3  O   UNL     1      -7.718 -10.523   8.991  0.00  0.00    -0.158 OA
ATOM      4  O   UNL     1      -6.621  -9.124   7.203  0.00  0.00    -0.158 OA
BRANCH   1  15
ATOM     15  C   UNL     1      -8.067  -7.929   9.015  0.00  0.00    +0.185 C 
BRANCH  15  16
ATOM     16  C   UNL     1      -8.132  -6.911   7.888  0.00  0.00    +0.021 C 
ATOM     18  C   UNL     1      -8.968  -5.704   8.277  0.00  0.00    +0.005 C 
ENDBRANCH  15  16
ENDBRANCH   1  15
ENDBRANCH   6   1
ENDBRANCH   9   6
TORSDOF 6
ENDMDL
MODEL 6
REMARK VINA RESULT:      -5.9     27.434     30.684
REMARK  Name = 38026580
REMARK  8 active torsions:
REMARK  status: ('A' for Active; 'I' for Inactive)
REMARK    1  A    between atoms: S_1  and  N_6
REMARK    2  A    between atoms: S_1  and  C_15
REMARK    3  A    between atoms: N_5  and  C_14
REMARK    4  A    between atoms: N_6  and  C_9
REMARK    5  A    between atoms: C_10  and  C_13
REMARK    6  A    between atoms: C_15  and  C_16
REMARK    7  A    between atoms: C_16  and  C_18
REMARK    8  A    between atoms: C_17  and  C_19
REMARK                            x       y       z     vdW  Elec       q    Type
REMARK                         _______ _______ _______ _____ _____    ______ ____
ROOT
ATOM      5  N   UNL     1     -17.774   3.445  25.938  0.00  0.00    -0.293 NA
ATOM      9  C   UNL     1     -16.720   2.791  23.963  0.00  0.00    +0.092 C 
ATOM     10  C   UNL     1     -17.352   2.056  26.203  0.00  0.00    +0.147 C 
ATOM     11  C   UNL     1     -16.490   1.678  24.983  0.00  0.00    +0.050 C 
ATOM     12  C   UNL     1     -17.933   3.545  24.484  0.00  0.00    +0.105 C 
ATOM     14  C   UNL     1     -18.994   3.818  26.644  0.00  0.00    +0.105 C 
ENDROOT
BRANCH  10  13
ATOM      2  O   UNL     1     -16.378   0.611  27.916  0.00  0.00    -0.336 OA
ATOM      7  N   UNL     1     -16.155   2.801  28.331  0.00  0.00    -0.190 NA
ATOM      8  N   UNL     1     -15.692   0.709  29.134  0.00  0.00    -0.056 NA
ATOM     13  C   UNL     1     -16.612   1.887  27.513  0.00  0.00    +0.245 A 
ATOM     17  C   UNL     1     -15.599   2.031  29.311  0.00  0.00    +0.202 A 
BRANCH  17  19
ATOM     19  C   UNL     1     -14.957   2.612  30.454  0.00  0.00    +0.022 A 
ATOM     20  C   UNL     1     -15.720   3.034  31.543  0.00  0.00    +0.012 A 
ATOM     21  C   UNL     1     -13.569   2.758  30.476  0.00  0.00    +0.012 A 
ATOM     22  C   UNL     1     -15.096   3.599  32.655  0.00  0.00    +0.001 A 
ATOM     23  C   UNL     1     -12.946   3.323  31.588  0.00  0.00    +0.001 A 
ATOM     24  C   UNL     1     -13.709   3.744  32.678  0.00  0.00    +0.000 A 
ENDBRANCH  17  19
ENDBRANCH  10  13
BRANCH   9   6
ATOM      6  N   UNL     1     -15.540   3.692  23.925  0.00  0.00    -0.190 NA
ATOM     25  H   UNL     1     -14.940   3.724  24.758  0.00  0.00    +0.148 HD
BRANCH   6   1
ATOM      1  S   UNL     1     -15.536   4.994  22.829  0.00  0.00    +0.030 S 
ATOM      3  O   UNL     1     -15.883   6.222  23.515  0.00  0.00    -0.158 OA
ATOM      4  O   UNL     1     -16.250   4.582  21.636  0.00  0.00    -0.158 OA
BRANCH   1  15
ATOM     15  C   UNL     1     -13.808   5.068  22.413  0.00  0.00    +0.185 C 
BRANCH  15  16
ATOM     16  C   UNL     1     -13.486   6.317  21.608  0.00  0.00    +0.021 C 
ATOM     18  C   UNL     1     -12.047   6.309  21.122  0.00  0.00    +0.005 C 
ENDBRANCH  15  16
ENDBRANCH   1  15
ENDBRANCH   6   1
ENDBRANCH   9   6
TORSDOF 6
ENDMDL
MODEL 7
REMARK VINA RESULT:      -5.8     25.859     28.681
REMARK  Name = 38026580
REMARK  8 active torsions:
REMARK  status: ('A' for Active; 'I' for Inactive)
REMARK    1  A    between atoms: S_1  and  N_6
REMARK    2  A    between atoms: S_1  and  C_15
REMARK    3  A    between atoms: N_5  and  C_14
REMARK    4  A    between atoms: N_6  and  C_9
REMARK    5  A    between atoms: C_10  and  C_13
REMARK    6  A    between atoms: C_15  and  C_16
REMARK    7  A    between atoms: C_16  and  C_18
REMARK    8  A    between atoms: C_17  and  C_19
REMARK                            x       y       z     vdW  Elec       q    Type
REMARK                         _______ _______ _______ _____ _____    ______ ____
ROOT
ATOM      5  N   UNL     1     -16.466   5.014  20.972  0.00  0.00    -0.293 NA
ATOM      9  C   UNL     1     -17.015   4.958  23.239  0.00  0.00    +0.092 C 
ATOM     10  C   UNL     1     -15.958   6.297  21.493  0.00  0.00    +0.147 C 
ATOM     11  C   UNL     1     -16.142   6.191  23.019  0.00  0.00    +0.050 C 
ATOM     12  C   UNL     1     -17.567   4.629  21.861  0.00  0.00    +0.105 C 
ATOM     14  C   UNL     1     -16.894   5.088  19.580  0.00  0.00    +0.105 C 
ENDROOT
BRANCH  10  13
ATOM      2  O   UNL     1     -13.562   5.908  21.777  0.00  0.00    -0.336 OA
ATOM      7  N   UNL     1     -14.064   7.404  20.187  0.00  0.00    -0.190 NA
ATOM      8  N   UNL     1     -12.339   6.336  21.244  0.00  0.00    -0.056 NA
ATOM     13  C   UNL     1     -14.525   6.585  21.099  0.00  0.00    +0.245 A 
ATOM     17  C   UNL     1     -12.719   7.217  20.313  0.00  0.00    +0.202 A 
BRANCH  17  19
ATOM     19  C   UNL     1     -11.778   7.924  19.493  0.00  0.00    +0.022 A 
ATOM     20  C   UNL     1     -11.462   7.443  18.222  0.00  0.00    +0.012 A 
ATOM     21  C   UNL     1     -11.179   9.092  19.965  0.00  0.00    +0.012 A 
ATOM     22  C   UNL     1     -10.548   8.130  17.423  0.00  0.00    +0.001 A 
ATOM     23  C   UNL     1     -10.266   9.780  19.167  0.00  0.00    +0.001 A 
ATOM     24  C   UNL     1      -9.950   9.299  17.896  0.00  0.00    +0.000 A 
ENDBRANCH  17  19
ENDBRANCH  10  13
BRANCH   9   6
ATOM      6  N   UNL     1     -16.183   3.832  23.735  0.00  0.00    -0.190 NA
ATOM     25  H   UNL     1     -15.436   3.489  23.120  0.00  0.00    +0.148 HD
BRANCH   6   1
ATOM      1  S   UNL     1     -16.811   2.821  24.951  0.00  0.00    +0.030 S 
ATOM      3  O   UNL     1     -16.056   1.586  25.009  0.00  0.00    -0.158 OA
ATOM      4  O   UNL     1     -18.256   2.804  24.823  0.00  0.00    -0.158 OA
BRANCH   1  15
ATOM     15  C   UNL     1     -16.419   3.772  26.403  0.00  0.00    +0.185 C 
BRANCH  15  16
ATOM     16  C   UNL     1     -16.003   2.873  27.556  0.00  0.00    +0.021 C 
ATOM     18  C   UNL     1     -17.205   2.411  28.362  0.00  0.00    +0.005 C 
ENDBRANCH  15  16
ENDBRANCH   1  15
ENDBRANCH   6   1
ENDBRANCH   9   6
TORSDOF 6
ENDMDL
MODEL 8
REMARK VINA RESULT:      -5.7     17.403     20.284
REMARK  Name = 38026580
REMARK  8 active torsions:
REMARK  status: ('A' for Active; 'I' for Inactive)
REMARK    1  A    between atoms: S_1  and  N_6
REMARK    2  A    between atoms: S_1  and  C_15
REMARK    3  A    between atoms: N_5  and  C_14
REMARK    4  A    between atoms: N_6  and  C_9
REMARK    5  A    between atoms: C_10  and  C_13
REMARK    6  A    between atoms: C_15  and  C_16
REMARK    7  A    between atoms: C_16  and  C_18
REMARK    8  A    between atoms: C_17  and  C_19
REMARK                            x       y       z     vdW  Elec       q    Type
REMARK                         _______ _______ _______ _____ _____    ______ ____
ROOT
ATOM      5  N   UNL     1      10.549   6.902   1.391  0.00  0.00    -0.293 NA
ATOM      9  C   UNL     1      11.296   5.046   0.191  0.00  0.00    +0.092 C 
ATOM     10  C   UNL     1      10.006   5.751   2.139  0.00  0.00    +0.147 C 
ATOM     11  C   UNL     1      10.648   4.521   1.470  0.00  0.00    +0.050 C 
ATOM     12  C   UNL     1      10.713   6.439   0.010  0.00  0.00    +0.105 C 
ATOM     14  C   UNL     1       9.705   8.087   1.469  0.00  0.00    +0.105 C 
ENDROOT
BRANCH  10  13
ATOM      2  O   UNL     1      11.486   6.316   4.001  0.00  0.00    -0.336 OA
ATOM      7  N   UNL     1       9.518   5.448   4.627  0.00  0.00    -0.190 NA
ATOM      8  N   UNL     1      11.507   6.273   5.401  0.00  0.00    -0.056 NA
ATOM     13  C   UNL     1      10.280   5.813   3.627  0.00  0.00    +0.245 A 
ATOM     17  C   UNL     1      10.313   5.749   5.694  0.00  0.00    +0.202 A 
BRANCH  17  19
ATOM     19  C   UNL     1       9.884   5.515   7.043  0.00  0.00    +0.022 A 
ATOM     20  C   UNL     1       9.991   4.239   7.597  0.00  0.00    +0.012 A 
ATOM     21  C   UNL     1       9.359   6.562   7.801  0.00  0.00    +0.012 A 
ATOM     22  C   UNL     1       9.575   4.010   8.908  0.00  0.00    +0.001 A 
ATOM     23  C   UNL     1       8.943   6.334   9.112  0.00  0.00    +0.001 A 
ATOM     24  C   UNL     1       9.051   5.057   9.666  0.00  0.00    +0.000 A 
ENDBRANCH  17  19
ENDBRANCH  10  13
BRANCH   9   6
ATOM      6  N   UNL     1      12.768   5.130   0.367  0.00  0.00    -0.190 NA
ATOM     25  H   UNL     1      13.197   6.062   0.331  0.00  0.00    +0.148 HD
BRANCH   6   1
ATOM      1  S   UNL     1      13.713   3.750   0.054  0.00  0.00    +0.030 S 
ATOM      3  O   UNL     1      13.744   2.894   1.223  0.00  0.00    -0.158 OA
ATOM      4  O   UNL     1      14.942   4.179  -0.585  0.00  0.00    -0.158 OA
BRANCH   1  15
ATOM     15  C   UNL     1      12.722   2.948  -1.186  0.00  0.00    +0.185 C 
BRANCH  15  16
ATOM     16  C   UNL     1      13.083   3.432  -2.581  0.00  0.00    +0.021 C 
ATOM     18  C   UNL     1      12.243   2.743  -3.643  0.00  0.00    +0.005 C 
ENDBRANCH  15  16
ENDBRANCH   1  15
ENDBRANCH   6   1
ENDBRANCH   9   6
TORSDOF 6
ENDMDL
MODEL 9
REMARK VINA RESULT:      -5.6     29.881     31.487
REMARK  Name = 38026580
REMARK  8 active torsions:
REMARK  status: ('A' for Active; 'I' for Inactive)
REMARK    1  A    between atoms: S_1  and  N_6
REMARK    2  A    between atoms: S_1  and  C_15
REMARK    3  A    between atoms: N_5  and  C_14
REMARK    4  A    between atoms: N_6  and  C_9
REMARK    5  A    between atoms: C_10  and  C_13
REMARK    6  A    between atoms: C_15  and  C_16
REMARK    7  A    between atoms: C_16  and  C_18
REMARK    8  A    between atoms: C_17  and  C_19
REMARK                            x       y       z     vdW  Elec       q    Type
REMARK                         _______ _______ _______ _____ _____    ______ ____
ROOT
ATOM      5  N   UNL     1     -15.362   1.248  31.105  0.00  0.00    -0.293 NA
ATOM      9  C   UNL     1     -15.826   1.339  28.820  0.00  0.00    +0.092 C 
ATOM     10  C   UNL     1     -14.522   2.357  30.614  0.00  0.00    +0.147 C 
ATOM     11  C   UNL     1     -14.960   2.553  29.150  0.00  0.00    +0.050 C 
ATOM     12  C   UNL     1     -15.564   0.361  29.955  0.00  0.00    +0.105 C 
ATOM     14  C   UNL     1     -14.777   0.542  32.238  0.00  0.00    +0.105 C 
ENDROOT
BRANCH  10  13
ATOM      2  O   UNL     1     -15.907   4.126  31.577  0.00  0.00    -0.336 OA
ATOM      7  N   UNL     1     -13.724   4.321  32.038  0.00  0.00    -0.190 NA
ATOM      8  N   UNL     1     -15.776   5.280  32.361  0.00  0.00    -0.056 NA
ATOM     13  C   UNL     1     -14.653   3.624  31.434  0.00  0.00    +0.245 A 
ATOM     17  C   UNL     1     -14.461   5.327  32.592  0.00  0.00    +0.202 A 
BRANCH  17  19
ATOM     19  C   UNL     1     -13.852   6.365  33.373  0.00  0.00    +0.022 A 
ATOM     20  C   UNL     1     -13.801   6.252  34.763  0.00  0.00    +0.012 A 
ATOM     21  C   UNL     1     -13.314   7.488  32.745  0.00  0.00    +0.012 A 
ATOM     22  C   UNL     1     -13.210   7.260  35.524  0.00  0.00    +0.001 A 
ATOM     23  C   UNL     1     -12.722   8.496  33.505  0.00  0.00    +0.001 A 
ATOM     24  C   UNL     1     -12.670   8.382  34.895  0.00  0.00    +0.000 A 
ENDBRANCH  17  19
ENDBRANCH  10  13
BRANCH   9   6
ATOM      6  N   UNL     1     -17.259   1.730  28.807  0.00  0.00    -0.190 NA
ATOM     25  H   UNL     1     -17.672   2.047  29.692  0.00  0.00    +0.148 HD
BRANCH   6   1
ATOM      1  S   UNL     1     -18.263   1.128  27.572  0.00  0.00    +0.030 S 
ATOM      3  O   UNL     1     -19.187   2.156  27.138  0.00  0.00    -0.158 OA
ATOM      4  O   UNL     1     -18.743  -0.179  27.977  0.00  0.00    -0.158 OA
BRANCH   1  15
ATOM     15  C   UNL     1     -17.073   0.877  26.274  0.00  0.00    +0.185 C 
BRANCH  15  16
ATOM     16  C   UNL     1     -17.147   1.983  25.235  0.00  0.00    +0.021 C 
ATOM     18  C   UNL     1     -16.094   3.051  25.483  0.00  0.00    +0.005 C 
ENDBRANCH  15  16
ENDBRANCH   1  15
ENDBRANCH   6   1
ENDBRANCH   9   6
TORSDOF 6
ENDMDL
MODEL 10
REMARK VINA RESULT:      -5.6     25.963     28.866
REMARK  Name = 38026580
REMARK  8 active torsions:
REMARK  status: ('A' for Active; 'I' for Inactive)
REMARK    1  A    between atoms: S_1  and  N_6
REMARK    2  A    between atoms: S_1  and  C_15
REMARK    3  A    between atoms: N_5  and  C_14
REMARK    4  A    between atoms: N_6  and  C_9
REMARK    5  A    between atoms: C_10  and  C_13
REMARK    6  A    between atoms: C_15  and  C_16
REMARK    7  A    between atoms: C_16  and  C_18
REMARK    8  A    between atoms: C_17  and  C_19
REMARK                            x       y       z     vdW  Elec       q    Type
REMARK                         _______ _______ _______ _____ _____    ______ ____
ROOT
ATOM      5  N   UNL     1     -16.318   6.979  21.962  0.00  0.00    -0.293 NA
ATOM      9  C   UNL     1     -16.622   5.072  23.271  0.00  0.00    +0.092 C 
ATOM     10  C   UNL     1     -15.039   6.834  22.684  0.00  0.00    +0.147 C 
ATOM     11  C   UNL     1     -15.156   5.477  23.404  0.00  0.00    +0.050 C 
ATOM     12  C   UNL     1     -17.328   6.336  22.808  0.00  0.00    +0.105 C 
ATOM     14  C   UNL     1     -16.658   8.365  21.669  0.00  0.00    +0.105 C 
ENDROOT
BRANCH  10  13
ATOM      2  O   UNL     1     -12.971   5.855  21.824  0.00  0.00    -0.336 OA
ATOM      7  N   UNL     1     -13.462   7.861  20.958  0.00  0.00    -0.190 NA
ATOM      8  N   UNL     1     -11.941   6.153  20.922  0.00  0.00    -0.056 NA
ATOM     13  C   UNL     1     -13.824   6.912  21.784  0.00  0.00    +0.245 A 
ATOM     17  C   UNL     1     -12.302   7.351  20.453  0.00  0.00    +0.202 A 
BRANCH  17  19
ATOM     19  C   UNL     1     -11.527   8.063  19.478  0.00  0.00    +0.022 A 
ATOM     20  C   UNL     1     -11.001   9.318  19.788  0.00  0.00    +0.012 A 
ATOM     21  C   UNL     1     -11.299   7.502  18.222  0.00  0.00    +0.012 A 
ATOM     22  C   UNL     1     -10.247  10.011  18.841  0.00  0.00    +0.001 A 
ATOM     23  C   UNL     1     -10.544   8.194  17.275  0.00  0.00    +0.001 A 
ATOM     24  C   UNL     1     -10.018   9.449  17.585  0.00  0.00    +0.000 A 
ENDBRANCH  17  19
ENDBRANCH  10  13
BRANCH   9   6
ATOM      6  N   UNL     1     -16.760   4.006  22.246  0.00  0.00    -0.190 NA
ATOM     25  H   UNL     1     -16.408   4.208  21.302  0.00  0.00    +0.148 HD
BRANCH   6   1
ATOM      1  S   UNL     1     -17.938   2.800  22.469  0.00  0.00    +0.030 S 
ATOM      3  O   UNL     1     -18.783   3.133  23.599  0.00  0.00    -0.158 OA
ATOM      4  O   UNL     1     -17.284   1.508  22.387  0.00  0.00    -0.158 OA
BRANCH   1  15
ATOM     15  C   UNL     1     -18.901   3.002  20.987  0.00  0.00    +0.185 C 
BRANCH  15  16
ATOM     16  C   UNL     1     -18.207   3.924  19.998  0.00  0.00    +0.021 C 
ATOM     18  C   UNL     1     -19.137   5.025  19.517  0.00  0.00    +0.005 C 
ENDBRANCH  15  16
ENDBRANCH   1  15
ENDBRANCH   6   1
ENDBRANCH   9   6
TORSDOF 6
ENDMDL
