MODEL 1
REMARK VINA RESULT:      -6.7      0.000      0.000
REMARK  Name = 7051763
REMARK  3 active torsions:
REMARK  status: ('A' for Active; 'I' for Inactive)
REMARK    1  A    between atoms: C_14  and  C_19
REMARK    2  A    between atoms: C_16  and  C_20
REMARK    3  A    between atoms: C_29  and  C_30
REMARK                            x       y       z     vdW  Elec       q    Type
REMARK                         _______ _______ _______ _____ _____    ______ ____
ROOT
ATOM      1  O   UNL     1      10.950   5.492   8.676  0.00  0.00    -0.268 OA
ATOM      2  O   UNL     1      10.866  10.467   7.681  0.00  0.00    -0.270 OA
ATOM      3  N   UNL     1      12.031   9.464   5.920  0.00  0.00    -0.297 N 
ATOM      4  N   UNL     1      11.762   6.412   6.682  0.00  0.00    -0.311 N 
ATOM      7  C   UNL     1      13.836   7.923   6.647  0.00  0.00    +0.027 C 
ATOM      8  C   UNL     1      12.612   7.463   4.563  0.00  0.00    +0.054 C 
ATOM      9  C   UNL     1      13.993   7.428   5.218  0.00  0.00    +0.018 C 
ATOM     10  C   UNL     1      13.283   9.358   6.666  0.00  0.00    +0.113 C 
ATOM     11  C   UNL     1      12.927   6.949   7.401  0.00  0.00    +0.130 C 
ATOM     12  C   UNL     1      12.080   8.913   4.558  0.00  0.00    +0.117 C 
ATOM     13  C   UNL     1      11.622   6.547   5.285  0.00  0.00    +0.034 A 
ATOM     14  C   UNL     1      10.616   5.902   4.640  0.00  0.00    +0.004 A 
ATOM     15  C   UNL     1      10.868   5.655   7.459  0.00  0.00    +0.252 A 
ATOM     16  C   UNL     1      10.903  10.007   6.541  0.00  0.00    +0.247 C 
ATOM     17  C   UNL     1       9.671   5.115   5.410  0.00  0.00    +0.015 A 
ATOM     18  C   UNL     1       9.757   4.995   6.735  0.00  0.00    +0.071 A 
ENDROOT
BRANCH  14  19
ATOM      5  N   UNL     1      10.885   5.075   0.990  0.00  0.00    -0.263 NA
ATOM     19  C   UNL     1      10.445   5.994   3.174  0.00  0.00    +0.002 A 
ATOM     21  C   UNL     1       9.722   7.033   2.610  0.00  0.00    +0.011 A 
ATOM     22  C   UNL     1      11.003   5.048   2.337  0.00  0.00    +0.119 A 
ATOM     25  C   UNL     1       9.579   7.094   1.228  0.00  0.00    +0.020 A 
ATOM     28  C   UNL     1      10.175   6.099   0.470  0.00  0.00    +0.111 A 
ENDBRANCH  14  19
BRANCH  16  20
ATOM     20  C   UNL     1       9.640  10.024   5.794  0.00  0.00    +0.037 A 
ATOM     23  C   UNL     1       8.829   8.893   5.779  0.00  0.00    +0.014 A 
ATOM     24  C   UNL     1       9.258  11.172   5.105  0.00  0.00    +0.014 A 
ATOM     26  C   UNL     1       7.627   8.909   5.070  0.00  0.00    +0.019 A 
ATOM     27  C   UNL     1       8.057  11.189   4.397  0.00  0.00    +0.019 A 
ATOM     29  C   UNL     1       7.242  10.058   4.380  0.00  0.00    +0.052 A 
BRANCH  29  30
ATOM      6  N   UNL     1       5.012  10.086   3.060  0.00  0.00    -0.191 NA
ATOM     30  C   UNL     1       6.012  10.074   3.652  0.00  0.00    +0.099 C 
ENDBRANCH  29  30
ENDBRANCH  16  20
TORSDOF 3
ENDMDL
MODEL 2
REMARK VINA RESULT:      -6.3     12.858     15.851
REMARK  Name = 7051763
REMARK  3 active torsions:
REMARK  status: ('A' for Active; 'I' for Inactive)
REMARK    1  A    between atoms: C_14  and  C_19
REMARK    2  A    between atoms: C_16  and  C_20
REMARK    3  A    between atoms: C_29  and  C_30
REMARK                            x       y       z     vdW  Elec       q    Type
REMARK                         _______ _______ _______ _____ _____    ______ ____
ROOT
ATOM      1  O   UNL     1      16.574   7.975  21.589  0.00  0.00    -0.268 OA
ATOM      2  O   UNL     1      14.269   7.208  17.133  0.00  0.00    -0.270 OA
ATOM      3  N   UNL     1      12.632   8.026  18.589  0.00  0.00    -0.297 N 
ATOM      4  N   UNL     1      14.354   8.592  21.174  0.00  0.00    -0.311 N 
ATOM      7  C   UNL     1      12.527   6.838  20.765  0.00  0.00    +0.027 C 
ATOM      8  C   UNL     1      11.978   9.234  20.661  0.00  0.00    +0.054 C 
ATOM      9  C   UNL     1      11.586   7.904  21.304  0.00  0.00    +0.018 C 
ATOM     10  C   UNL     1      12.408   6.735  19.235  0.00  0.00    +0.113 C 
ATOM     11  C   UNL     1      13.951   7.179  21.207  0.00  0.00    +0.130 C 
ATOM     12  C   UNL     1      11.825   9.131  19.127  0.00  0.00    +0.117 C 
ATOM     13  C   UNL     1      13.413   9.631  21.016  0.00  0.00    +0.034 A 
ATOM     14  C   UNL     1      13.804  10.925  21.148  0.00  0.00    +0.004 A 
ATOM     15  C   UNL     1      15.714   8.840  21.429  0.00  0.00    +0.252 A 
ATOM     16  C   UNL     1      13.596   8.135  17.582  0.00  0.00    +0.247 C 
ATOM     17  C   UNL     1      15.200  11.219  21.408  0.00  0.00    +0.015 A 
ATOM     18  C   UNL     1      16.120  10.261  21.529  0.00  0.00    +0.071 A 
ENDROOT
BRANCH  14  19
ATOM      5  N   UNL     1      10.918  13.213  21.867  0.00  0.00    -0.263 NA
ATOM     19  C   UNL     1      12.848  12.045  21.017  0.00  0.00    +0.002 A 
ATOM     21  C   UNL     1      12.957  12.950  19.973  0.00  0.00    +0.011 A 
ATOM     22  C   UNL     1      11.825  12.212  21.930  0.00  0.00    +0.119 A 
ATOM     25  C   UNL     1      12.043  13.993  19.875  0.00  0.00    +0.020 A 
ATOM     28  C   UNL     1      11.052  14.079  20.839  0.00  0.00    +0.111 A 
ENDBRANCH  14  19
BRANCH  16  20
ATOM     20  C   UNL     1      13.856   9.461  17.010  0.00  0.00    +0.037 A 
ATOM     23  C   UNL     1      14.668  10.362  17.692  0.00  0.00    +0.014 A 
ATOM     24  C   UNL     1      13.290   9.810  15.787  0.00  0.00    +0.014 A 
ATOM     26  C   UNL     1      14.916  11.623  17.147  0.00  0.00    +0.019 A 
ATOM     27  C   UNL     1      13.539  11.069  15.241  0.00  0.00    +0.019 A 
ATOM     29  C   UNL     1      14.352  11.976  15.922  0.00  0.00    +0.052 A 
BRANCH  29  30
ATOM      6  N   UNL     1      14.809  14.318  14.913  0.00  0.00    -0.191 NA
ATOM     30  C   UNL     1      14.605  13.267  15.365  0.00  0.00    +0.099 C 
ENDBRANCH  29  30
ENDBRANCH  16  20
TORSDOF 3
ENDMDL
MODEL 3
REMARK VINA RESULT:      -6.2      2.242      4.887
REMARK  Name = 7051763
REMARK  3 active torsions:
REMARK  status: ('A' for Active; 'I' for Inactive)
REMARK    1  A    between atoms: C_14  and  C_19
REMARK    2  A    between atoms: C_16  and  C_20
REMARK    3  A    between atoms: C_29  and  C_30
REMARK                            x       y       z     vdW  Elec       q    Type
REMARK                         _______ _______ _______ _____ _____    ______ ____
ROOT
ATOM      1  O   UNL     1       7.315   8.875   4.273  0.00  0.00    -0.268 OA
ATOM      2  O   UNL     1      11.280   9.670   7.338  0.00  0.00    -0.270 OA
ATOM      3  N   UNL     1      11.252   7.378   6.881  0.00  0.00    -0.297 N 
ATOM      4  N   UNL     1       8.854   7.201   4.836  0.00  0.00    -0.311 N 
ATOM      7  C   UNL     1       9.043   6.303   7.231  0.00  0.00    +0.027 C 
ATOM      8  C   UNL     1      10.543   5.453   5.476  0.00  0.00    +0.054 C 
ATOM      9  C   UNL     1       9.550   5.036   6.561  0.00  0.00    +0.018 C 
ATOM     10  C   UNL     1      10.207   7.086   7.860  0.00  0.00    +0.113 C 
ATOM     11  C   UNL     1       8.288   7.134   6.191  0.00  0.00    +0.130 C 
ATOM     12  C   UNL     1      11.724   6.211   6.121  0.00  0.00    +0.117 C 
ATOM     13  C   UNL     1       9.879   6.330   4.412  0.00  0.00    +0.034 A 
ATOM     14  C   UNL     1      10.262   6.319   3.109  0.00  0.00    +0.004 A 
ATOM     15  C   UNL     1       8.222   8.103   3.961  0.00  0.00    +0.252 A 
ATOM     16  C   UNL     1      11.677   8.697   6.700  0.00  0.00    +0.247 C 
ATOM     17  C   UNL     1       9.636   7.239   2.179  0.00  0.00    +0.015 A 
ATOM     18  C   UNL     1       8.688   8.098   2.555  0.00  0.00    +0.071 A 
ENDROOT
BRANCH  14  19
ATOM      5  N   UNL     1      11.982   3.168   2.018  0.00  0.00    -0.263 NA
ATOM     19  C   UNL     1      11.315   5.405   2.615  0.00  0.00    +0.002 A 
ATOM     21  C   UNL     1      12.575   5.885   2.295  0.00  0.00    +0.011 A 
ATOM     22  C   UNL     1      11.065   4.056   2.464  0.00  0.00    +0.119 A 
ATOM     25  C   UNL     1      13.545   5.002   1.833  0.00  0.00    +0.020 A 
ATOM     28  C   UNL     1      13.200   3.666   1.714  0.00  0.00    +0.111 A 
ENDBRANCH  14  19
BRANCH  16  20
ATOM     20  C   UNL     1      12.668   8.969   5.652  0.00  0.00    +0.037 A 
ATOM     23  C   UNL     1      14.023   8.990   5.969  0.00  0.00    +0.014 A 
ATOM     24  C   UNL     1      12.248   9.203   4.346  0.00  0.00    +0.014 A 
ATOM     26  C   UNL     1      14.965   9.247   4.972  0.00  0.00    +0.019 A 
ATOM     27  C   UNL     1      13.189   9.460   3.349  0.00  0.00    +0.019 A 
ATOM     29  C   UNL     1      14.548   9.482   3.663  0.00  0.00    +0.052 A 
BRANCH  29  30
ATOM      6  N   UNL     1      16.298   9.963   1.814  0.00  0.00    -0.191 NA
ATOM     30  C   UNL     1      15.513   9.748   2.643  0.00  0.00    +0.099 C 
ENDBRANCH  29  30
ENDBRANCH  16  20
TORSDOF 3
ENDMDL
MODEL 4
REMARK VINA RESULT:      -6.1     24.997     27.486
REMARK  Name = 7051763
REMARK  3 active torsions:
REMARK  status: ('A' for Active; 'I' for Inactive)
REMARK    1  A    between atoms: C_14  and  C_19
REMARK    2  A    between atoms: C_16  and  C_20
REMARK    3  A    between atoms: C_29  and  C_30
REMARK                            x       y       z     vdW  Elec       q    Type
REMARK                         _______ _______ _______ _____ _____    ______ ____
ROOT
ATOM      1  O   UNL     1      -6.617 -14.959  16.697  0.00  0.00    -0.268 OA
ATOM      2  O   UNL     1      -8.033 -10.696  19.057  0.00  0.00    -0.270 OA
ATOM      3  N   UNL     1      -6.173 -10.140  17.754  0.00  0.00    -0.297 N 
ATOM      4  N   UNL     1      -5.636 -12.875  16.273  0.00  0.00    -0.311 N 
ATOM      7  C   UNL     1      -4.237 -11.664  18.050  0.00  0.00    +0.027 C 
ATOM      8  C   UNL     1      -4.629 -10.609  15.862  0.00  0.00    +0.054 C 
ATOM      9  C   UNL     1      -3.545 -11.021  16.858  0.00  0.00    +0.018 C 
ATOM     10  C   UNL     1      -5.207 -10.672  18.713  0.00  0.00    +0.113 C 
ATOM     11  C   UNL     1      -4.951 -12.931  17.572  0.00  0.00    +0.130 C 
ATOM     12  C   UNL     1      -5.580  -9.589  16.527  0.00  0.00    +0.117 C 
ATOM     13  C   UNL     1      -5.426 -11.817  15.365  0.00  0.00    +0.034 A 
ATOM     14  C   UNL     1      -5.954 -11.883  14.115  0.00  0.00    +0.004 A 
ATOM     15  C   UNL     1      -6.413 -14.002  15.950  0.00  0.00    +0.252 A 
ATOM     16  C   UNL     1      -7.540 -10.234  18.028  0.00  0.00    +0.247 C 
ATOM     17  C   UNL     1      -6.765 -13.028  13.748  0.00  0.00    +0.015 A 
ATOM     18  C   UNL     1      -7.009 -14.029  14.595  0.00  0.00    +0.071 A 
ENDROOT
BRANCH  14  19
ATOM      5  N   UNL     1      -4.351  -9.841  11.406  0.00  0.00    -0.263 NA
ATOM     19  C   UNL     1      -5.740 -10.808  13.122  0.00  0.00    +0.002 A 
ATOM     21  C   UNL     1      -6.671  -9.793  12.965  0.00  0.00    +0.011 A 
ATOM     22  C   UNL     1      -4.608 -10.793  12.331  0.00  0.00    +0.119 A 
ATOM     25  C   UNL     1      -6.441  -8.797  12.023  0.00  0.00    +0.020 A 
ATOM     28  C   UNL     1      -5.277  -8.866  11.276  0.00  0.00    +0.111 A 
ENDBRANCH  14  19
BRANCH  16  20
ATOM     20  C   UNL     1      -8.486  -9.766  17.010  0.00  0.00    +0.037 A 
ATOM     23  C   UNL     1      -8.880 -10.621  15.984  0.00  0.00    +0.014 A 
ATOM     24  C   UNL     1      -8.989  -8.469  17.075  0.00  0.00    +0.014 A 
ATOM     26  C   UNL     1      -9.781 -10.176  15.016  0.00  0.00    +0.019 A 
ATOM     27  C   UNL     1      -9.890  -8.024  16.108  0.00  0.00    +0.019 A 
ATOM     29  C   UNL     1     -10.286  -8.878  15.079  0.00  0.00    +0.052 A 
BRANCH  29  30
ATOM      6  N   UNL     1     -11.957  -8.050  13.280  0.00  0.00    -0.191 NA
ATOM     30  C   UNL     1     -11.208  -8.422  14.087  0.00  0.00    +0.099 C 
ENDBRANCH  29  30
ENDBRANCH  16  20
TORSDOF 3
ENDMDL
MODEL 5
REMARK VINA RESULT:      -5.9     24.483     27.239
REMARK  Name = 7051763
REMARK  3 active torsions:
REMARK  status: ('A' for Active; 'I' for Inactive)
REMARK    1  A    between atoms: C_14  and  C_19
REMARK    2  A    between atoms: C_16  and  C_20
REMARK    3  A    between atoms: C_29  and  C_30
REMARK                            x       y       z     vdW  Elec       q    Type
REMARK                         _______ _______ _______ _____ _____    ______ ____
ROOT
ATOM      1  O   UNL     1      -7.193 -14.855  17.124  0.00  0.00    -0.268 OA
ATOM      2  O   UNL     1      -9.503 -10.756  15.222  0.00  0.00    -0.270 OA
ATOM      3  N   UNL     1      -7.568  -9.987  16.284  0.00  0.00    -0.297 N 
ATOM      4  N   UNL     1      -6.251 -12.712  17.184  0.00  0.00    -0.311 N 
ATOM      7  C   UNL     1      -7.278 -10.834  18.599  0.00  0.00    +0.027 C 
ATOM      8  C   UNL     1      -5.296 -10.387  17.211  0.00  0.00    +0.054 C 
ATOM      9  C   UNL     1      -5.862 -10.280  18.627  0.00  0.00    +0.018 C 
ATOM     10  C   UNL     1      -8.154 -10.032  17.622  0.00  0.00    +0.113 C 
ATOM     11  C   UNL     1      -7.212 -12.316  18.225  0.00  0.00    +0.130 C 
ATOM     12  C   UNL     1      -6.164  -9.553  16.244  0.00  0.00    +0.117 C 
ATOM     13  C   UNL     1      -5.236 -11.841  16.737  0.00  0.00    +0.034 A 
ATOM     14  C   UNL     1      -4.276 -12.298  15.892  0.00  0.00    +0.004 A 
ATOM     15  C   UNL     1      -6.339 -14.049  16.757  0.00  0.00    +0.252 A 
ATOM     16  C   UNL     1      -8.328 -10.394  15.185  0.00  0.00    +0.247 C 
ATOM     17  C   UNL     1      -4.336 -13.670  15.427  0.00  0.00    +0.015 A 
ATOM     18  C   UNL     1      -5.302 -14.509  15.805  0.00  0.00    +0.071 A 
ENDROOT
BRANCH  14  19
ATOM      5  N   UNL     1      -2.125 -10.254  13.595  0.00  0.00    -0.263 NA
ATOM     19  C   UNL     1      -3.178 -11.428  15.418  0.00  0.00    +0.002 A 
ATOM     21  C   UNL     1      -2.203 -10.978  16.294  0.00  0.00    +0.011 A 
ATOM     22  C   UNL     1      -3.102 -11.046  14.093  0.00  0.00    +0.119 A 
ATOM     25  C   UNL     1      -1.182 -10.162  15.818  0.00  0.00    +0.020 A 
ATOM     28  C   UNL     1      -1.190  -9.832  14.473  0.00  0.00    +0.111 A 
ENDBRANCH  14  19
BRANCH  16  20
ATOM     20  C   UNL     1      -7.686 -10.416  13.866  0.00  0.00    +0.037 A 
ATOM     23  C   UNL     1      -7.816  -9.323  13.013  0.00  0.00    +0.014 A 
ATOM     24  C   UNL     1      -6.947 -11.529  13.474  0.00  0.00    +0.014 A 
ATOM     26  C   UNL     1      -7.204  -9.344  11.759  0.00  0.00    +0.019 A 
ATOM     27  C   UNL     1      -6.334 -11.550  12.221  0.00  0.00    +0.019 A 
ATOM     29  C   UNL     1      -6.463 -10.457  11.364  0.00  0.00    +0.052 A 
BRANCH  29  30
ATOM      6  N   UNL     1      -5.331 -10.495   9.034  0.00  0.00    -0.191 NA
ATOM     30  C   UNL     1      -5.838 -10.478  10.079  0.00  0.00    +0.099 C 
ENDBRANCH  29  30
ENDBRANCH  16  20
TORSDOF 3
ENDMDL
MODEL 6
REMARK VINA RESULT:      -5.7     22.695     26.182
REMARK  Name = 7051763
REMARK  3 active torsions:
REMARK  status: ('A' for Active; 'I' for Inactive)
REMARK    1  A    between atoms: C_14  and  C_19
REMARK    2  A    between atoms: C_16  and  C_20
REMARK    3  A    between atoms: C_29  and  C_30
REMARK                            x       y       z     vdW  Elec       q    Type
REMARK                         _______ _______ _______ _____ _____    ______ ____
ROOT
ATOM      1  O   UNL     1      16.482  -3.022  22.781  0.00  0.00    -0.268 OA
ATOM      2  O   UNL     1      16.874  -6.222  26.700  0.00  0.00    -0.270 OA
ATOM      3  N   UNL     1      19.054  -5.576  26.158  0.00  0.00    -0.297 N 
ATOM      4  N   UNL     1      18.508  -3.475  23.866  0.00  0.00    -0.311 N 
ATOM      7  C   UNL     1      19.605  -5.791  23.748  0.00  0.00    +0.027 C 
ATOM      8  C   UNL     1      20.646  -4.001  25.077  0.00  0.00    +0.054 C 
ATOM      9  C   UNL     1      20.901  -5.028  23.973  0.00  0.00    +0.018 C 
ATOM     10  C   UNL     1      19.167  -6.506  25.037  0.00  0.00    +0.113 C 
ATOM     11  C   UNL     1      18.543  -4.809  23.248  0.00  0.00    +0.130 C 
ATOM     12  C   UNL     1      20.238  -4.731  26.376  0.00  0.00    +0.117 C 
ATOM     13  C   UNL     1      19.559  -3.001  24.677  0.00  0.00    +0.034 A 
ATOM     14  C   UNL     1      19.561  -1.710  25.098  0.00  0.00    +0.004 A 
ATOM     15  C   UNL     1      17.419  -2.666  23.496  0.00  0.00    +0.252 A 
ATOM     16  C   UNL     1      17.862  -5.513  26.885  0.00  0.00    +0.247 C 
ATOM     17  C   UNL     1      18.452  -0.847  24.739  0.00  0.00    +0.015 A 
ATOM     18  C   UNL     1      17.426  -1.274  24.002  0.00  0.00    +0.071 A 
ENDROOT
BRANCH  14  19
ATOM      5  N   UNL     1      22.813  -0.095  26.044  0.00  0.00    -0.263 NA
ATOM     19  C   UNL     1      20.656  -1.163  25.928  0.00  0.00    +0.002 A 
ATOM     21  C   UNL     1      20.578  -1.194  27.312  0.00  0.00    +0.011 A 
ATOM     22  C   UNL     1      21.778  -0.611  25.343  0.00  0.00    +0.119 A 
ATOM     25  C   UNL     1      21.623  -0.673  28.066  0.00  0.00    +0.020 A 
ATOM     28  C   UNL     1      22.708  -0.139  27.390  0.00  0.00    +0.111 A 
ENDBRANCH  14  19
BRANCH  16  20
ATOM     20  C   UNL     1      17.751  -4.512  27.951  0.00  0.00    +0.037 A 
ATOM     23  C   UNL     1      17.931  -4.891  29.279  0.00  0.00    +0.014 A 
ATOM     24  C   UNL     1      17.467  -3.187  27.631  0.00  0.00    +0.014 A 
ATOM     26  C   UNL     1      17.826  -3.938  30.293  0.00  0.00    +0.019 A 
ATOM     27  C   UNL     1      17.363  -2.235  28.645  0.00  0.00    +0.019 A 
ATOM     29  C   UNL     1      17.543  -2.611  29.976  0.00  0.00    +0.052 A 
BRANCH  29  30
ATOM      6  N   UNL     1      17.344  -0.843  31.859  0.00  0.00    -0.191 NA
ATOM     30  C   UNL     1      17.433  -1.636  31.015  0.00  0.00    +0.099 C 
ENDBRANCH  29  30
ENDBRANCH  16  20
TORSDOF 3
ENDMDL
MODEL 7
REMARK VINA RESULT:      -5.6     14.498     17.001
REMARK  Name = 7051763
REMARK  3 active torsions:
REMARK  status: ('A' for Active; 'I' for Inactive)
REMARK    1  A    between atoms: C_14  and  C_19
REMARK    2  A    between atoms: C_16  and  C_20
REMARK    3  A    between atoms: C_29  and  C_30
REMARK                            x       y       z     vdW  Elec       q    Type
REMARK                         _______ _______ _______ _____ _____    ______ ____
ROOT
ATOM      1  O   UNL     1      17.757  10.726  20.475  0.00  0.00    -0.268 OA
ATOM      2  O   UNL     1      14.203  14.262  19.687  0.00  0.00    -0.270 OA
ATOM      3  N   UNL     1      13.316  12.250  18.894  0.00  0.00    -0.297 N 
ATOM      4  N   UNL     1      15.612  10.229  19.677  0.00  0.00    -0.311 N 
ATOM      7  C   UNL     1      14.826  11.011  17.363  0.00  0.00    +0.027 C 
ATOM      8  C   UNL     1      13.292   9.764  18.828  0.00  0.00    +0.054 C 
ATOM      9  C   UNL     1      13.906   9.802  17.428  0.00  0.00    +0.018 C 
ATOM     10  C   UNL     1      14.040  12.306  17.626  0.00  0.00    +0.113 C 
ATOM     11  C   UNL     1      15.959  10.814  18.374  0.00  0.00    +0.130 C 
ATOM     12  C   UNL     1      12.478  11.055  19.070  0.00  0.00    +0.117 C 
ATOM     13  C   UNL     1      14.364   9.614  19.909  0.00  0.00    +0.034 A 
ATOM     14  C   UNL     1      14.144   8.950  21.073  0.00  0.00    +0.004 A 
ATOM     15  C   UNL     1      16.646  10.218  20.630  0.00  0.00    +0.252 A 
ATOM     16  C   UNL     1      13.501  13.263  19.838  0.00  0.00    +0.247 C 
ATOM     17  C   UNL     1      15.186   8.921  22.081  0.00  0.00    +0.015 A 
ATOM     18  C   UNL     1      16.364   9.521  21.905  0.00  0.00    +0.071 A 
ENDROOT
BRANCH  14  19
ATOM      5  N   UNL     1      11.482   6.305  21.116  0.00  0.00    -0.263 NA
ATOM     19  C   UNL     1      12.860   8.268  21.349  0.00  0.00    +0.002 A 
ATOM     21  C   UNL     1      11.860   8.906  22.066  0.00  0.00    +0.011 A 
ATOM     22  C   UNL     1      12.631   6.983  20.898  0.00  0.00    +0.119 A 
ATOM     25  C   UNL     1      10.664   8.240  22.309  0.00  0.00    +0.020 A 
ATOM     28  C   UNL     1      10.527   6.953  21.817  0.00  0.00    +0.111 A 
ENDBRANCH  14  19
BRANCH  16  20
ATOM     20  C   UNL     1      12.825  13.137  21.134  0.00  0.00    +0.037 A 
ATOM     23  C   UNL     1      13.453  12.467  22.181  0.00  0.00    +0.014 A 
ATOM     24  C   UNL     1      11.559  13.688  21.311  0.00  0.00    +0.014 A 
ATOM     26  C   UNL     1      12.811  12.348  23.414  0.00  0.00    +0.019 A 
ATOM     27  C   UNL     1      10.917  13.570  22.544  0.00  0.00    +0.019 A 
ATOM     29  C   UNL     1      11.543  12.900  23.595  0.00  0.00    +0.052 A 
BRANCH  29  30
ATOM      6  N   UNL     1      10.348  12.676  25.883  0.00  0.00    -0.191 NA
ATOM     30  C   UNL     1      10.884  12.776  24.857  0.00  0.00    +0.099 C 
ENDBRANCH  29  30
ENDBRANCH  16  20
TORSDOF 3
ENDMDL
MODEL 8
REMARK VINA RESULT:      -5.4     15.812     19.589
REMARK  Name = 7051763
REMARK  3 active torsions:
REMARK  status: ('A' for Active; 'I' for Inactive)
REMARK    1  A    between atoms: C_14  and  C_19
REMARK    2  A    between atoms: C_16  and  C_20
REMARK    3  A    between atoms: C_29  and  C_30
REMARK                            x       y       z     vdW  Elec       q    Type
REMARK                         _______ _______ _______ _____ _____    ______ ____
ROOT
ATOM      1  O   UNL     1      12.767  -6.044  -6.475  0.00  0.00    -0.268 OA
ATOM      2  O   UNL     1      16.629  -9.155  -7.554  0.00  0.00    -0.270 OA
ATOM      3  N   UNL     1      17.578  -7.077  -7.057  0.00  0.00    -0.297 N 
ATOM      4  N   UNL     1      15.014  -5.423  -6.245  0.00  0.00    -0.311 N 
ATOM      7  C   UNL     1      16.554  -5.177  -8.282  0.00  0.00    +0.027 C 
ATOM      8  C   UNL     1      17.444  -4.823  -6.016  0.00  0.00    +0.054 C 
ATOM      9  C   UNL     1      17.316  -4.197  -7.405  0.00  0.00    +0.018 C 
ATOM     10  C   UNL     1      17.305  -6.516  -8.379  0.00  0.00    +0.113 C 
ATOM     11  C   UNL     1      15.146  -5.350  -7.707  0.00  0.00    +0.130 C 
ATOM     12  C   UNL     1      18.227  -6.151  -6.119  0.00  0.00    +0.117 C 
ATOM     13  C   UNL     1      16.074  -5.074  -5.383  0.00  0.00    +0.034 A 
ATOM     14  C   UNL     1      15.862  -5.004  -4.043  0.00  0.00    +0.004 A 
ATOM     15  C   UNL     1      13.731  -5.746  -5.769  0.00  0.00    +0.252 A 
ATOM     16  C   UNL     1      17.172  -8.382  -6.766  0.00  0.00    +0.247 C 
ATOM     17  C   UNL     1      14.552  -5.334  -3.516  0.00  0.00    +0.015 A 
ATOM     18  C   UNL     1      13.539  -5.700  -4.301  0.00  0.00    +0.071 A 
ENDROOT
BRANCH  14  19
ATOM      5  N   UNL     1      18.135  -2.869  -1.957  0.00  0.00    -0.263 NA
ATOM     19  C   UNL     1      16.936  -4.617  -3.104  0.00  0.00    +0.002 A 
ATOM     21  C   UNL     1      17.733  -5.580  -2.505  0.00  0.00    +0.011 A 
ATOM     22  C   UNL     1      17.170  -3.289  -2.805  0.00  0.00    +0.119 A 
ATOM     25  C   UNL     1      18.736  -5.186  -1.626  0.00  0.00    +0.020 A 
ATOM     28  C   UNL     1      18.894  -3.831  -1.388  0.00  0.00    +0.111 A 
ENDBRANCH  14  19
BRANCH  16  20
ATOM     20  C   UNL     1      17.386  -8.889  -5.406  0.00  0.00    +0.037 A 
ATOM     23  C   UNL     1      16.472  -8.583  -4.401  0.00  0.00    +0.014 A 
ATOM     24  C   UNL     1      18.500  -9.674  -5.127  0.00  0.00    +0.014 A 
ATOM     26  C   UNL     1      16.675  -9.066  -3.108  0.00  0.00    +0.019 A 
ATOM     27  C   UNL     1      18.703 -10.158  -3.834  0.00  0.00    +0.019 A 
ATOM     29  C   UNL     1      17.790  -9.854  -2.825  0.00  0.00    +0.052 A 
BRANCH  29  30
ATOM      6  N   UNL     1      18.168 -10.748  -0.423  0.00  0.00    -0.191 NA
ATOM     30  C   UNL     1      17.998 -10.346  -1.500  0.00  0.00    +0.099 C 
ENDBRANCH  29  30
ENDBRANCH  16  20
TORSDOF 3
ENDMDL
MODEL 9
REMARK VINA RESULT:      -5.4     22.438     26.045
REMARK  Name = 7051763
REMARK  3 active torsions:
REMARK  status: ('A' for Active; 'I' for Inactive)
REMARK    1  A    between atoms: C_14  and  C_19
REMARK    2  A    between atoms: C_16  and  C_20
REMARK    3  A    between atoms: C_29  and  C_30
REMARK                            x       y       z     vdW  Elec       q    Type
REMARK                         _______ _______ _______ _____ _____    ______ ____
ROOT
ATOM      1  O   UNL     1      19.840  -5.055  21.702  0.00  0.00    -0.268 OA
ATOM      2  O   UNL     1      20.495  -0.992  24.671  0.00  0.00    -0.270 OA
ATOM      3  N   UNL     1      18.297  -1.710  25.015  0.00  0.00    -0.297 N 
ATOM      4  N   UNL     1      18.229  -4.315  23.232  0.00  0.00    -0.311 N 
ATOM      7  C   UNL     1      17.013  -2.076  22.923  0.00  0.00    +0.027 C 
ATOM      8  C   UNL     1      16.545  -3.470  24.896  0.00  0.00    +0.054 C 
ATOM      9  C   UNL     1      15.899  -2.738  23.719  0.00  0.00    +0.018 C 
ATOM     10  C   UNL     1      17.787  -1.078  23.800  0.00  0.00    +0.113 C 
ATOM     11  C   UNL     1      17.924  -3.170  22.360  0.00  0.00    +0.130 C 
ATOM     12  C   UNL     1      17.292  -2.454  25.788  0.00  0.00    +0.117 C 
ATOM     13  C   UNL     1      17.511  -4.557  24.421  0.00  0.00    +0.034 A 
ATOM     14  C   UNL     1      17.717  -5.708  25.113  0.00  0.00    +0.004 A 
ATOM     15  C   UNL     1      19.195  -5.209  22.739  0.00  0.00    +0.252 A 
ATOM     16  C   UNL     1      19.657  -1.617  25.320  0.00  0.00    +0.247 C 
ATOM     17  C   UNL     1      18.710  -6.652  24.637  0.00  0.00    +0.015 A 
ATOM     18  C   UNL     1      19.428  -6.436  23.535  0.00  0.00    +0.071 A 
ENDROOT
BRANCH  14  19
ATOM      5  N   UNL     1      16.822  -5.880  28.753  0.00  0.00    -0.263 NA
ATOM     19  C   UNL     1      16.970  -6.016  26.351  0.00  0.00    +0.002 A 
ATOM     21  C   UNL     1      15.766  -6.702  26.299  0.00  0.00    +0.011 A 
ATOM     22  C   UNL     1      17.454  -5.629  27.584  0.00  0.00    +0.119 A 
ATOM     25  C   UNL     1      15.086  -6.979  27.479  0.00  0.00    +0.020 A 
ATOM     28  C   UNL     1      15.651  -6.549  28.669  0.00  0.00    +0.111 A 
ENDBRANCH  14  19
BRANCH  16  20
ATOM     20  C   UNL     1      20.154  -2.331  26.502  0.00  0.00    +0.037 A 
ATOM     23  C   UNL     1      20.236  -1.672  27.726  0.00  0.00    +0.014 A 
ATOM     24  C   UNL     1      20.539  -3.664  26.394  0.00  0.00    +0.014 A 
ATOM     26  C   UNL     1      20.708  -2.351  28.850  0.00  0.00    +0.019 A 
ATOM     27  C   UNL     1      21.009  -4.344  27.518  0.00  0.00    +0.019 A 
ATOM     29  C   UNL     1      21.094  -3.687  28.745  0.00  0.00    +0.052 A 
BRANCH  29  30
ATOM      6  N   UNL     1      21.972  -4.946  30.833  0.00  0.00    -0.191 NA
ATOM     30  C   UNL     1      21.578  -4.382  29.896  0.00  0.00    +0.099 C 
ENDBRANCH  29  30
ENDBRANCH  16  20
TORSDOF 3
ENDMDL
MODEL 10
REMARK VINA RESULT:      -5.2     24.528     27.366
REMARK  Name = 7051763
REMARK  3 active torsions:
REMARK  status: ('A' for Active; 'I' for Inactive)
REMARK    1  A    between atoms: C_14  and  C_19
REMARK    2  A    between atoms: C_16  and  C_20
REMARK    3  A    between atoms: C_29  and  C_30
REMARK                            x       y       z     vdW  Elec       q    Type
REMARK                         _______ _______ _______ _____ _____    ______ ____
ROOT
ATOM      1  O   UNL     1      -4.428 -15.559  11.926  0.00  0.00    -0.268 OA
ATOM      2  O   UNL     1      -1.753 -12.314  14.767  0.00  0.00    -0.270 OA
ATOM      3  N   UNL     1      -3.226 -11.017  13.497  0.00  0.00    -0.297 N 
ATOM      4  N   UNL     1      -4.869 -13.260  12.002  0.00  0.00    -0.311 N 
ATOM      7  C   UNL     1      -3.206 -11.542  11.072  0.00  0.00    +0.027 C 
ATOM      8  C   UNL     1      -5.293 -10.786  12.134  0.00  0.00    +0.054 C 
ATOM      9  C   UNL     1      -4.439 -10.674  10.871  0.00  0.00    +0.018 C 
ATOM     10  C   UNL     1      -2.401 -11.065  12.293  0.00  0.00    +0.113 C 
ATOM     11  C   UNL     1      -3.655 -12.998  11.215  0.00  0.00    +0.130 C 
ATOM     12  C   UNL     1      -4.486 -10.275  13.349  0.00  0.00    +0.117 C 
ATOM     13  C   UNL     1      -5.750 -12.225  12.380  0.00  0.00    +0.034 A 
ATOM     14  C   UNL     1      -6.936 -12.527  12.968  0.00  0.00    +0.004 A 
ATOM     15  C   UNL     1      -5.152 -14.616  12.245  0.00  0.00    +0.252 A 
ATOM     16  C   UNL     1      -2.809 -11.695  14.646  0.00  0.00    +0.247 C 
ATOM     17  C   UNL     1      -7.260 -13.915  13.238  0.00  0.00    +0.015 A 
ATOM     18  C   UNL     1      -6.434 -14.913  12.924  0.00  0.00    +0.071 A 
ENDROOT
BRANCH  14  19
ATOM      5  N   UNL     1      -8.773 -10.015  15.064  0.00  0.00    -0.263 NA
ATOM     19  C   UNL     1      -7.902 -11.477  13.358  0.00  0.00    +0.002 A 
ATOM     21  C   UNL     1      -8.812 -10.976  12.440  0.00  0.00    +0.011 A 
ATOM     22  C   UNL     1      -7.917 -10.974  14.643  0.00  0.00    +0.119 A 
ATOM     25  C   UNL     1      -9.708  -9.990  12.836  0.00  0.00    +0.020 A 
ATOM     28  C   UNL     1      -9.648  -9.547  14.147  0.00  0.00    +0.111 A 
ENDBRANCH  14  19
BRANCH  16  20
ATOM     20  C   UNL     1      -3.698 -11.696  15.813  0.00  0.00    +0.037 A 
ATOM     23  C   UNL     1      -3.611 -10.671  16.751  0.00  0.00    +0.014 A 
ATOM     24  C   UNL     1      -4.626 -12.721  15.976  0.00  0.00    +0.014 A 
ATOM     26  C   UNL     1      -4.457 -10.672  17.861  0.00  0.00    +0.019 A 
ATOM     27  C   UNL     1      -5.472 -12.722  17.084  0.00  0.00    +0.019 A 
ATOM     29  C   UNL     1      -5.388 -11.697  18.026  0.00  0.00    +0.052 A 
BRANCH  29  30
ATOM      6  N   UNL     1      -6.957 -11.699  20.088  0.00  0.00    -0.191 NA
ATOM     30  C   UNL     1      -6.253 -11.699  19.164  0.00  0.00    +0.099 C 
ENDBRANCH  29  30
ENDBRANCH  16  20
TORSDOF 3
ENDMDL
