MODEL 1
REMARK VINA RESULT:      -7.3      0.000      0.000
REMARK  Name = 38030616
REMARK  12 active torsions:
REMARK  status: ('A' for Active; 'I' for Inactive)
REMARK    1  A    between atoms: O_1  and  C_23
REMARK    2  A    between atoms: N_3  and  C_10
REMARK    3  A    between atoms: C_6  and  C_11
REMARK    4  A    between atoms: C_7  and  C_10
REMARK    5  A    between atoms: C_9  and  C_17
REMARK    6  A    between atoms: C_11  and  C_20
REMARK    7  A    between atoms: C_11  and  C_21
REMARK    8  A    between atoms: C_13  and  C_22
REMARK    9  A    between atoms: C_16  and  C_23
REMARK   10  A    between atoms: C_17  and  C_24
REMARK   11  A    between atoms: C_25  and  C_26
REMARK   12  A    between atoms: C_31  and  C_32
REMARK                            x       y       z     vdW  Elec       q    Type
REMARK                         _______ _______ _______ _____ _____    ______ ____
ROOT
ATOM      6  C   UNL     1      13.716   9.550  18.046  0.00  0.00    +0.000 C 
ATOM      7  C   UNL     1      12.558  10.084  18.920  0.00  0.00    +0.029 C 
ATOM      8  C   UNL     1      14.694   8.725  18.893  0.00  0.00    +0.012 C 
ATOM      9  C   UNL     1      14.023   7.546  19.629  0.00  0.00    +0.024 C 
ATOM     12  C   UNL     1      12.018   9.040  19.864  0.00  0.00    -0.023 C 
ATOM     13  C   UNL     1      12.650   7.896  20.185  0.00  0.00    -0.073 C 
ATOM     22  C   UNL     1      11.980   6.883  21.070  0.00  0.00    +0.039 C 
ENDROOT
BRANCH   6  11
ATOM     11  C   UNL     1      13.189   8.737  16.856  0.00  0.00    -0.013 C 
ATOM     20  C   UNL     1      14.239   8.666  15.752  0.00  0.00    +0.007 C 
ATOM     21  C   UNL     1      11.892   9.342  16.329  0.00  0.00    +0.007 C 
ENDBRANCH   6  11
BRANCH   7  10
ATOM     10  C   UNL     1      12.977  11.320  19.723  0.00  0.00    +0.092 C 
BRANCH  10   3
ATOM      3  N   UNL     1      12.504  11.224  21.103  0.00  0.00    -0.302 NA
ATOM     14  C   UNL     1      11.547  12.300  21.394  0.00  0.00    +0.085 C 
ATOM     15  C   UNL     1      13.636  11.255  22.039  0.00  0.00    +0.085 C 
ATOM     16  C   UNL     1      12.134  12.176  23.851  0.00  0.00    +0.017 C 
ATOM     18  C   UNL     1      11.000  12.183  22.819  0.00  0.00    +0.021 C 
ATOM     19  C   UNL     1      13.161  11.100  23.485  0.00  0.00    +0.021 C 
BRANCH  16  23
ATOM     23  C   UNL     1      11.590  11.958  25.261  0.00  0.00    +0.159 C 
BRANCH  23   1
ATOM      1  O   UNL     1      11.754  13.157  25.996  0.00  0.00    -0.395 OA
ATOM     33  H   UNL     1      12.373  12.965  26.721  0.00  0.00    +0.209 HD
ENDBRANCH  23   1
ENDBRANCH  16  23
ENDBRANCH  10   3
ENDBRANCH   7  10
BRANCH   9  17
ATOM     17  C   UNL     1      14.986   7.027  20.704  0.00  0.00    +0.105 C 
BRANCH  17  24
ATOM      2  O   UNL     1      17.378   6.565  20.836  0.00  0.00    -0.420 OA
ATOM      4  N   UNL     1      16.419   5.895  18.929  0.00  0.00    -0.112 NA
ATOM      5  N   UNL     1      17.762   5.574  18.867  0.00  0.00    -0.107 NA
ATOM     24  C   UNL     1      16.240   6.471  20.094  0.00  0.00    +0.218 A 
ATOM     25  C   UNL     1      18.282   5.983  20.001  0.00  0.00    +0.248 A 
BRANCH  25  26
ATOM     26  C   UNL     1      19.630   5.912  20.486  0.00  0.00    +0.038 A 
ATOM     27  C   UNL     1      20.221   7.033  21.068  0.00  0.00    +0.013 A 
ATOM     28  C   UNL     1      20.348   4.721  20.378  0.00  0.00    +0.013 A 
ATOM     29  C   UNL     1      21.532   6.965  21.541  0.00  0.00    +0.004 A 
ATOM     30  C   UNL     1      21.659   4.652  20.851  0.00  0.00    +0.004 A 
ATOM     31  C   UNL     1      22.250   5.773  21.432  0.00  0.00    -0.050 A 
ATOM     32  C   UNL     1      23.651   5.700  21.938  0.00  0.00    +0.044 C 
ENDBRANCH  25  26
ENDBRANCH  17  24
ENDBRANCH   9  17
TORSDOF 8
ENDMDL
MODEL 2
REMARK VINA RESULT:      -7.2     26.662     30.065
REMARK  Name = 38030616
REMARK  12 active torsions:
REMARK  status: ('A' for Active; 'I' for Inactive)
REMARK    1  A    between atoms: O_1  and  C_23
REMARK    2  A    between atoms: N_3  and  C_10
REMARK    3  A    between atoms: C_6  and  C_11
REMARK    4  A    between atoms: C_7  and  C_10
REMARK    5  A    between atoms: C_9  and  C_17
REMARK    6  A    between atoms: C_11  and  C_20
REMARK    7  A    between atoms: C_11  and  C_21
REMARK    8  A    between atoms: C_13  and  C_22
REMARK    9  A    between atoms: C_16  and  C_23
REMARK   10  A    between atoms: C_17  and  C_24
REMARK   11  A    between atoms: C_25  and  C_26
REMARK   12  A    between atoms: C_31  and  C_32
REMARK                            x       y       z     vdW  Elec       q    Type
REMARK                         _______ _______ _______ _____ _____    ______ ____
ROOT
ATOM      6  C   UNL     1      -5.383 -10.473  10.704  0.00  0.00    +0.000 C 
ATOM      7  C   UNL     1      -4.640 -10.098   9.401  0.00  0.00    +0.029 C 
ATOM      8  C   UNL     1      -4.430 -11.169  11.686  0.00  0.00    +0.012 C 
ATOM      9  C   UNL     1      -3.184 -10.326  12.030  0.00  0.00    +0.024 C 
ATOM     12  C   UNL     1      -3.282  -9.498   9.662  0.00  0.00    -0.023 C 
ATOM     13  C   UNL     1      -2.620  -9.579  10.831  0.00  0.00    -0.073 C 
ATOM     22  C   UNL     1      -1.307  -8.868  11.009  0.00  0.00    +0.039 C 
ENDROOT
BRANCH   6  11
ATOM     11  C   UNL     1      -6.041  -9.244  11.346  0.00  0.00    -0.013 C 
ATOM     20  C   UNL     1      -6.472  -9.557  12.775  0.00  0.00    +0.007 C 
ATOM     21  C   UNL     1      -7.231  -8.780  10.513  0.00  0.00    +0.007 C 
ENDBRANCH   6  11
BRANCH   7  10
ATOM     10  C   UNL     1      -4.488 -11.304   8.469  0.00  0.00    +0.092 C 
BRANCH  10   3
ATOM      3  N   UNL     1      -5.001 -10.992   7.135  0.00  0.00    -0.302 NA
ATOM     14  C   UNL     1      -5.964  -9.884   7.200  0.00  0.00    +0.085 C 
ATOM     15  C   UNL     1      -5.606 -12.185   6.525  0.00  0.00    +0.085 C 
ATOM     16  C   UNL     1      -7.088 -10.719   5.095  0.00  0.00    +0.017 C 
ATOM     18  C   UNL     1      -6.470  -9.510   5.805  0.00  0.00    +0.021 C 
ATOM     19  C   UNL     1      -6.098 -11.889   5.107  0.00  0.00    +0.021 C 
BRANCH  16  23
ATOM     23  C   UNL     1      -7.500 -10.365   3.668  0.00  0.00    +0.159 C 
BRANCH  23   1
ATOM      1  O   UNL     1      -6.813 -11.223   2.776  0.00  0.00    -0.395 OA
ATOM     33  H   UNL     1      -7.076 -12.133   2.994  0.00  0.00    +0.209 HD
ENDBRANCH  23   1
ENDBRANCH  16  23
ENDBRANCH  10   3
ENDBRANCH   7  10
BRANCH   9  17
ATOM     17  C   UNL     1      -2.149 -11.235  12.705  0.00  0.00    +0.105 C 
BRANCH  17  24
ATOM      2  O   UNL     1      -3.414 -11.118  14.789  0.00  0.00    -0.420 OA
ATOM      4  N   UNL     1      -1.199 -10.946  15.052  0.00  0.00    -0.112 NA
ATOM      5  N   UNL     1      -1.785 -10.864  16.301  0.00  0.00    -0.107 NA
ATOM     24  C   UNL     1      -2.187 -11.094  14.200  0.00  0.00    +0.218 A 
ATOM     25  C   UNL     1      -3.078 -10.969  16.099  0.00  0.00    +0.248 A 
BRANCH  25  26
ATOM     26  C   UNL     1      -4.170 -10.952  17.029  0.00  0.00    +0.038 A 
ATOM     27  C   UNL     1      -4.052 -11.608  18.254  0.00  0.00    +0.013 A 
ATOM     28  C   UNL     1      -5.348 -10.278  16.709  0.00  0.00    +0.013 A 
ATOM     29  C   UNL     1      -5.113 -11.591  19.160  0.00  0.00    +0.004 A 
ATOM     30  C   UNL     1      -6.410 -10.261  17.614  0.00  0.00    +0.004 A 
ATOM     31  C   UNL     1      -6.292 -10.917  18.839  0.00  0.00    -0.050 A 
ATOM     32  C   UNL     1      -7.427 -10.899  19.807  0.00  0.00    +0.044 C 
ENDBRANCH  25  26
ENDBRANCH  17  24
ENDBRANCH   9  17
TORSDOF 8
ENDMDL
MODEL 3
REMARK VINA RESULT:      -7.0     26.379     30.270
REMARK  Name = 38030616
REMARK  12 active torsions:
REMARK  status: ('A' for Active; 'I' for Inactive)
REMARK    1  A    between atoms: O_1  and  C_23
REMARK    2  A    between atoms: N_3  and  C_10
REMARK    3  A    between atoms: C_6  and  C_11
REMARK    4  A    between atoms: C_7  and  C_10
REMARK    5  A    between atoms: C_9  and  C_17
REMARK    6  A    between atoms: C_11  and  C_20
REMARK    7  A    between atoms: C_11  and  C_21
REMARK    8  A    between atoms: C_13  and  C_22
REMARK    9  A    between atoms: C_16  and  C_23
REMARK   10  A    between atoms: C_17  and  C_24
REMARK   11  A    between atoms: C_25  and  C_26
REMARK   12  A    between atoms: C_31  and  C_32
REMARK                            x       y       z     vdW  Elec       q    Type
REMARK                         _______ _______ _______ _____ _____    ______ ____
ROOT
ATOM      6  C   UNL     1     -13.526  10.404  21.777  0.00  0.00    +0.000 C 
ATOM      7  C   UNL     1     -12.125  10.314  21.128  0.00  0.00    +0.029 C 
ATOM      8  C   UNL     1     -14.483   9.390  21.136  0.00  0.00    +0.012 C 
ATOM      9  C   UNL     1     -13.974   7.935  21.213  0.00  0.00    +0.024 C 
ATOM     12  C   UNL     1     -11.669   8.890  20.931  0.00  0.00    -0.023 C 
ATOM     13  C   UNL     1     -12.476   7.814  20.977  0.00  0.00    -0.073 C 
ATOM     22  C   UNL     1     -11.900   6.431  20.854  0.00  0.00    +0.039 C 
ENDROOT
BRANCH   6  11
ATOM     11  C   UNL     1     -13.450  10.211  23.298  0.00  0.00    -0.013 C 
ATOM     20  C   UNL     1     -14.806  10.490  23.938  0.00  0.00    +0.007 C 
ATOM     21  C   UNL     1     -12.374  11.111  23.897  0.00  0.00    +0.007 C 
ENDBRANCH   6  11
BRANCH   7  10
ATOM     10  C   UNL     1     -12.076  11.048  19.784  0.00  0.00    +0.092 C 
BRANCH  10   3
ATOM      3  N   UNL     1     -11.703  10.131  18.708  0.00  0.00    -0.302 NA
ATOM     14  C   UNL     1     -10.507  10.620  18.008  0.00  0.00    +0.085 C 
ATOM     15  C   UNL     1     -12.824   9.947  17.777  0.00  0.00    +0.085 C 
ATOM     16  C   UNL     1     -11.207   9.379  15.918  0.00  0.00    +0.017 C 
ATOM     18  C   UNL     1     -10.071   9.643  16.912  0.00  0.00    +0.021 C 
ATOM     19  C   UNL     1     -12.467   8.947  16.675  0.00  0.00    +0.021 C 
BRANCH  16  23
ATOM     23  C   UNL     1     -10.800   8.329  14.887  0.00  0.00    +0.159 C 
BRANCH  23   1
ATOM      1  O   UNL     1     -10.113   7.287  15.554  0.00  0.00    -0.395 OA
ATOM     33  H   UNL     1      -9.672   7.682  16.326  0.00  0.00    +0.209 HD
ENDBRANCH  23   1
ENDBRANCH  16  23
ENDBRANCH  10   3
ENDBRANCH   7  10
BRANCH   9  17
ATOM     17  C   UNL     1     -14.800   7.075  20.248  0.00  0.00    +0.105 C 
BRANCH  17  24
ATOM      2  O   UNL     1     -15.497   6.027  22.338  0.00  0.00    -0.420 OA
ATOM      4  N   UNL     1     -16.281   5.018  20.501  0.00  0.00    -0.112 NA
ATOM      5  N   UNL     1     -16.749   4.325  21.602  0.00  0.00    -0.107 NA
ATOM     24  C   UNL     1     -15.555   6.002  20.978  0.00  0.00    +0.218 A 
ATOM     25  C   UNL     1     -16.267   4.949  22.651  0.00  0.00    +0.248 A 
BRANCH  25  26
ATOM     26  C   UNL     1     -16.425   4.675  24.050  0.00  0.00    +0.038 A 
ATOM     27  C   UNL     1     -17.197   5.523  24.844  0.00  0.00    +0.013 A 
ATOM     28  C   UNL     1     -15.806   3.561  24.617  0.00  0.00    +0.013 A 
ATOM     29  C   UNL     1     -17.351   5.258  26.205  0.00  0.00    +0.004 A 
ATOM     30  C   UNL     1     -15.960   3.295  25.978  0.00  0.00    +0.004 A 
ATOM     31  C   UNL     1     -16.732   4.143  26.772  0.00  0.00    -0.050 A 
ATOM     32  C   UNL     1     -16.897   3.859  28.226  0.00  0.00    +0.044 C 
ENDBRANCH  25  26
ENDBRANCH  17  24
ENDBRANCH   9  17
TORSDOF 8
ENDMDL
MODEL 4
REMARK VINA RESULT:      -7.0     26.849     30.031
REMARK  Name = 38030616
REMARK  12 active torsions:
REMARK  status: ('A' for Active; 'I' for Inactive)
REMARK    1  A    between atoms: O_1  and  C_23
REMARK    2  A    between atoms: N_3  and  C_10
REMARK    3  A    between atoms: C_6  and  C_11
REMARK    4  A    between atoms: C_7  and  C_10
REMARK    5  A    between atoms: C_9  and  C_17
REMARK    6  A    between atoms: C_11  and  C_20
REMARK    7  A    between atoms: C_11  and  C_21
REMARK    8  A    between atoms: C_13  and  C_22
REMARK    9  A    between atoms: C_16  and  C_23
REMARK   10  A    between atoms: C_17  and  C_24
REMARK   11  A    between atoms: C_25  and  C_26
REMARK   12  A    between atoms: C_31  and  C_32
REMARK                            x       y       z     vdW  Elec       q    Type
REMARK                         _______ _______ _______ _____ _____    ______ ____
ROOT
ATOM      6  C   UNL     1      -5.200 -11.946  15.394  0.00  0.00    +0.000 C 
ATOM      7  C   UNL     1      -4.888 -10.879  16.468  0.00  0.00    +0.029 C 
ATOM      8  C   UNL     1      -4.520 -11.587  14.066  0.00  0.00    +0.012 C 
ATOM      9  C   UNL     1      -2.991 -11.413  14.188  0.00  0.00    +0.024 C 
ATOM     12  C   UNL     1      -3.438 -10.465  16.470  0.00  0.00    -0.023 C 
ATOM     13  C   UNL     1      -2.573 -10.704  15.467  0.00  0.00    -0.073 C 
ATOM     22  C   UNL     1      -1.125 -10.324  15.610  0.00  0.00    +0.039 C 
ENDROOT
BRANCH   6  11
ATOM     11  C   UNL     1      -4.793 -13.349  15.865  0.00  0.00    -0.013 C 
ATOM     20  C   UNL     1      -5.128 -14.386  14.799  0.00  0.00    +0.007 C 
ATOM     21  C   UNL     1      -5.478 -13.689  17.184  0.00  0.00    +0.007 C 
ENDBRANCH   6  11
BRANCH   7  10
ATOM     10  C   UNL     1      -5.767  -9.635  16.303  0.00  0.00    +0.092 C 
BRANCH  10   3
ATOM      3  N   UNL     1      -6.918  -9.692  17.204  0.00  0.00    -0.302 NA
ATOM     14  C   UNL     1      -6.641 -10.591  18.334  0.00  0.00    +0.085 C 
ATOM     15  C   UNL     1      -8.122 -10.112  16.475  0.00  0.00    +0.085 C 
ATOM     16  C   UNL     1      -9.117 -11.022  18.614  0.00  0.00    +0.017 C 
ATOM     18  C   UNL     1      -7.815 -10.620  19.316  0.00  0.00    +0.021 C 
ATOM     19  C   UNL     1      -9.346 -10.124  17.394  0.00  0.00    +0.021 C 
BRANCH  16  23
ATOM     23  C   UNL     1     -10.301 -10.952  19.575  0.00  0.00    +0.159 C 
BRANCH  23   1
ATOM      1  O   UNL     1      -9.917 -10.194  20.707  0.00  0.00    -0.395 OA
ATOM     33  H   UNL     1     -10.507 -10.451  21.437  0.00  0.00    +0.209 HD
ENDBRANCH  23   1
ENDBRANCH  16  23
ENDBRANCH  10   3
ENDBRANCH   7  10
BRANCH   9  17
ATOM     17  C   UNL     1      -2.474 -10.715  12.924  0.00  0.00    +0.105 C 
BRANCH  17  24
ATOM      2  O   UNL     1      -3.664 -10.534  10.801  0.00  0.00    -0.420 OA
ATOM      4  N   UNL     1      -2.988 -12.608  11.298  0.00  0.00    -0.112 NA
ATOM      5  N   UNL     1      -3.642 -12.652  10.081  0.00  0.00    -0.107 NA
ATOM     24  C   UNL     1      -3.025 -11.353  11.681  0.00  0.00    +0.218 A 
ATOM     25  C   UNL     1      -4.020 -11.420   9.831  0.00  0.00    +0.248 A 
BRANCH  25  26
ATOM     26  C   UNL     1      -4.734 -10.874   8.713  0.00  0.00    +0.038 A 
ATOM     27  C   UNL     1      -5.550  -9.757   8.887  0.00  0.00    +0.013 A 
ATOM     28  C   UNL     1      -4.611 -11.460   7.454  0.00  0.00    +0.013 A 
ATOM     29  C   UNL     1      -6.245  -9.224   7.800  0.00  0.00    +0.004 A 
ATOM     30  C   UNL     1      -5.306 -10.928   6.366  0.00  0.00    +0.004 A 
ATOM     31  C   UNL     1      -6.122  -9.811   6.540  0.00  0.00    -0.050 A 
ATOM     32  C   UNL     1      -6.865  -9.242   5.378  0.00  0.00    +0.044 C 
ENDBRANCH  25  26
ENDBRANCH  17  24
ENDBRANCH   9  17
TORSDOF 8
ENDMDL
MODEL 5
REMARK VINA RESULT:      -6.8     26.677     30.277
REMARK  Name = 38030616
REMARK  12 active torsions:
REMARK  status: ('A' for Active; 'I' for Inactive)
REMARK    1  A    between atoms: O_1  and  C_23
REMARK    2  A    between atoms: N_3  and  C_10
REMARK    3  A    between atoms: C_6  and  C_11
REMARK    4  A    between atoms: C_7  and  C_10
REMARK    5  A    between atoms: C_9  and  C_17
REMARK    6  A    between atoms: C_11  and  C_20
REMARK    7  A    between atoms: C_11  and  C_21
REMARK    8  A    between atoms: C_13  and  C_22
REMARK    9  A    between atoms: C_16  and  C_23
REMARK   10  A    between atoms: C_17  and  C_24
REMARK   11  A    between atoms: C_25  and  C_26
REMARK   12  A    between atoms: C_31  and  C_32
REMARK                            x       y       z     vdW  Elec       q    Type
REMARK                         _______ _______ _______ _____ _____    ______ ____
ROOT
ATOM      6  C   UNL     1      -3.688 -10.546  15.397  0.00  0.00    +0.000 C 
ATOM      7  C   UNL     1      -4.728 -10.910  14.313  0.00  0.00    +0.029 C 
ATOM      8  C   UNL     1      -4.081 -11.160  16.748  0.00  0.00    +0.012 C 
ATOM      9  C   UNL     1      -4.252 -12.694  16.696  0.00  0.00    +0.024 C 
ATOM     12  C   UNL     1      -5.143 -12.359  14.372  0.00  0.00    -0.023 C 
ATOM     13  C   UNL     1      -4.929 -13.174  15.421  0.00  0.00    -0.073 C 
ATOM     22  C   UNL     1      -5.306 -14.627  15.340  0.00  0.00    +0.039 C 
ENDROOT
BRANCH   6  11
ATOM     11  C   UNL     1      -2.274 -10.975  14.982  0.00  0.00    -0.013 C 
ATOM     20  C   UNL     1      -1.244 -10.439  15.971  0.00  0.00    +0.007 C 
ATOM     21  C   UNL     1      -1.966 -10.496  13.567  0.00  0.00    +0.007 C 
ENDBRANCH   6  11
BRANCH   7  10
ATOM     10  C   UNL     1      -5.976 -10.026  14.404  0.00  0.00    +0.092 C 
BRANCH  10   3
ATOM      3  N   UNL     1      -6.286  -9.435  13.102  0.00  0.00    -0.302 NA
ATOM     14  C   UNL     1      -7.493 -10.051  12.534  0.00  0.00    +0.085 C 
ATOM     15  C   UNL     1      -5.142  -9.571  12.190  0.00  0.00    +0.085 C 
ATOM     16  C   UNL     1      -6.699  -9.484  10.200  0.00  0.00    +0.017 C 
ATOM     18  C   UNL     1      -7.863  -9.407  11.195  0.00  0.00    +0.021 C 
ATOM     19  C   UNL     1      -5.431  -8.910  10.841  0.00  0.00    +0.021 C 
BRANCH  16  23
ATOM     23  C   UNL     1      -7.038  -8.753   8.903  0.00  0.00    +0.159 C 
BRANCH  23   1
ATOM      1  O   UNL     1      -6.241  -7.585   8.825  0.00  0.00    -0.395 OA
ATOM     33  H   UNL     1      -6.459  -7.038   9.599  0.00  0.00    +0.209 HD
ENDBRANCH  23   1
ENDBRANCH  16  23
ENDBRANCH  10   3
ENDBRANCH   7  10
BRANCH   9  17
ATOM     17  C   UNL     1      -4.983 -13.148  17.966  0.00  0.00    +0.105 C 
BRANCH  17  24
ATOM      2  O   UNL     1      -6.853 -11.590  17.794  0.00  0.00    -0.420 OA
ATOM      4  N   UNL     1      -5.691 -11.419  19.698  0.00  0.00    -0.112 NA
ATOM      5  N   UNL     1      -6.710 -10.486  19.734  0.00  0.00    -0.107 NA
ATOM     24  C   UNL     1      -5.812 -12.040  18.548  0.00  0.00    +0.218 A 
ATOM     25  C   UNL     1      -7.362 -10.622  18.603  0.00  0.00    +0.248 A 
BRANCH  25  26
ATOM     26  C   UNL     1      -8.507  -9.920  18.099  0.00  0.00    +0.038 A 
ATOM     27  C   UNL     1      -8.352  -8.960  17.100  0.00  0.00    +0.013 A 
ATOM     28  C   UNL     1      -9.776 -10.200  18.607  0.00  0.00    +0.013 A 
ATOM     29  C   UNL     1      -9.465  -8.278  16.608  0.00  0.00    +0.004 A 
ATOM     30  C   UNL     1     -10.890  -9.519  18.115  0.00  0.00    +0.004 A 
ATOM     31  C   UNL     1     -10.734  -8.558  17.117  0.00  0.00    -0.050 A 
ATOM     32  C   UNL     1     -11.925  -7.829  16.591  0.00  0.00    +0.044 C 
ENDBRANCH  25  26
ENDBRANCH  17  24
ENDBRANCH   9  17
TORSDOF 8
ENDMDL
MODEL 6
REMARK VINA RESULT:      -6.7     28.670     32.542
REMARK  Name = 38030616
REMARK  12 active torsions:
REMARK  status: ('A' for Active; 'I' for Inactive)
REMARK    1  A    between atoms: O_1  and  C_23
REMARK    2  A    between atoms: N_3  and  C_10
REMARK    3  A    between atoms: C_6  and  C_11
REMARK    4  A    between atoms: C_7  and  C_10
REMARK    5  A    between atoms: C_9  and  C_17
REMARK    6  A    between atoms: C_11  and  C_20
REMARK    7  A    between atoms: C_11  and  C_21
REMARK    8  A    between atoms: C_13  and  C_22
REMARK    9  A    between atoms: C_16  and  C_23
REMARK   10  A    between atoms: C_17  and  C_24
REMARK   11  A    between atoms: C_25  and  C_26
REMARK   12  A    between atoms: C_31  and  C_32
REMARK                            x       y       z     vdW  Elec       q    Type
REMARK                         _______ _______ _______ _____ _____    ______ ____
ROOT
ATOM      6  C   UNL     1     -10.483  -9.058  17.781  0.00  0.00    +0.000 C 
ATOM      7  C   UNL     1      -9.440  -9.677  16.823  0.00  0.00    +0.029 C 
ATOM      8  C   UNL     1     -10.893  -7.660  17.300  0.00  0.00    +0.012 C 
ATOM      9  C   UNL     1     -11.449  -7.646  15.860  0.00  0.00    +0.024 C 
ATOM     12  C   UNL     1      -9.793  -9.470  15.371  0.00  0.00    -0.023 C 
ATOM     13  C   UNL     1     -10.695  -8.577  14.922  0.00  0.00    -0.073 C 
ATOM     22  C   UNL     1     -11.034  -8.515  13.459  0.00  0.00    +0.039 C 
ENDROOT
BRANCH   6  11
ATOM     11  C   UNL     1     -11.707  -9.971  17.941  0.00  0.00    -0.013 C 
ATOM     20  C   UNL     1     -12.492  -9.595  19.193  0.00  0.00    +0.007 C 
ATOM     21  C   UNL     1     -11.277 -11.434  17.992  0.00  0.00    +0.007 C 
ENDBRANCH   6  11
BRANCH   7  10
ATOM     10  C   UNL     1      -8.035  -9.125  17.083  0.00  0.00    +0.092 C 
BRANCH  10   3
ATOM      3  N   UNL     1      -7.135 -10.192  17.521  0.00  0.00    -0.302 NA
ATOM     14  C   UNL     1      -6.937 -10.133  18.976  0.00  0.00    +0.085 C 
ATOM     15  C   UNL     1      -5.852 -10.109  16.808  0.00  0.00    +0.085 C 
ATOM     16  C   UNL     1      -4.691 -11.269  18.731  0.00  0.00    +0.017 C 
ATOM     18  C   UNL     1      -6.040 -11.275  19.458  0.00  0.00    +0.021 C 
ATOM     19  C   UNL     1      -4.920 -11.251  17.216  0.00  0.00    +0.021 C 
BRANCH  16  23
ATOM     23  C   UNL     1      -3.841 -12.468  19.143  0.00  0.00    +0.159 C 
BRANCH  23   1
ATOM      1  O   UNL     1      -2.547 -12.005  19.485  0.00  0.00    -0.395 OA
ATOM     33  H   UNL     1      -2.048 -11.912  18.655  0.00  0.00    +0.209 HD
ENDBRANCH  23   1
ENDBRANCH  16  23
ENDBRANCH  10   3
ENDBRANCH   7  10
BRANCH   9  17
ATOM     17  C   UNL     1     -11.481  -6.196  15.360  0.00  0.00    +0.105 C 
BRANCH  17  24
ATOM      2  O   UNL     1     -12.683  -5.099  13.543  0.00  0.00    -0.420 OA
ATOM      4  N   UNL     1     -13.990  -6.274  14.927  0.00  0.00    -0.112 NA
ATOM      5  N   UNL     1     -14.795  -5.711  13.954  0.00  0.00    -0.107 NA
ATOM     24  C   UNL     1     -12.766  -5.890  14.647  0.00  0.00    +0.218 A 
ATOM     25  C   UNL     1     -13.991  -5.035  13.169  0.00  0.00    +0.248 A 
BRANCH  25  26
ATOM     26  C   UNL     1     -14.271  -4.253  11.999  0.00  0.00    +0.038 A 
ATOM     27  C   UNL     1     -15.097  -3.133  12.091  0.00  0.00    +0.013 A 
ATOM     28  C   UNL     1     -13.718  -4.613  10.771  0.00  0.00    +0.013 A 
ATOM     29  C   UNL     1     -15.369  -2.372  10.954  0.00  0.00    +0.004 A 
ATOM     30  C   UNL     1     -13.990  -3.853   9.633  0.00  0.00    +0.004 A 
ATOM     31  C   UNL     1     -14.816  -2.732   9.725  0.00  0.00    -0.050 A 
ATOM     32  C   UNL     1     -15.107  -1.919   8.509  0.00  0.00    +0.044 C 
ENDBRANCH  25  26
ENDBRANCH  17  24
ENDBRANCH   9  17
TORSDOF 8
ENDMDL
MODEL 7
REMARK VINA RESULT:      -6.7     27.011     30.788
REMARK  Name = 38030616
REMARK  12 active torsions:
REMARK  status: ('A' for Active; 'I' for Inactive)
REMARK    1  A    between atoms: O_1  and  C_23
REMARK    2  A    between atoms: N_3  and  C_10
REMARK    3  A    between atoms: C_6  and  C_11
REMARK    4  A    between atoms: C_7  and  C_10
REMARK    5  A    between atoms: C_9  and  C_17
REMARK    6  A    between atoms: C_11  and  C_20
REMARK    7  A    between atoms: C_11  and  C_21
REMARK    8  A    between atoms: C_13  and  C_22
REMARK    9  A    between atoms: C_16  and  C_23
REMARK   10  A    between atoms: C_17  and  C_24
REMARK   11  A    between atoms: C_25  and  C_26
REMARK   12  A    between atoms: C_31  and  C_32
REMARK                            x       y       z     vdW  Elec       q    Type
REMARK                         _______ _______ _______ _____ _____    ______ ____
ROOT
ATOM      6  C   UNL     1      -3.617 -10.574  15.314  0.00  0.00    +0.000 C 
ATOM      7  C   UNL     1      -4.632 -11.421  14.512  0.00  0.00    +0.029 C 
ATOM      8  C   UNL     1      -4.204 -10.176  16.675  0.00  0.00    +0.012 C 
ATOM      9  C   UNL     1      -4.649 -11.385  17.527  0.00  0.00    +0.024 C 
ATOM     12  C   UNL     1      -5.308 -12.469  15.359  0.00  0.00    -0.023 C 
ATOM     13  C   UNL     1      -5.317 -12.478  16.705  0.00  0.00    -0.073 C 
ATOM     22  C   UNL     1      -5.948 -13.621  17.451  0.00  0.00    +0.039 C 
ENDROOT
BRANCH   6  11
ATOM     11  C   UNL     1      -2.281 -11.311  15.480  0.00  0.00    -0.013 C 
ATOM     20  C   UNL     1      -1.169 -10.327  15.826  0.00  0.00    +0.007 C 
ATOM     21  C   UNL     1      -1.940 -12.088  14.211  0.00  0.00    +0.007 C 
ENDBRANCH   6  11
BRANCH   7  10
ATOM     10  C   UNL     1      -5.700 -10.545  13.848  0.00  0.00    +0.092 C 
BRANCH  10   3
ATOM      3  N   UNL     1      -5.291 -10.172  12.493  0.00  0.00    -0.302 NA
ATOM     14  C   UNL     1      -6.370  -9.440  11.815  0.00  0.00    +0.085 C 
ATOM     15  C   UNL     1      -4.897 -11.363  11.729  0.00  0.00    +0.085 C 
ATOM     16  C   UNL     1      -5.483 -10.188   9.568  0.00  0.00    +0.017 C 
ATOM     18  C   UNL     1      -5.940  -8.995  10.415  0.00  0.00    +0.021 C 
ATOM     19  C   UNL     1      -4.415 -10.984  10.327  0.00  0.00    +0.021 C 
BRANCH  16  23
ATOM     23  C   UNL     1      -4.961  -9.728   8.210  0.00  0.00    +0.159 C 
BRANCH  23   1
ATOM      1  O   UNL     1      -4.246  -8.519   8.389  0.00  0.00    -0.395 OA
ATOM     33  H   UNL     1      -4.629  -7.866   7.778  0.00  0.00    +0.209 HD
ENDBRANCH  23   1
ENDBRANCH  16  23
ENDBRANCH  10   3
ENDBRANCH   7  10
BRANCH   9  17
ATOM     17  C   UNL     1      -5.533 -10.878  18.673  0.00  0.00    +0.105 C 
BRANCH  17  24
ATOM      2  O   UNL     1      -7.938 -10.507  18.844  0.00  0.00    -0.420 OA
ATOM      4  N   UNL     1      -6.971  -9.463  17.119  0.00  0.00    -0.112 NA
ATOM      5  N   UNL     1      -8.322  -9.168  17.094  0.00  0.00    -0.107 NA
ATOM     24  C   UNL     1      -6.793 -10.246  18.156  0.00  0.00    +0.218 A 
ATOM     25  C   UNL     1      -8.846  -9.799  18.119  0.00  0.00    +0.248 A 
BRANCH  25  26
ATOM     26  C   UNL     1     -10.202  -9.854  18.583  0.00  0.00    +0.038 A 
ATOM     27  C   UNL     1     -10.491 -10.418  19.825  0.00  0.00    +0.013 A 
ATOM     28  C   UNL     1     -11.231  -9.344  17.792  0.00  0.00    +0.013 A 
ATOM     29  C   UNL     1     -11.809 -10.472  20.278  0.00  0.00    +0.004 A 
ATOM     30  C   UNL     1     -12.550  -9.398  18.244  0.00  0.00    +0.004 A 
ATOM     31  C   UNL     1     -12.839  -9.962  19.487  0.00  0.00    -0.050 A 
ATOM     32  C   UNL     1     -14.248 -10.019  19.970  0.00  0.00    +0.044 C 
ENDBRANCH  25  26
ENDBRANCH  17  24
ENDBRANCH   9  17
TORSDOF 8
ENDMDL
MODEL 8
REMARK VINA RESULT:      -6.7     28.939     33.084
REMARK  Name = 38030616
REMARK  12 active torsions:
REMARK  status: ('A' for Active; 'I' for Inactive)
REMARK    1  A    between atoms: O_1  and  C_23
REMARK    2  A    between atoms: N_3  and  C_10
REMARK    3  A    between atoms: C_6  and  C_11
REMARK    4  A    between atoms: C_7  and  C_10
REMARK    5  A    between atoms: C_9  and  C_17
REMARK    6  A    between atoms: C_11  and  C_20
REMARK    7  A    between atoms: C_11  and  C_21
REMARK    8  A    between atoms: C_13  and  C_22
REMARK    9  A    between atoms: C_16  and  C_23
REMARK   10  A    between atoms: C_17  and  C_24
REMARK   11  A    between atoms: C_25  and  C_26
REMARK   12  A    between atoms: C_31  and  C_32
REMARK                            x       y       z     vdW  Elec       q    Type
REMARK                         _______ _______ _______ _____ _____    ______ ____
ROOT
ATOM      6  C   UNL     1     -15.144   2.535  30.426  0.00  0.00    +0.000 C 
ATOM      7  C   UNL     1     -16.200   2.434  29.302  0.00  0.00    +0.029 C 
ATOM      8  C   UNL     1     -15.162   3.934  31.058  0.00  0.00    +0.012 C 
ATOM      9  C   UNL     1     -16.544   4.336  31.615  0.00  0.00    +0.024 C 
ATOM     12  C   UNL     1     -17.520   3.052  29.690  0.00  0.00    -0.023 C 
ATOM     13  C   UNL     1     -17.696   3.893  30.725  0.00  0.00    -0.073 C 
ATOM     22  C   UNL     1     -19.074   4.382  31.077  0.00  0.00    +0.039 C 
ENDROOT
BRANCH   6  11
ATOM     11  C   UNL     1     -15.350   1.445  31.486  0.00  0.00    -0.013 C 
ATOM     20  C   UNL     1     -14.410   1.665  32.667  0.00  0.00    +0.007 C 
ATOM     21  C   UNL     1     -15.138   0.062  30.877  0.00  0.00    +0.007 C 
ENDBRANCH   6  11
BRANCH   7  10
ATOM     10  C   UNL     1     -15.706   3.078  28.002  0.00  0.00    +0.092 C 
BRANCH  10   3
ATOM      3  N   UNL     1     -16.594   2.740  26.889  0.00  0.00    -0.302 NA
ATOM     14  C   UNL     1     -16.676   1.282  26.722  0.00  0.00    +0.085 C 
ATOM     15  C   UNL     1     -16.140   3.390  25.653  0.00  0.00    +0.085 C 
ATOM     16  C   UNL     1     -17.247   1.581  24.277  0.00  0.00    +0.017 C 
ATOM     18  C   UNL     1     -17.644   0.909  25.596  0.00  0.00    +0.021 C 
ATOM     19  C   UNL     1     -17.090   3.090  24.491  0.00  0.00    +0.021 C 
BRANCH  16  23
ATOM     23  C   UNL     1     -18.271   1.287  23.183  0.00  0.00    +0.159 C 
BRANCH  23   1
ATOM      1  O   UNL     1     -17.759   1.758  21.950  0.00  0.00    -0.395 OA
ATOM     33  H   UNL     1     -17.885   2.723  21.939  0.00  0.00    +0.209 HD
ENDBRANCH  23   1
ENDBRANCH  16  23
ENDBRANCH  10   3
ENDBRANCH   7  10
BRANCH   9  17
ATOM     17  C   UNL     1     -16.544   5.847  31.882  0.00  0.00    +0.105 C 
BRANCH  17  24
ATOM      2  O   UNL     1     -14.531   7.113  32.427  0.00  0.00    -0.420 OA
ATOM      4  N   UNL     1     -15.294   5.840  34.101  0.00  0.00    -0.112 NA
ATOM      5  N   UNL     1     -14.161   6.495  34.545  0.00  0.00    -0.107 NA
ATOM     24  C   UNL     1     -15.473   6.231  32.861  0.00  0.00    +0.218 A 
ATOM     25  C   UNL     1     -13.749   7.226  33.536  0.00  0.00    +0.248 A 
BRANCH  25  26
ATOM     26  C   UNL     1     -12.625   8.109  33.424  0.00  0.00    +0.038 A 
ATOM     27  C   UNL     1     -12.155   8.786  34.549  0.00  0.00    +0.013 A 
ATOM     28  C   UNL     1     -12.001   8.291  32.189  0.00  0.00    +0.013 A 
ATOM     29  C   UNL     1     -11.061   9.645  34.441  0.00  0.00    +0.004 A 
ATOM     30  C   UNL     1     -10.907   9.150  32.080  0.00  0.00    +0.004 A 
ATOM     31  C   UNL     1     -10.437   9.827  33.205  0.00  0.00    -0.050 A 
ATOM     32  C   UNL     1      -9.268  10.745  33.089  0.00  0.00    +0.044 C 
ENDBRANCH  25  26
ENDBRANCH  17  24
ENDBRANCH   9  17
TORSDOF 8
ENDMDL
MODEL 9
REMARK VINA RESULT:      -6.7     26.072     28.716
REMARK  Name = 38030616
REMARK  12 active torsions:
REMARK  status: ('A' for Active; 'I' for Inactive)
REMARK    1  A    between atoms: O_1  and  C_23
REMARK    2  A    between atoms: N_3  and  C_10
REMARK    3  A    between atoms: C_6  and  C_11
REMARK    4  A    between atoms: C_7  and  C_10
REMARK    5  A    between atoms: C_9  and  C_17
REMARK    6  A    between atoms: C_11  and  C_20
REMARK    7  A    between atoms: C_11  and  C_21
REMARK    8  A    between atoms: C_13  and  C_22
REMARK    9  A    between atoms: C_16  and  C_23
REMARK   10  A    between atoms: C_17  and  C_24
REMARK   11  A    between atoms: C_25  and  C_26
REMARK   12  A    between atoms: C_31  and  C_32
REMARK                            x       y       z     vdW  Elec       q    Type
REMARK                         _______ _______ _______ _____ _____    ______ ____
ROOT
ATOM      6  C   UNL     1     -13.134   7.424  20.425  0.00  0.00    +0.000 C 
ATOM      7  C   UNL     1     -13.440   7.895  18.985  0.00  0.00    +0.029 C 
ATOM      8  C   UNL     1     -12.397   8.521  21.206  0.00  0.00    +0.012 C 
ATOM      9  C   UNL     1     -13.167   9.858  21.256  0.00  0.00    +0.024 C 
ATOM     12  C   UNL     1     -13.959   9.310  18.937  0.00  0.00    -0.023 C 
ATOM     13  C   UNL     1     -13.858  10.197  19.944  0.00  0.00    -0.073 C 
ATOM     22  C   UNL     1     -14.489  11.557  19.822  0.00  0.00    +0.039 C 
ENDROOT
BRANCH   6  11
ATOM     11  C   UNL     1     -14.412   6.987  21.153  0.00  0.00    -0.013 C 
ATOM     20  C   UNL     1     -14.107   5.860  22.135  0.00  0.00    +0.007 C 
ATOM     21  C   UNL     1     -15.477   6.556  20.150  0.00  0.00    +0.007 C 
ENDBRANCH   6  11
BRANCH   7  10
ATOM     10  C   UNL     1     -12.211   7.779  18.077  0.00  0.00    +0.092 C 
BRANCH  10   3
ATOM      3  N   UNL     1     -11.742   9.104  17.671  0.00  0.00    -0.302 NA
ATOM     14  C   UNL     1     -11.516   9.146  16.220  0.00  0.00    +0.085 C 
ATOM     15  C   UNL     1     -10.524   9.467  18.408  0.00  0.00    +0.085 C 
ATOM     16  C   UNL     1      -9.824  11.001  16.524  0.00  0.00    +0.017 C 
ATOM     18  C   UNL     1     -11.077  10.542  15.770  0.00  0.00    +0.021 C 
ATOM     19  C   UNL     1     -10.053  10.874  18.034  0.00  0.00    +0.021 C 
BRANCH  16  23
ATOM     23  C   UNL     1      -9.449  12.431  16.144  0.00  0.00    +0.159 C 
BRANCH  23   1
ATOM      1  O   UNL     1      -8.182  12.727  16.703  0.00  0.00    -0.395 OA
ATOM     33  H   UNL     1      -7.652  13.146  16.003  0.00  0.00    +0.209 HD
ENDBRANCH  23   1
ENDBRANCH  16  23
ENDBRANCH  10   3
ENDBRANCH   7  10
BRANCH   9  17
ATOM     17  C   UNL     1     -12.208  10.958  21.727  0.00  0.00    +0.105 C 
BRANCH  17  24
ATOM      2  O   UNL     1     -12.175  10.798  24.162  0.00  0.00    -0.420 OA
ATOM      4  N   UNL     1     -13.319  12.552  23.375  0.00  0.00    -0.112 NA
ATOM      5  N   UNL     1     -13.384  12.584  24.755  0.00  0.00    -0.107 NA
ATOM     24  C   UNL     1     -12.605  11.493  23.073  0.00  0.00    +0.218 A 
ATOM     25  C   UNL     1     -12.703  11.543  25.171  0.00  0.00    +0.248 A 
BRANCH  25  26
ATOM     26  C   UNL     1     -12.433  11.077  26.501  0.00  0.00    +0.038 A 
ATOM     27  C   UNL     1     -11.220  10.452  26.788  0.00  0.00    +0.013 A 
ATOM     28  C   UNL     1     -13.384  11.251  27.507  0.00  0.00    +0.013 A 
ATOM     29  C   UNL     1     -10.957  10.000  28.082  0.00  0.00    +0.004 A 
ATOM     30  C   UNL     1     -13.121  10.799  28.801  0.00  0.00    +0.004 A 
ATOM     31  C   UNL     1     -11.908  10.174  29.088  0.00  0.00    -0.050 A 
ATOM     32  C   UNL     1     -11.627   9.690  30.470  0.00  0.00    +0.044 C 
ENDBRANCH  25  26
ENDBRANCH  17  24
ENDBRANCH   9  17
TORSDOF 8
ENDMDL
MODEL 10
REMARK VINA RESULT:      -6.7     26.428     30.520
REMARK  Name = 38030616
REMARK  12 active torsions:
REMARK  status: ('A' for Active; 'I' for Inactive)
REMARK    1  A    between atoms: O_1  and  C_23
REMARK    2  A    between atoms: N_3  and  C_10
REMARK    3  A    between atoms: C_6  and  C_11
REMARK    4  A    between atoms: C_7  and  C_10
REMARK    5  A    between atoms: C_9  and  C_17
REMARK    6  A    between atoms: C_11  and  C_20
REMARK    7  A    between atoms: C_11  and  C_21
REMARK    8  A    between atoms: C_13  and  C_22
REMARK    9  A    between atoms: C_16  and  C_23
REMARK   10  A    between atoms: C_17  and  C_24
REMARK   11  A    between atoms: C_25  and  C_26
REMARK   12  A    between atoms: C_31  and  C_32
REMARK                            x       y       z     vdW  Elec       q    Type
REMARK                         _______ _______ _______ _____ _____    ______ ____
ROOT
ATOM      6  C   UNL     1     -13.904   8.538  21.079  0.00  0.00    +0.000 C 
ATOM      7  C   UNL     1     -12.596   7.900  20.554  0.00  0.00    +0.029 C 
ATOM      8  C   UNL     1     -15.012   7.482  21.186  0.00  0.00    +0.012 C 
ATOM      9  C   UNL     1     -14.630   6.283  22.081  0.00  0.00    +0.024 C 
ATOM     12  C   UNL     1     -12.293   6.577  21.210  0.00  0.00    -0.023 C 
ATOM     13  C   UNL     1     -13.184   5.846  21.905  0.00  0.00    -0.073 C 
ATOM     22  C   UNL     1     -12.752   4.580  22.593  0.00  0.00    +0.039 C 
ENDROOT
BRANCH   6  11
ATOM     11  C   UNL     1     -13.679   9.247  22.422  0.00  0.00    -0.013 C 
ATOM     20  C   UNL     1     -14.998   9.789  22.964  0.00  0.00    +0.007 C 
ATOM     21  C   UNL     1     -12.656  10.367  22.269  0.00  0.00    +0.007 C 
ENDBRANCH   6  11
BRANCH   7  10
ATOM     10  C   UNL     1     -12.628   7.713  19.034  0.00  0.00    +0.092 C 
BRANCH  10   3
ATOM      3  N   UNL     1     -12.125   8.908  18.356  0.00  0.00    -0.302 NA
ATOM     14  C   UNL     1     -11.800   8.605  16.955  0.00  0.00    +0.085 C 
ATOM     15  C   UNL     1     -10.957   9.448  19.066  0.00  0.00    +0.085 C 
ATOM     16  C   UNL     1     -10.120  10.495  16.922  0.00  0.00    +0.017 C 
ATOM     18  C   UNL     1     -11.321   9.857  16.216  0.00  0.00    +0.021 C 
ATOM     19  C   UNL     1     -10.452  10.730  18.400  0.00  0.00    +0.021 C 
BRANCH  16  23
ATOM     23  C   UNL     1      -9.711  11.797  16.239  0.00  0.00    +0.159 C 
BRANCH  23   1
ATOM      1  O   UNL     1      -8.682  12.401  17.001  0.00  0.00    -0.395 OA
ATOM     33  H   UNL     1      -8.718  12.010  17.891  0.00  0.00    +0.209 HD
ENDBRANCH  23   1
ENDBRANCH  16  23
ENDBRANCH  10   3
ENDBRANCH   7  10
BRANCH   9  17
ATOM     17  C   UNL     1     -15.630   5.147  21.831  0.00  0.00    +0.105 C 
BRANCH  17  24
ATOM      2  O   UNL     1     -15.949   4.033  23.979  0.00  0.00    -0.420 OA
ATOM      4  N   UNL     1     -17.657   5.340  23.363  0.00  0.00    -0.112 NA
ATOM      5  N   UNL     1     -17.970   4.777  24.586  0.00  0.00    -0.107 NA
ATOM     24  C   UNL     1     -16.470   4.878  23.047  0.00  0.00    +0.218 A 
ATOM     25  C   UNL     1     -16.945   4.022  24.906  0.00  0.00    +0.248 A 
BRANCH  25  26
ATOM     26  C   UNL     1     -16.717   3.203  26.062  0.00  0.00    +0.038 A 
ATOM     27  C   UNL     1     -16.250   3.779  27.243  0.00  0.00    +0.013 A 
ATOM     28  C   UNL     1     -16.964   1.831  26.004  0.00  0.00    +0.013 A 
ATOM     29  C   UNL     1     -16.029   2.983  28.368  0.00  0.00    +0.004 A 
ATOM     30  C   UNL     1     -16.743   1.035  27.129  0.00  0.00    +0.004 A 
ATOM     31  C   UNL     1     -16.276   1.611  28.310  0.00  0.00    -0.050 A 
ATOM     32  C   UNL     1     -16.040   0.760  29.512  0.00  0.00    +0.044 C 
ENDBRANCH  25  26
ENDBRANCH  17  24
ENDBRANCH   9  17
TORSDOF 8
ENDMDL
