MODEL 1
REMARK VINA RESULT:      -6.7      0.000      0.000
REMARK  Name = 75536833
REMARK  9 active torsions:
REMARK  status: ('A' for Active; 'I' for Inactive)
REMARK    1  A    between atoms: S_1  and  N_7
REMARK    2  A    between atoms: S_1  and  C_16
REMARK    3  A    between atoms: O_3  and  C_10
REMARK    4  A    between atoms: N_6  and  C_9
REMARK    5  A    between atoms: N_6  and  C_14
REMARK    6  A    between atoms: N_7  and  C_13
REMARK    7  A    between atoms: C_11  and  C_13
REMARK    8  A    between atoms: C_14  and  C_15
REMARK    9  A    between atoms: C_23  and  C_26
REMARK                            x       y       z     vdW  Elec       q    Type
REMARK                         _______ _______ _______ _____ _____    ______ ____
ROOT
ATOM      2  O   UNL     1     -17.309   1.558  25.518  0.00  0.00    -0.371 OA
ATOM      9  C   UNL     1     -16.368   3.061  27.098  0.00  0.00    +0.111 C 
ATOM     10  C   UNL     1     -16.035   3.541  25.697  0.00  0.00    +0.164 C 
ATOM     11  C   UNL     1     -17.105   2.829  24.881  0.00  0.00    +0.164 C 
ATOM     12  C   UNL     1     -16.738   1.610  26.837  0.00  0.00    +0.181 C 
ENDROOT
BRANCH  10   3
ATOM      3  O   UNL     1     -16.121   4.947  25.569  0.00  0.00    -0.388 OA
ATOM     29  H   UNL     1     -15.410   5.347  26.097  0.00  0.00    +0.210 HD
ENDBRANCH  10   3
BRANCH   9   6
ATOM      6  N   UNL     1     -15.270   3.204  28.040  0.00  0.00    -0.305 NA
ATOM     27  H   UNL     1     -14.574   3.836  27.646  0.00  0.00    +0.123 HD
BRANCH   6  14
ATOM     14  C   UNL     1     -15.736   3.749  29.310  0.00  0.00    +0.116 C 
BRANCH  14  15
ATOM      8  N   UNL     1     -14.769   1.171  32.613  0.00  0.00    -0.263 NA
ATOM     15  C   UNL     1     -15.397   2.846  30.466  0.00  0.00    -0.031 A 
ATOM     17  C   UNL     1     -15.336   1.469  30.283  0.00  0.00    +0.024 A 
ATOM     18  C   UNL     1     -15.144   3.387  31.723  0.00  0.00    +0.024 A 
ATOM     24  C   UNL     1     -15.020   0.682  31.378  0.00  0.00    +0.111 A 
ATOM     25  C   UNL     1     -14.837   2.514  32.753  0.00  0.00    +0.111 A 
ENDBRANCH  14  15
ENDBRANCH   6  14
ENDBRANCH   9   6
BRANCH  11  13
ATOM     13  C   UNL     1     -16.711   2.619  23.430  0.00  0.00    +0.140 C 
BRANCH  13   7
ATOM      7  N   UNL     1     -15.799   3.699  23.003  0.00  0.00    -0.187 NA
ATOM     28  H   UNL     1     -14.982   3.859  23.606  0.00  0.00    +0.148 HD
BRANCH   7   1
ATOM      1  S   UNL     1     -16.393   5.003  22.084  0.00  0.00    +0.058 S 
ATOM      4  O   UNL     1     -17.083   5.932  22.960  0.00  0.00    -0.153 OA
ATOM      5  O   UNL     1     -17.055   4.484  20.903  0.00  0.00    -0.153 OA
BRANCH   1  16
ATOM     16  C   UNL     1     -14.897   5.774  21.542  0.00  0.00    +0.105 A 
ATOM     19  C   UNL     1     -13.669   5.336  22.037  0.00  0.00    +0.029 A 
ATOM     20  C   UNL     1     -14.947   6.821  20.622  0.00  0.00    +0.029 A 
ATOM     21  C   UNL     1     -12.489   5.946  21.610  0.00  0.00    +0.005 A 
ATOM     22  C   UNL     1     -13.766   7.431  20.196  0.00  0.00    +0.005 A 
ATOM     23  C   UNL     1     -12.538   6.993  20.690  0.00  0.00    -0.050 A 
ATOM     26  C   UNL     1     -11.276   7.646  20.235  0.00  0.00    +0.044 C 
ENDBRANCH   1  16
ENDBRANCH   7   1
ENDBRANCH  13   7
ENDBRANCH  11  13
TORSDOF 8
ENDMDL
MODEL 2
REMARK VINA RESULT:      -6.5     27.780     30.972
REMARK  Name = 75536833
REMARK  9 active torsions:
REMARK  status: ('A' for Active; 'I' for Inactive)
REMARK    1  A    between atoms: S_1  and  N_7
REMARK    2  A    between atoms: S_1  and  C_16
REMARK    3  A    between atoms: O_3  and  C_10
REMARK    4  A    between atoms: N_6  and  C_9
REMARK    5  A    between atoms: N_6  and  C_14
REMARK    6  A    between atoms: N_7  and  C_13
REMARK    7  A    between atoms: C_11  and  C_13
REMARK    8  A    between atoms: C_14  and  C_15
REMARK    9  A    between atoms: C_23  and  C_26
REMARK                            x       y       z     vdW  Elec       q    Type
REMARK                         _______ _______ _______ _____ _____    ______ ____
ROOT
ATOM      2  O   UNL     1      11.671   7.095  20.078  0.00  0.00    -0.371 OA
ATOM      9  C   UNL     1      14.025   6.797  19.962  0.00  0.00    +0.111 C 
ATOM     10  C   UNL     1      13.684   7.566  21.225  0.00  0.00    +0.164 C 
ATOM     11  C   UNL     1      12.217   7.204  21.403  0.00  0.00    +0.164 C 
ATOM     12  C   UNL     1      12.759   6.990  19.143  0.00  0.00    +0.181 C 
ENDROOT
BRANCH  10   3
ATOM      3  O   UNL     1      14.465   7.166  22.334  0.00  0.00    -0.388 OA
ATOM     29  H   UNL     1      15.219   6.647  22.006  0.00  0.00    +0.210 HD
ENDBRANCH  10   3
BRANCH   9   6
ATOM      6  N   UNL     1      15.216   7.284  19.285  0.00  0.00    -0.305 NA
ATOM     27  H   UNL     1      15.570   8.100  19.783  0.00  0.00    +0.123 HD
BRANCH   6  14
ATOM     14  C   UNL     1      16.257   6.262  19.254  0.00  0.00    +0.116 C 
BRANCH  14  15
ATOM      8  N   UNL     1      19.739   7.452  21.479  0.00  0.00    -0.263 NA
ATOM     15  C   UNL     1      17.475   6.679  20.033  0.00  0.00    -0.031 A 
ATOM     17  C   UNL     1      17.467   7.862  20.763  0.00  0.00    +0.024 A 
ATOM     18  C   UNL     1      18.615   5.882  20.025  0.00  0.00    +0.024 A 
ATOM     24  C   UNL     1      18.613   8.201  21.464  0.00  0.00    +0.111 A 
ATOM     25  C   UNL     1      19.710   6.309  20.758  0.00  0.00    +0.111 A 
ENDBRANCH  14  15
ENDBRANCH   6  14
ENDBRANCH   9   6
BRANCH  11  13
ATOM     13  C   UNL     1      11.436   8.236  22.197  0.00  0.00    +0.140 C 
BRANCH  13   7
ATOM      7  N   UNL     1      11.264   9.458  21.386  0.00  0.00    -0.187 NA
ATOM     28  H   UNL     1      11.112   9.309  20.381  0.00  0.00    +0.148 HD
BRANCH   7   1
ATOM      1  S   UNL     1      11.973  10.921  21.890  0.00  0.00    +0.058 S 
ATOM      4  O   UNL     1      13.055  10.637  22.814  0.00  0.00    -0.153 OA
ATOM      5  O   UNL     1      10.923  11.851  22.259  0.00  0.00    -0.153 OA
BRANCH   1  16
ATOM     16  C   UNL     1      12.683  11.516  20.384  0.00  0.00    +0.105 A 
ATOM     19  C   UNL     1      12.835  12.887  20.179  0.00  0.00    +0.029 A 
ATOM     20  C   UNL     1      13.090  10.613  19.401  0.00  0.00    +0.029 A 
ATOM     21  C   UNL     1      13.394  13.356  18.991  0.00  0.00    +0.005 A 
ATOM     22  C   UNL     1      13.649  11.084  18.212  0.00  0.00    +0.005 A 
ATOM     23  C   UNL     1      13.800  12.455  18.007  0.00  0.00    -0.050 A 
ATOM     26  C   UNL     1      14.397  12.957  16.736  0.00  0.00    +0.044 C 
ENDBRANCH   1  16
ENDBRANCH   7   1
ENDBRANCH  13   7
ENDBRANCH  11  13
TORSDOF 8
ENDMDL
MODEL 3
REMARK VINA RESULT:      -6.4     27.784     29.684
REMARK  Name = 75536833
REMARK  9 active torsions:
REMARK  status: ('A' for Active; 'I' for Inactive)
REMARK    1  A    between atoms: S_1  and  N_7
REMARK    2  A    between atoms: S_1  and  C_16
REMARK    3  A    between atoms: O_3  and  C_10
REMARK    4  A    between atoms: N_6  and  C_9
REMARK    5  A    between atoms: N_6  and  C_14
REMARK    6  A    between atoms: N_7  and  C_13
REMARK    7  A    between atoms: C_11  and  C_13
REMARK    8  A    between atoms: C_14  and  C_15
REMARK    9  A    between atoms: C_23  and  C_26
REMARK                            x       y       z     vdW  Elec       q    Type
REMARK                         _______ _______ _______ _____ _____    ______ ____
ROOT
ATOM      2  O   UNL     1      12.718  12.144  20.081  0.00  0.00    -0.371 OA
ATOM      9  C   UNL     1      11.876  11.872  22.285  0.00  0.00    +0.111 C 
ATOM     10  C   UNL     1      12.054  10.505  21.650  0.00  0.00    +0.164 C 
ATOM     11  C   UNL     1      13.047  10.823  20.541  0.00  0.00    +0.164 C 
ATOM     12  C   UNL     1      11.875  12.773  21.060  0.00  0.00    +0.181 C 
ENDROOT
BRANCH  10   3
ATOM      3  O   UNL     1      12.563   9.545  22.556  0.00  0.00    -0.388 OA
ATOM     29  H   UNL     1      12.995   8.840  22.044  0.00  0.00    +0.210 HD
ENDBRANCH  10   3
BRANCH   9   6
ATOM      6  N   UNL     1      10.664  11.994  23.078  0.00  0.00    -0.305 NA
ATOM     27  H   UNL     1       9.946  11.388  22.682  0.00  0.00    +0.123 HD
BRANCH   6  14
ATOM     14  C   UNL     1      10.901  11.600  24.463  0.00  0.00    +0.116 C 
BRANCH  14  15
ATOM      8  N   UNL     1      12.351  14.881  26.835  0.00  0.00    -0.263 NA
ATOM     15  C   UNL     1      11.409  12.748  25.293  0.00  0.00    -0.031 A 
ATOM     17  C   UNL     1      12.739  12.785  25.696  0.00  0.00    +0.024 A 
ATOM     18  C   UNL     1      10.548  13.778  25.661  0.00  0.00    +0.024 A 
ATOM     24  C   UNL     1      13.157  13.864  26.458  0.00  0.00    +0.111 A 
ATOM     25  C   UNL     1      11.064  14.812  26.425  0.00  0.00    +0.111 A 
ENDBRANCH  14  15
ENDBRANCH   6  14
ENDBRANCH   9   6
BRANCH  11  13
ATOM     13  C   UNL     1      12.986   9.845  19.382  0.00  0.00    +0.140 C 
BRANCH  13   7
ATOM      7  N   UNL     1      12.079   8.731  19.722  0.00  0.00    -0.187 NA
ATOM     28  H   UNL     1      11.526   8.851  20.580  0.00  0.00    +0.148 HD
BRANCH   7   1
ATOM      1  S   UNL     1      12.441   7.150  19.208  0.00  0.00    +0.058 S 
ATOM      4  O   UNL     1      12.415   7.099  17.758  0.00  0.00    -0.153 OA
ATOM      5  O   UNL     1      11.656   6.209  19.985  0.00  0.00    -0.153 OA
BRANCH   1  16
ATOM     16  C   UNL     1      14.121   6.975  19.730  0.00  0.00    +0.105 A 
ATOM     19  C   UNL     1      14.439   7.034  21.086  0.00  0.00    +0.029 A 
ATOM     20  C   UNL     1      15.128   6.780  18.784  0.00  0.00    +0.029 A 
ATOM     21  C   UNL     1      15.764   6.898  21.498  0.00  0.00    +0.005 A 
ATOM     22  C   UNL     1      16.454   6.644  19.197  0.00  0.00    +0.005 A 
ATOM     23  C   UNL     1      16.772   6.704  20.553  0.00  0.00    -0.050 A 
ATOM     26  C   UNL     1      18.190   6.559  20.994  0.00  0.00    +0.044 C 
ENDBRANCH   1  16
ENDBRANCH   7   1
ENDBRANCH  13   7
ENDBRANCH  11  13
TORSDOF 8
ENDMDL
MODEL 4
REMARK VINA RESULT:      -6.4     18.366     20.022
REMARK  Name = 75536833
REMARK  9 active torsions:
REMARK  status: ('A' for Active; 'I' for Inactive)
REMARK    1  A    between atoms: S_1  and  N_7
REMARK    2  A    between atoms: S_1  and  C_16
REMARK    3  A    between atoms: O_3  and  C_10
REMARK    4  A    between atoms: N_6  and  C_9
REMARK    5  A    between atoms: N_6  and  C_14
REMARK    6  A    between atoms: N_7  and  C_13
REMARK    7  A    between atoms: C_11  and  C_13
REMARK    8  A    between atoms: C_14  and  C_15
REMARK    9  A    between atoms: C_23  and  C_26
REMARK                            x       y       z     vdW  Elec       q    Type
REMARK                         _______ _______ _______ _____ _____    ______ ____
ROOT
ATOM      2  O   UNL     1      -6.158 -11.459  18.374  0.00  0.00    -0.371 OA
ATOM      9  C   UNL     1      -7.845 -10.036  17.497  0.00  0.00    +0.111 C 
ATOM     10  C   UNL     1      -6.516  -9.682  16.857  0.00  0.00    +0.164 C 
ATOM     11  C   UNL     1      -5.724 -10.959  17.099  0.00  0.00    +0.164 C 
ATOM     12  C   UNL     1      -7.390 -10.807  18.726  0.00  0.00    +0.181 C 
ENDROOT
BRANCH  10   3
ATOM      3  O   UNL     1      -6.636  -9.389  15.478  0.00  0.00    -0.388 OA
ATOM     29  H   UNL     1      -5.857  -8.874  15.206  0.00  0.00    +0.210 HD
ENDBRANCH  10   3
BRANCH   9   6
ATOM      6  N   UNL     1      -8.662  -8.879  17.825  0.00  0.00    -0.305 NA
ATOM     27  H   UNL     1      -8.461  -8.132  17.161  0.00  0.00    +0.123 HD
BRANCH   6  14
ATOM     14  C   UNL     1     -10.083  -9.203  17.756  0.00  0.00    +0.116 C 
BRANCH  14  15
ATOM      8  N   UNL     1     -12.266  -6.339  15.405  0.00  0.00    -0.263 NA
ATOM     15  C   UNL     1     -10.846  -8.201  16.933  0.00  0.00    -0.031 A 
ATOM     17  C   UNL     1     -10.183  -7.130  16.343  0.00  0.00    +0.024 A 
ATOM     18  C   UNL     1     -12.220  -8.341  16.761  0.00  0.00    +0.024 A 
ATOM     24  C   UNL     1     -10.931  -6.236  15.595  0.00  0.00    +0.111 A 
ATOM     25  C   UNL     1     -12.876  -7.392  15.994  0.00  0.00    +0.111 A 
ENDBRANCH  14  15
ENDBRANCH   6  14
ENDBRANCH   9   6
BRANCH  11  13
ATOM     13  C   UNL     1      -4.222 -10.738  17.118  0.00  0.00    +0.140 C 
BRANCH  13   7
ATOM      7  N   UNL     1      -3.772 -10.275  15.791  0.00  0.00    -0.187 NA
ATOM     28  H   UNL     1      -4.364  -9.565  15.342  0.00  0.00    +0.148 HD
BRANCH   7   1
ATOM      1  S   UNL     1      -2.845 -11.300  14.799  0.00  0.00    +0.058 S 
ATOM      4  O   UNL     1      -3.397 -12.642  14.847  0.00  0.00    -0.153 OA
ATOM      5  O   UNL     1      -1.439 -11.080  15.076  0.00  0.00    -0.153 OA
BRANCH   1  16
ATOM     16  C   UNL     1      -3.165 -10.636  13.192  0.00  0.00    +0.105 A 
ATOM     19  C   UNL     1      -4.478 -10.397  12.786  0.00  0.00    +0.029 A 
ATOM     20  C   UNL     1      -2.105 -10.355  12.330  0.00  0.00    +0.029 A 
ATOM     21  C   UNL     1      -4.731  -9.874  11.518  0.00  0.00    +0.005 A 
ATOM     22  C   UNL     1      -2.359  -9.833  11.061  0.00  0.00    +0.005 A 
ATOM     23  C   UNL     1      -3.672  -9.593  10.655  0.00  0.00    -0.050 A 
ATOM     26  C   UNL     1      -3.942  -9.035   9.298  0.00  0.00    +0.044 C 
ENDBRANCH   1  16
ENDBRANCH   7   1
ENDBRANCH  13   7
ENDBRANCH  11  13
TORSDOF 8
ENDMDL
MODEL 5
REMARK VINA RESULT:      -6.4      2.640      9.597
REMARK  Name = 75536833
REMARK  9 active torsions:
REMARK  status: ('A' for Active; 'I' for Inactive)
REMARK    1  A    between atoms: S_1  and  N_7
REMARK    2  A    between atoms: S_1  and  C_16
REMARK    3  A    between atoms: O_3  and  C_10
REMARK    4  A    between atoms: N_6  and  C_9
REMARK    5  A    between atoms: N_6  and  C_14
REMARK    6  A    between atoms: N_7  and  C_13
REMARK    7  A    between atoms: C_11  and  C_13
REMARK    8  A    between atoms: C_14  and  C_15
REMARK    9  A    between atoms: C_23  and  C_26
REMARK                            x       y       z     vdW  Elec       q    Type
REMARK                         _______ _______ _______ _____ _____    ______ ____
ROOT
ATOM      2  O   UNL     1     -16.061   4.931  22.044  0.00  0.00    -0.371 OA
ATOM      9  C   UNL     1     -13.704   5.078  21.784  0.00  0.00    +0.111 C 
ATOM     10  C   UNL     1     -14.038   5.032  23.264  0.00  0.00    +0.164 C 
ATOM     11  C   UNL     1     -15.432   4.422  23.232  0.00  0.00    +0.164 C 
ATOM     12  C   UNL     1     -15.044   5.478  21.188  0.00  0.00    +0.181 C 
ENDROOT
BRANCH  10   3
ATOM      3  O   UNL     1     -13.130   4.238  24.003  0.00  0.00    -0.388 OA
ATOM     29  H   UNL     1     -12.291   4.196  23.513  0.00  0.00    +0.210 HD
ENDBRANCH  10   3
BRANCH   9   6
ATOM      6  N   UNL     1     -12.638   6.009  21.455  0.00  0.00    -0.305 NA
ATOM     27  H   UNL     1     -12.062   5.607  20.715  0.00  0.00    +0.123 HD
BRANCH   6  14
ATOM     14  C   UNL     1     -13.177   7.283  20.992  0.00  0.00    +0.116 C 
BRANCH  14  15
ATOM      8  N   UNL     1     -10.452   9.315  18.359  0.00  0.00    -0.263 NA
ATOM     15  C   UNL     1     -12.223   7.994  20.071  0.00  0.00    -0.031 A 
ATOM     17  C   UNL     1     -11.764   9.268  20.389  0.00  0.00    +0.024 A 
ATOM     18  C   UNL     1     -11.798   7.380  18.897  0.00  0.00    +0.024 A 
ATOM     24  C   UNL     1     -10.886   9.879  19.508  0.00  0.00    +0.111 A 
ATOM     25  C   UNL     1     -10.919   8.077  18.084  0.00  0.00    +0.111 A 
ENDBRANCH  14  15
ENDBRANCH   6  14
ENDBRANCH   9   6
BRANCH  11  13
ATOM     13  C   UNL     1     -16.269   4.776  24.448  0.00  0.00    +0.140 C 
BRANCH  13   7
ATOM      7  N   UNL     1     -15.851   3.946  25.595  0.00  0.00    -0.187 NA
ATOM     28  H   UNL     1     -14.845   3.949  25.806  0.00  0.00    +0.148 HD
BRANCH   7   1
ATOM      1  S   UNL     1     -16.766   2.581  26.039  0.00  0.00    +0.058 S 
ATOM      4  O   UNL     1     -16.349   1.444  25.240  0.00  0.00    -0.153 OA
ATOM      5  O   UNL     1     -18.167   2.953  26.104  0.00  0.00    -0.153 OA
BRANCH   1  16
ATOM     16  C   UNL     1     -16.226   2.308  27.700  0.00  0.00    +0.105 A 
ATOM     19  C   UNL     1     -16.332   1.038  28.266  0.00  0.00    +0.029 A 
ATOM     20  C   UNL     1     -15.697   3.363  28.444  0.00  0.00    +0.029 A 
ATOM     21  C   UNL     1     -15.908   0.823  29.577  0.00  0.00    +0.005 A 
ATOM     22  C   UNL     1     -15.274   3.147  29.755  0.00  0.00    +0.005 A 
ATOM     23  C   UNL     1     -15.379   1.877  30.322  0.00  0.00    -0.050 A 
ATOM     26  C   UNL     1     -14.927   1.646  31.725  0.00  0.00    +0.044 C 
ENDBRANCH   1  16
ENDBRANCH   7   1
ENDBRANCH  13   7
ENDBRANCH  11  13
TORSDOF 8
ENDMDL
MODEL 6
REMARK VINA RESULT:      -6.2      1.739      2.317
REMARK  Name = 75536833
REMARK  9 active torsions:
REMARK  status: ('A' for Active; 'I' for Inactive)
REMARK    1  A    between atoms: S_1  and  N_7
REMARK    2  A    between atoms: S_1  and  C_16
REMARK    3  A    between atoms: O_3  and  C_10
REMARK    4  A    between atoms: N_6  and  C_9
REMARK    5  A    between atoms: N_6  and  C_14
REMARK    6  A    between atoms: N_7  and  C_13
REMARK    7  A    between atoms: C_11  and  C_13
REMARK    8  A    between atoms: C_14  and  C_15
REMARK    9  A    between atoms: C_23  and  C_26
REMARK                            x       y       z     vdW  Elec       q    Type
REMARK                         _______ _______ _______ _____ _____    ______ ____
ROOT
ATOM      2  O   UNL     1     -16.293   2.719  23.544  0.00  0.00    -0.371 OA
ATOM      9  C   UNL     1     -16.506   3.606  25.737  0.00  0.00    +0.111 C 
ATOM     10  C   UNL     1     -16.142   4.728  24.781  0.00  0.00    +0.164 C 
ATOM     11  C   UNL     1     -16.566   4.126  23.449  0.00  0.00    +0.164 C 
ATOM     12  C   UNL     1     -16.104   2.383  24.929  0.00  0.00    +0.181 C 
ENDROOT
BRANCH  10   3
ATOM      3  O   UNL     1     -16.835   5.929  25.062  0.00  0.00    -0.388 OA
ATOM     29  H   UNL     1     -16.948   5.998  26.026  0.00  0.00    +0.210 HD
ENDBRANCH  10   3
BRANCH   9   6
ATOM      6  N   UNL     1     -15.823   3.687  27.018  0.00  0.00    -0.305 NA
ATOM     27  H   UNL     1     -15.800   4.661  27.321  0.00  0.00    +0.123 HD
BRANCH   6  14
ATOM     14  C   UNL     1     -16.513   2.896  28.031  0.00  0.00    +0.116 C 
BRANCH  14  15
ATOM      8  N   UNL     1     -13.754   0.965  30.705  0.00  0.00    -0.263 NA
ATOM     15  C   UNL     1     -15.547   2.219  28.967  0.00  0.00    -0.031 A 
ATOM     17  C   UNL     1     -15.556   0.835  29.100  0.00  0.00    +0.024 A 
ATOM     18  C   UNL     1     -14.642   2.977  29.703  0.00  0.00    +0.024 A 
ATOM     24  C   UNL     1     -14.647   0.262  29.974  0.00  0.00    +0.111 A 
ATOM     25  C   UNL     1     -13.774   2.308  30.550  0.00  0.00    +0.111 A 
ENDBRANCH  14  15
ENDBRANCH   6  14
ENDBRANCH   9   6
BRANCH  11  13
ATOM     13  C   UNL     1     -15.822   4.714  22.262  0.00  0.00    +0.140 C 
BRANCH  13   7
ATOM      7  N   UNL     1     -14.889   5.757  22.731  0.00  0.00    -0.187 NA
ATOM     28  H   UNL     1     -14.458   5.592  23.650  0.00  0.00    +0.148 HD
BRANCH   7   1
ATOM      1  S   UNL     1     -15.069   7.364  22.200  0.00  0.00    +0.058 S 
ATOM      4  O   UNL     1     -14.676   8.268  23.264  0.00  0.00    -0.153 OA
ATOM      5  O   UNL     1     -16.364   7.507  21.562  0.00  0.00    -0.153 OA
BRANCH   1  16
ATOM     16  C   UNL     1     -13.851   7.462  20.923  0.00  0.00    +0.105 A 
ATOM     19  C   UNL     1     -14.206   7.924  19.656  0.00  0.00    +0.029 A 
ATOM     20  C   UNL     1     -12.536   7.076  21.183  0.00  0.00    +0.029 A 
ATOM     21  C   UNL     1     -13.245   8.000  18.648  0.00  0.00    +0.005 A 
ATOM     22  C   UNL     1     -11.575   7.152  20.174  0.00  0.00    +0.005 A 
ATOM     23  C   UNL     1     -11.930   7.613  18.906  0.00  0.00    -0.050 A 
ATOM     26  C   UNL     1     -10.903   7.693  17.827  0.00  0.00    +0.044 C 
ENDBRANCH   1  16
ENDBRANCH   7   1
ENDBRANCH  13   7
ENDBRANCH  11  13
TORSDOF 8
ENDMDL
MODEL 7
REMARK VINA RESULT:      -6.2      5.302      9.198
REMARK  Name = 75536833
REMARK  9 active torsions:
REMARK  status: ('A' for Active; 'I' for Inactive)
REMARK    1  A    between atoms: S_1  and  N_7
REMARK    2  A    between atoms: S_1  and  C_16
REMARK    3  A    between atoms: O_3  and  C_10
REMARK    4  A    between atoms: N_6  and  C_9
REMARK    5  A    between atoms: N_6  and  C_14
REMARK    6  A    between atoms: N_7  and  C_13
REMARK    7  A    between atoms: C_11  and  C_13
REMARK    8  A    between atoms: C_14  and  C_15
REMARK    9  A    between atoms: C_23  and  C_26
REMARK                            x       y       z     vdW  Elec       q    Type
REMARK                         _______ _______ _______ _____ _____    ______ ____
ROOT
ATOM      2  O   UNL     1     -14.685   0.664  32.651  0.00  0.00    -0.371 OA
ATOM      9  C   UNL     1     -14.297   0.367  30.327  0.00  0.00    +0.111 C 
ATOM     10  C   UNL     1     -14.085   1.827  30.682  0.00  0.00    +0.164 C 
ATOM     11  C   UNL     1     -13.846   1.732  32.182  0.00  0.00    +0.164 C 
ATOM     12  C   UNL     1     -15.105  -0.117  31.520  0.00  0.00    +0.181 C 
ENDROOT
BRANCH  10   3
ATOM      3  O   UNL     1     -12.981   2.397  30.006  0.00  0.00    -0.388 OA
ATOM     29  H   UNL     1     -13.072   2.206  29.057  0.00  0.00    +0.210 HD
ENDBRANCH  10   3
BRANCH   9   6
ATOM      6  N   UNL     1     -14.983   0.168  29.061  0.00  0.00    -0.305 NA
ATOM     27  H   UNL     1     -15.214  -0.820  28.959  0.00  0.00    +0.123 HD
BRANCH   6  14
ATOM     14  C   UNL     1     -16.215   0.947  29.003  0.00  0.00    +0.116 C 
BRANCH  14  15
ATOM      8  N   UNL     1     -16.679   2.935  25.218  0.00  0.00    -0.263 NA
ATOM     15  C   UNL     1     -16.377   1.643  27.679  0.00  0.00    -0.031 A 
ATOM     17  C   UNL     1     -16.091   2.999  27.562  0.00  0.00    +0.024 A 
ATOM     18  C   UNL     1     -16.814   0.932  26.566  0.00  0.00    +0.024 A 
ATOM     24  C   UNL     1     -16.256   3.592  26.321  0.00  0.00    +0.111 A 
ATOM     25  C   UNL     1     -16.947   1.618  25.370  0.00  0.00    +0.111 A 
ENDBRANCH  14  15
ENDBRANCH   6  14
ENDBRANCH   9   6
BRANCH  11  13
ATOM     13  C   UNL     1     -14.181   3.013  32.925  0.00  0.00    +0.140 C 
BRANCH  13   7
ATOM      7  N   UNL     1     -14.265   4.133  31.967  0.00  0.00    -0.187 NA
ATOM     28  H   UNL     1     -13.426   4.297  31.397  0.00  0.00    +0.148 HD
BRANCH   7   1
ATOM      1  S   UNL     1     -15.300   5.448  32.281  0.00  0.00    +0.058 S 
ATOM      4  O   UNL     1     -16.345   5.028  33.196  0.00  0.00    -0.153 OA
ATOM      5  O   UNL     1     -15.643   6.088  31.026  0.00  0.00    -0.153 OA
BRANCH   1  16
ATOM     16  C   UNL     1     -14.227   6.553  33.148  0.00  0.00    +0.105 A 
ATOM     19  C   UNL     1     -13.573   7.574  32.459  0.00  0.00    +0.029 A 
ATOM     20  C   UNL     1     -14.034   6.402  34.522  0.00  0.00    +0.029 A 
ATOM     21  C   UNL     1     -12.726   8.445  33.143  0.00  0.00    +0.005 A 
ATOM     22  C   UNL     1     -13.185   7.274  35.205  0.00  0.00    +0.005 A 
ATOM     23  C   UNL     1     -12.531   8.295  34.516  0.00  0.00    -0.050 A 
ATOM     26  C   UNL     1     -11.623   9.226  35.247  0.00  0.00    +0.044 C 
ENDBRANCH   1  16
ENDBRANCH   7   1
ENDBRANCH  13   7
ENDBRANCH  11  13
TORSDOF 8
ENDMDL
MODEL 8
REMARK VINA RESULT:      -6.1     19.434     21.995
REMARK  Name = 75536833
REMARK  9 active torsions:
REMARK  status: ('A' for Active; 'I' for Inactive)
REMARK    1  A    between atoms: S_1  and  N_7
REMARK    2  A    between atoms: S_1  and  C_16
REMARK    3  A    between atoms: O_3  and  C_10
REMARK    4  A    between atoms: N_6  and  C_9
REMARK    5  A    between atoms: N_6  and  C_14
REMARK    6  A    between atoms: N_7  and  C_13
REMARK    7  A    between atoms: C_11  and  C_13
REMARK    8  A    between atoms: C_14  and  C_15
REMARK    9  A    between atoms: C_23  and  C_26
REMARK                            x       y       z     vdW  Elec       q    Type
REMARK                         _______ _______ _______ _____ _____    ______ ____
ROOT
ATOM      2  O   UNL     1      -4.820 -12.036  15.837  0.00  0.00    -0.371 OA
ATOM      9  C   UNL     1      -2.897 -11.398  14.597  0.00  0.00    +0.111 C 
ATOM     10  C   UNL     1      -2.756 -10.898  16.023  0.00  0.00    +0.164 C 
ATOM     11  C   UNL     1      -3.735 -11.807  16.751  0.00  0.00    +0.164 C 
ATOM     12  C   UNL     1      -4.393 -11.658  14.517  0.00  0.00    +0.181 C 
ENDROOT
BRANCH  10   3
ATOM      3  O   UNL     1      -1.438 -11.034  16.520  0.00  0.00    -0.388 OA
ATOM     29  H   UNL     1      -0.847 -11.223  15.772  0.00  0.00    +0.210 HD
ENDBRANCH  10   3
BRANCH   9   6
ATOM      6  N   UNL     1      -2.433 -10.451  13.597  0.00  0.00    -0.305 NA
ATOM     27  H   UNL     1      -1.663  -9.908  13.986  0.00  0.00    +0.123 HD
BRANCH   6  14
ATOM     14  C   UNL     1      -1.966 -11.139  12.399  0.00  0.00    +0.116 C 
BRANCH  14  15
ATOM      8  N   UNL     1      -4.380 -10.195   8.967  0.00  0.00    -0.263 NA
ATOM     15  C   UNL     1      -2.811 -10.808  11.198  0.00  0.00    -0.031 A 
ATOM     17  C   UNL     1      -2.892  -9.498  10.740  0.00  0.00    +0.024 A 
ATOM     18  C   UNL     1      -3.514 -11.813  10.541  0.00  0.00    +0.024 A 
ATOM     24  C   UNL     1      -3.683  -9.246   9.630  0.00  0.00    +0.111 A 
ATOM     25  C   UNL     1      -4.277 -11.457   9.440  0.00  0.00    +0.111 A 
ENDBRANCH  14  15
ENDBRANCH   6  14
ENDBRANCH   9   6
BRANCH  11  13
ATOM     13  C   UNL     1      -4.267 -11.205  18.040  0.00  0.00    +0.140 C 
BRANCH  13   7
ATOM      7  N   UNL     1      -5.647 -10.725  17.829  0.00  0.00    -0.187 NA
ATOM     28  H   UNL     1      -5.739  -9.839  17.316  0.00  0.00    +0.148 HD
BRANCH   7   1
ATOM      1  S   UNL     1      -6.877 -11.157  18.923  0.00  0.00    +0.058 S 
ATOM      4  O   UNL     1      -6.548 -10.645  20.240  0.00  0.00    -0.153 OA
ATOM      5  O   UNL     1      -7.196 -12.560  18.745  0.00  0.00    -0.153 OA
BRANCH   1  16
ATOM     16  C   UNL     1      -8.251 -10.232  18.307  0.00  0.00    +0.105 A 
ATOM     19  C   UNL     1      -9.538 -10.503  18.771  0.00  0.00    +0.029 A 
ATOM     20  C   UNL     1      -8.048  -9.233  17.354  0.00  0.00    +0.029 A 
ATOM     21  C   UNL     1     -10.622  -9.775  18.284  0.00  0.00    +0.005 A 
ATOM     22  C   UNL     1      -9.134  -8.505  16.866  0.00  0.00    +0.005 A 
ATOM     23  C   UNL     1     -10.421  -8.776  17.331  0.00  0.00    -0.050 A 
ATOM     26  C   UNL     1     -11.582  -7.998  16.809  0.00  0.00    +0.044 C 
ENDBRANCH   1  16
ENDBRANCH   7   1
ENDBRANCH  13   7
ENDBRANCH  11  13
TORSDOF 8
ENDMDL
MODEL 9
REMARK VINA RESULT:      -6.0     29.734     32.793
REMARK  Name = 75536833
REMARK  9 active torsions:
REMARK  status: ('A' for Active; 'I' for Inactive)
REMARK    1  A    between atoms: S_1  and  N_7
REMARK    2  A    between atoms: S_1  and  C_16
REMARK    3  A    between atoms: O_3  and  C_10
REMARK    4  A    between atoms: N_6  and  C_9
REMARK    5  A    between atoms: N_6  and  C_14
REMARK    6  A    between atoms: N_7  and  C_13
REMARK    7  A    between atoms: C_11  and  C_13
REMARK    8  A    between atoms: C_14  and  C_15
REMARK    9  A    between atoms: C_23  and  C_26
REMARK                            x       y       z     vdW  Elec       q    Type
REMARK                         _______ _______ _______ _____ _____    ______ ____
ROOT
ATOM      2  O   UNL     1      12.877   9.476   4.389  0.00  0.00    -0.371 OA
ATOM      9  C   UNL     1      13.296   9.700   6.716  0.00  0.00    +0.111 C 
ATOM     10  C   UNL     1      13.198   8.226   6.370  0.00  0.00    +0.164 C 
ATOM     11  C   UNL     1      13.466   8.258   4.871  0.00  0.00    +0.164 C 
ATOM     12  C   UNL     1      12.620  10.336   5.512  0.00  0.00    +0.181 C 
ENDROOT
BRANCH  10   3
ATOM      3  O   UNL     1      14.150   7.440   7.060  0.00  0.00    -0.388 OA
ATOM     29  H   UNL     1      15.035   7.801   6.879  0.00  0.00    +0.210 HD
ENDBRANCH  10   3
BRANCH   9   6
ATOM      6  N   UNL     1      12.656  10.048   7.974  0.00  0.00    -0.305 NA
ATOM     27  H   UNL     1      13.303  10.602   8.534  0.00  0.00    +0.123 HD
BRANCH   6  14
ATOM     14  C   UNL     1      11.443  10.825   7.747  0.00  0.00    +0.116 C 
BRANCH  14  15
ATOM      8  N   UNL     1       9.494  11.861  11.438  0.00  0.00    -0.263 NA
ATOM     15  C   UNL     1      10.760  11.187   9.039  0.00  0.00    -0.031 A 
ATOM     17  C   UNL     1       9.393  10.979   9.190  0.00  0.00    +0.024 A 
ATOM     18  C   UNL     1      11.494  11.733  10.087  0.00  0.00    +0.024 A 
ATOM     24  C   UNL     1       8.813  11.329  10.398  0.00  0.00    +0.111 A 
ATOM     25  C   UNL     1      10.820  12.049  11.255  0.00  0.00    +0.111 A 
ENDBRANCH  14  15
ENDBRANCH   6  14
ENDBRANCH   9   6
BRANCH  11  13
ATOM     13  C   UNL     1      12.874   7.072   4.131  0.00  0.00    +0.140 C 
BRANCH  13   7
ATOM      7  N   UNL     1      12.158   6.201   5.084  0.00  0.00    -0.187 NA
ATOM     28  H   UNL     1      12.729   5.485   5.551  0.00  0.00    +0.148 HD
BRANCH   7   1
ATOM      1  S   UNL     1      10.494   5.904   4.883  0.00  0.00    +0.058 S 
ATOM      4  O   UNL     1      10.314   4.700   4.093  0.00  0.00    -0.153 OA
ATOM      5  O   UNL     1       9.838   7.138   4.493  0.00  0.00    -0.153 OA
BRANCH   1  16
ATOM     16  C   UNL     1       9.987   5.551   6.539  0.00  0.00    +0.105 A 
ATOM     19  C   UNL     1      10.079   4.249   7.032  0.00  0.00    +0.029 A 
ATOM     20  C   UNL     1       9.493   6.572   7.350  0.00  0.00    +0.029 A 
ATOM     21  C   UNL     1       9.677   3.970   8.338  0.00  0.00    +0.005 A 
ATOM     22  C   UNL     1       9.091   6.292   8.656  0.00  0.00    +0.005 A 
ATOM     23  C   UNL     1       9.183   4.991   9.150  0.00  0.00    -0.050 A 
ATOM     26  C   UNL     1       8.752   4.691  10.547  0.00  0.00    +0.044 C 
ENDBRANCH   1  16
ENDBRANCH   7   1
ENDBRANCH  13   7
ENDBRANCH  11  13
TORSDOF 8
ENDMDL
MODEL 10
REMARK VINA RESULT:      -5.9     15.737     17.024
REMARK  Name = 75536833
REMARK  9 active torsions:
REMARK  status: ('A' for Active; 'I' for Inactive)
REMARK    1  A    between atoms: S_1  and  N_7
REMARK    2  A    between atoms: S_1  and  C_16
REMARK    3  A    between atoms: O_3  and  C_10
REMARK    4  A    between atoms: N_6  and  C_9
REMARK    5  A    between atoms: N_6  and  C_14
REMARK    6  A    between atoms: N_7  and  C_13
REMARK    7  A    between atoms: C_11  and  C_13
REMARK    8  A    between atoms: C_14  and  C_15
REMARK    9  A    between atoms: C_23  and  C_26
REMARK                            x       y       z     vdW  Elec       q    Type
REMARK                         _______ _______ _______ _____ _____    ______ ____
ROOT
ATOM      2  O   UNL     1     -10.859 -10.130  15.680  0.00  0.00    -0.371 OA
ATOM      9  C   UNL     1      -9.647  -9.106  17.448  0.00  0.00    +0.111 C 
ATOM     10  C   UNL     1      -9.986  -8.056  16.405  0.00  0.00    +0.164 C 
ATOM     11  C   UNL     1     -11.149  -8.723  15.684  0.00  0.00    +0.164 C 
ATOM     12  C   UNL     1      -9.831 -10.388  16.652  0.00  0.00    +0.181 C 
ENDROOT
BRANCH  10   3
ATOM      3  O   UNL     1     -10.360  -6.819  16.979  0.00  0.00    -0.388 OA
ATOM     29  H   UNL     1     -10.201  -6.866  17.937  0.00  0.00    +0.210 HD
ENDBRANCH  10   3
BRANCH   9   6
ATOM      6  N   UNL     1      -8.309  -8.969  18.000  0.00  0.00    -0.305 NA
ATOM     27  H   UNL     1      -8.252  -9.502  18.867  0.00  0.00    +0.123 HD
BRANCH   6  14
ATOM     14  C   UNL     1      -7.304  -9.473  17.070  0.00  0.00    +0.116 C 
BRANCH  14  15
ATOM      8  N   UNL     1      -4.301 -11.812  19.070  0.00  0.00    -0.263 NA
ATOM     15  C   UNL     1      -6.254 -10.292  17.770  0.00  0.00    -0.031 A 
ATOM     17  C   UNL     1      -6.476 -10.758  19.061  0.00  0.00    +0.024 A 
ATOM     18  C   UNL     1      -5.055 -10.585  17.128  0.00  0.00    +0.024 A 
ATOM     24  C   UNL     1      -5.477 -11.508  19.662  0.00  0.00    +0.111 A 
ATOM     25  C   UNL     1      -4.120 -11.342  17.815  0.00  0.00    +0.111 A 
ENDBRANCH  14  15
ENDBRANCH   6  14
ENDBRANCH   9   6
BRANCH  11  13
ATOM     13  C   UNL     1     -11.332  -8.232  14.259  0.00  0.00    +0.140 C 
BRANCH  13   7
ATOM      7  N   UNL     1     -12.748  -7.881  14.034  0.00  0.00    -0.187 NA
ATOM     28  H   UNL     1     -13.242  -8.448  13.334  0.00  0.00    +0.148 HD
BRANCH   7   1
ATOM      1  S   UNL     1     -13.288  -6.293  14.316  0.00  0.00    +0.058 S 
ATOM      4  O   UNL     1     -12.565  -5.733  15.443  0.00  0.00    -0.153 OA
ATOM      5  O   UNL     1     -14.738  -6.277  14.299  0.00  0.00    -0.153 OA
BRANCH   1  16
ATOM     16  C   UNL     1     -12.745  -5.461  12.854  0.00  0.00    +0.105 A 
ATOM     19  C   UNL     1     -12.568  -6.176  11.670  0.00  0.00    +0.029 A 
ATOM     20  C   UNL     1     -12.492  -4.089  12.886  0.00  0.00    +0.029 A 
ATOM     21  C   UNL     1     -12.138  -5.520  10.517  0.00  0.00    +0.005 A 
ATOM     22  C   UNL     1     -12.061  -3.434  11.732  0.00  0.00    +0.005 A 
ATOM     23  C   UNL     1     -11.884  -4.149  10.548  0.00  0.00    -0.050 A 
ATOM     26  C   UNL     1     -11.423  -3.448   9.314  0.00  0.00    +0.044 C 
ENDBRANCH   1  16
ENDBRANCH   7   1
ENDBRANCH  13   7
ENDBRANCH  11  13
TORSDOF 8
ENDMDL
