MODEL 1
REMARK VINA RESULT:      -6.2      0.000      0.000
REMARK  Name = 75367100
REMARK  8 active torsions:
REMARK  status: ('A' for Active; 'I' for Inactive)
REMARK    1  A    between atoms: O_2  and  C_9
REMARK    2  A    between atoms: N_4  and  C_7
REMARK    3  A    between atoms: N_4  and  C_8
REMARK    4  A    between atoms: N_5  and  C_16
REMARK    5  A    between atoms: N_6  and  C_18
REMARK    6  A    between atoms: C_12  and  C_16
REMARK    7  A    between atoms: C_18  and  C_19
REMARK    8  A    between atoms: C_18  and  C_20
REMARK                            x       y       z     vdW  Elec       q    Type
REMARK                         _______ _______ _______ _____ _____    ______ ____
ROOT
ATOM      1  O   UNL     1      11.133   6.949  21.250  0.00  0.00    -0.371 OA
ATOM      8  C   UNL     1      13.480   7.052  20.904  0.00  0.00    +0.111 C 
ATOM      9  C   UNL     1      13.018   8.346  21.547  0.00  0.00    +0.164 C 
ATOM     12  C   UNL     1      11.692   7.912  22.157  0.00  0.00    +0.165 C 
ATOM     15  C   UNL     1      12.171   6.502  20.361  0.00  0.00    +0.181 C 
ENDROOT
BRANCH   9   2
ATOM      2  O   UNL     1      13.919   8.821  22.528  0.00  0.00    -0.388 OA
ATOM     22  H   UNL     1      13.695   8.403  23.377  0.00  0.00    +0.210 HD
ENDBRANCH   9   2
BRANCH   8   4
ATOM      4  N   UNL     1      14.486   7.241  19.871  0.00  0.00    -0.306 NA
ATOM     21  H   UNL     1      14.703   8.232  19.769  0.00  0.00    +0.123 HD
BRANCH   4   7
ATOM      7  C   UNL     1      15.693   6.493  20.174  0.00  0.00    +0.054 C 
ATOM     10  C   UNL     1      16.504   6.153  18.930  0.00  0.00    +0.019 C 
ATOM     11  C   UNL     1      16.690   7.293  21.004  0.00  0.00    +0.019 C 
ATOM     13  C   UNL     1      17.883   5.800  19.483  0.00  0.00    +0.002 C 
ATOM     14  C   UNL     1      18.002   6.536  20.820  0.00  0.00    +0.002 C 
ENDBRANCH   4   7
ENDBRANCH   8   4
BRANCH  12  16
ATOM     16  C   UNL     1      10.717   9.060  22.353  0.00  0.00    +0.140 C 
BRANCH  16   5
ATOM      3  O   UNL     1      11.191  11.900  22.556  0.00  0.00    -0.253 OA
ATOM      5  N   UNL     1      11.020   9.804  23.543  0.00  0.00    -0.297 N 
ATOM      6  N   UNL     1      11.510  11.648  24.840  0.00  0.00    -0.297 N 
ATOM     17  C   UNL     1      11.237  11.184  23.556  0.00  0.00    +0.300 C 
ATOM     23  H   UNL     1      11.094   9.297  24.419  0.00  0.00    +0.150 HD
ATOM     24  H   UNL     1      11.451  10.992  25.612  0.00  0.00    +0.150 HD
BRANCH   6  18
ATOM     18  C   UNL     1      11.772  13.039  25.131  0.00  0.00    +0.068 C 
ATOM     19  C   UNL     1      13.010  13.171  26.010  0.00  0.00    +0.027 C 
ATOM     20  C   UNL     1      10.559  13.686  25.785  0.00  0.00    +0.027 C 
ENDBRANCH   6  18
ENDBRANCH  16   5
ENDBRANCH  12  16
TORSDOF 6
ENDMDL
MODEL 2
REMARK VINA RESULT:      -5.7      1.887      2.874
REMARK  Name = 75367100
REMARK  8 active torsions:
REMARK  status: ('A' for Active; 'I' for Inactive)
REMARK    1  A    between atoms: O_2  and  C_9
REMARK    2  A    between atoms: N_4  and  C_7
REMARK    3  A    between atoms: N_4  and  C_8
REMARK    4  A    between atoms: N_5  and  C_16
REMARK    5  A    between atoms: N_6  and  C_18
REMARK    6  A    between atoms: C_12  and  C_16
REMARK    7  A    between atoms: C_18  and  C_19
REMARK    8  A    between atoms: C_18  and  C_20
REMARK                            x       y       z     vdW  Elec       q    Type
REMARK                         _______ _______ _______ _____ _____    ______ ____
ROOT
ATOM      1  O   UNL     1      13.948   7.617  19.403  0.00  0.00    -0.371 OA
ATOM      8  C   UNL     1      16.093   7.666  20.422  0.00  0.00    +0.111 C 
ATOM      9  C   UNL     1      15.035   7.539  21.502  0.00  0.00    +0.164 C 
ATOM     12  C   UNL     1      13.859   7.001  20.698  0.00  0.00    +0.165 C 
ATOM     15  C   UNL     1      15.267   8.170  19.249  0.00  0.00    +0.181 C 
ENDROOT
BRANCH   9   2
ATOM      2  O   UNL     1      15.414   6.653  22.537  0.00  0.00    -0.388 OA
ATOM     22  H   UNL     1      15.469   7.157  23.367  0.00  0.00    +0.210 HD
ENDBRANCH   9   2
BRANCH   8   4
ATOM      4  N   UNL     1      17.182   8.562  20.775  0.00  0.00    -0.306 NA
ATOM     21  H   UNL     1      17.027   8.957  21.702  0.00  0.00    +0.123 HD
BRANCH   4   7
ATOM      7  C   UNL     1      18.460   7.876  20.729  0.00  0.00    +0.054 C 
ATOM     10  C   UNL     1      19.094   7.718  22.106  0.00  0.00    +0.019 C 
ATOM     11  C   UNL     1      18.336   6.431  20.261  0.00  0.00    +0.019 C 
ATOM     13  C   UNL     1      20.137   6.622  21.899  0.00  0.00    +0.002 C 
ATOM     14  C   UNL     1      19.647   5.793  20.709  0.00  0.00    +0.002 C 
ENDBRANCH   4   7
ENDBRANCH   8   4
BRANCH  12  16
ATOM     16  C   UNL     1      12.511   7.314  21.323  0.00  0.00    +0.140 C 
BRANCH  16   5
ATOM      3  O   UNL     1      10.381   9.141  21.999  0.00  0.00    -0.253 OA
ATOM      5  N   UNL     1      12.592   8.452  22.194  0.00  0.00    -0.297 N 
ATOM      6  N   UNL     1      11.863  10.316  23.344  0.00  0.00    -0.297 N 
ATOM     17  C   UNL     1      11.508   9.291  22.470  0.00  0.00    +0.300 C 
ATOM     23  H   UNL     1      13.487   8.667  22.620  0.00  0.00    +0.150 HD
ATOM     24  H   UNL     1      12.798  10.311  23.738  0.00  0.00    +0.150 HD
BRANCH   6  18
ATOM     18  C   UNL     1      10.928  11.321  23.792  0.00  0.00    +0.068 C 
ATOM     19  C   UNL     1      11.008  12.553  22.899  0.00  0.00    +0.027 C 
ATOM     20  C   UNL     1      11.184  11.678  25.250  0.00  0.00    +0.027 C 
ENDBRANCH   6  18
ENDBRANCH  16   5
ENDBRANCH  12  16
TORSDOF 6
ENDMDL
MODEL 3
REMARK VINA RESULT:      -5.6     15.003     18.347
REMARK  Name = 75367100
REMARK  8 active torsions:
REMARK  status: ('A' for Active; 'I' for Inactive)
REMARK    1  A    between atoms: O_2  and  C_9
REMARK    2  A    between atoms: N_4  and  C_7
REMARK    3  A    between atoms: N_4  and  C_8
REMARK    4  A    between atoms: N_5  and  C_16
REMARK    5  A    between atoms: N_6  and  C_18
REMARK    6  A    between atoms: C_12  and  C_16
REMARK    7  A    between atoms: C_18  and  C_19
REMARK    8  A    between atoms: C_18  and  C_20
REMARK                            x       y       z     vdW  Elec       q    Type
REMARK                         _______ _______ _______ _____ _____    ______ ____
ROOT
ATOM      1  O   UNL     1      13.269   9.165   5.668  0.00  0.00    -0.371 OA
ATOM      8  C   UNL     1      12.027   7.479   6.789  0.00  0.00    +0.111 C 
ATOM      9  C   UNL     1      13.387   6.923   6.413  0.00  0.00    +0.164 C 
ATOM     12  C   UNL     1      14.185   8.206   6.221  0.00  0.00    +0.165 C 
ATOM     15  C   UNL     1      11.928   8.684   5.866  0.00  0.00    +0.181 C 
ENDROOT
BRANCH   9   2
ATOM      2  O   UNL     1      13.941   6.104   7.423  0.00  0.00    -0.388 OA
ATOM     22  H   UNL     1      14.526   5.451   7.003  0.00  0.00    +0.210 HD
ENDBRANCH   9   2
BRANCH   8   4
ATOM      4  N   UNL     1      10.938   6.534   6.603  0.00  0.00    -0.306 NA
ATOM     21  H   UNL     1      11.197   5.830   5.913  0.00  0.00    +0.123 HD
BRANCH   4   7
ATOM      7  C   UNL     1      10.580   5.896   7.857  0.00  0.00    +0.054 C 
ATOM     10  C   UNL     1       9.314   6.479   8.475  0.00  0.00    +0.019 C 
ATOM     11  C   UNL     1      10.212   4.427   7.687  0.00  0.00    +0.019 C 
ATOM     13  C   UNL     1       8.881   5.415   9.480  0.00  0.00    +0.002 C 
ATOM     14  C   UNL     1       9.459   4.093   8.971  0.00  0.00    +0.002 C 
ENDBRANCH   4   7
ENDBRANCH   8   4
BRANCH  12  16
ATOM     16  C   UNL     1      15.376   8.039   5.293  0.00  0.00    +0.140 C 
BRANCH  16   5
ATOM      3  O   UNL     1      14.473   7.697   2.574  0.00  0.00    -0.253 OA
ATOM      5  N   UNL     1      15.296   6.810   4.557  0.00  0.00    -0.297 N 
ATOM      6  N   UNL     1      14.869   5.418   2.766  0.00  0.00    -0.297 N 
ATOM     17  C   UNL     1      14.844   6.729   3.237  0.00  0.00    +0.300 C 
ATOM     23  H   UNL     1      15.567   5.952   5.026  0.00  0.00    +0.150 HD
ATOM     24  H   UNL     1      15.263   4.699   3.364  0.00  0.00    +0.150 HD
BRANCH   6  18
ATOM     18  C   UNL     1      14.453   5.059   1.430  0.00  0.00    +0.068 C 
ATOM     19  C   UNL     1      13.874   3.650   1.419  0.00  0.00    +0.027 C 
ATOM     20  C   UNL     1      15.617   5.186   0.456  0.00  0.00    +0.027 C 
ENDBRANCH   6  18
ENDBRANCH  16   5
ENDBRANCH  12  16
TORSDOF 6
ENDMDL
MODEL 4
REMARK VINA RESULT:      -5.6     26.121     29.191
REMARK  Name = 75367100
REMARK  8 active torsions:
REMARK  status: ('A' for Active; 'I' for Inactive)
REMARK    1  A    between atoms: O_2  and  C_9
REMARK    2  A    between atoms: N_4  and  C_7
REMARK    3  A    between atoms: N_4  and  C_8
REMARK    4  A    between atoms: N_5  and  C_16
REMARK    5  A    between atoms: N_6  and  C_18
REMARK    6  A    between atoms: C_12  and  C_16
REMARK    7  A    between atoms: C_18  and  C_19
REMARK    8  A    between atoms: C_18  and  C_20
REMARK                            x       y       z     vdW  Elec       q    Type
REMARK                         _______ _______ _______ _____ _____    ______ ____
ROOT
ATOM      1  O   UNL     1      -7.293 -12.519  19.462  0.00  0.00    -0.371 OA
ATOM      8  C   UNL     1      -8.665 -10.831  18.508  0.00  0.00    +0.111 C 
ATOM      9  C   UNL     1      -7.213 -10.402  18.410  0.00  0.00    +0.164 C 
ATOM     12  C   UNL     1      -6.502 -11.742  18.549  0.00  0.00    +0.165 C 
ATOM     15  C   UNL     1      -8.589 -11.906  19.580  0.00  0.00    +0.181 C 
ENDROOT
BRANCH   9   2
ATOM      2  O   UNL     1      -6.912  -9.770  17.181  0.00  0.00    -0.388 OA
ATOM     22  H   UNL     1      -6.477 -10.419  16.601  0.00  0.00    +0.210 HD
ENDBRANCH   9   2
BRANCH   8   4
ATOM      4  N   UNL     1      -9.571  -9.748  18.856  0.00  0.00    -0.306 NA
ATOM     21  H   UNL     1      -9.052  -8.976  19.274  0.00  0.00    +0.123 HD
BRANCH   4   7
ATOM      7  C   UNL     1     -10.305  -9.286  17.692  0.00  0.00    +0.054 C 
ATOM     10  C   UNL     1     -11.812  -9.254  17.920  0.00  0.00    +0.019 C 
ATOM     11  C   UNL     1      -9.998  -7.836  17.340  0.00  0.00    +0.019 C 
ATOM     13  C   UNL     1     -12.326  -8.348  16.804  0.00  0.00    +0.002 C 
ATOM     14  C   UNL     1     -11.156  -7.433  16.431  0.00  0.00    +0.002 C 
ENDBRANCH   4   7
ENDBRANCH   8   4
BRANCH  12  16
ATOM     16  C   UNL     1      -5.084 -11.616  19.075  0.00  0.00    +0.140 C 
BRANCH  16   5
ATOM      3  O   UNL     1      -4.100  -9.993  16.901  0.00  0.00    -0.253 OA
ATOM      5  N   UNL     1      -4.122 -11.996  18.080  0.00  0.00    -0.297 N 
ATOM      6  N   UNL     1      -2.761 -11.766  16.230  0.00  0.00    -0.297 N 
ATOM     17  C   UNL     1      -3.697 -11.146  17.054  0.00  0.00    +0.300 C 
ATOM     23  H   UNL     1      -3.742 -12.936  18.114  0.00  0.00    +0.150 HD
ATOM     24  H   UNL     1      -2.436 -12.693  16.483  0.00  0.00    +0.150 HD
BRANCH   6  18
ATOM     18  C   UNL     1      -2.161 -11.107  15.094  0.00  0.00    +0.068 C 
ATOM     19  C   UNL     1      -1.729 -12.134  14.054  0.00  0.00    +0.027 C 
ATOM     20  C   UNL     1      -0.988 -10.242  15.536  0.00  0.00    +0.027 C 
ENDBRANCH   6  18
ENDBRANCH  16   5
ENDBRANCH  12  16
TORSDOF 6
ENDMDL
MODEL 5
REMARK VINA RESULT:      -5.5     25.992     28.181
REMARK  Name = 75367100
REMARK  8 active torsions:
REMARK  status: ('A' for Active; 'I' for Inactive)
REMARK    1  A    between atoms: O_2  and  C_9
REMARK    2  A    between atoms: N_4  and  C_7
REMARK    3  A    between atoms: N_4  and  C_8
REMARK    4  A    between atoms: N_5  and  C_16
REMARK    5  A    between atoms: N_6  and  C_18
REMARK    6  A    between atoms: C_12  and  C_16
REMARK    7  A    between atoms: C_18  and  C_19
REMARK    8  A    between atoms: C_18  and  C_20
REMARK                            x       y       z     vdW  Elec       q    Type
REMARK                         _______ _______ _______ _____ _____    ______ ____
ROOT
ATOM      1  O   UNL     1      -1.214 -11.436  15.130  0.00  0.00    -0.371 OA
ATOM      8  C   UNL     1      -3.356 -10.979  16.048  0.00  0.00    +0.111 C 
ATOM      9  C   UNL     1      -3.497 -11.212  14.556  0.00  0.00    +0.164 C 
ATOM     12  C   UNL     1      -2.217 -11.980  14.257  0.00  0.00    +0.165 C 
ATOM     15  C   UNL     1      -1.868 -10.686  16.168  0.00  0.00    +0.181 C 
ENDROOT
BRANCH   9   2
ATOM      2  O   UNL     1      -4.651 -11.962  14.227  0.00  0.00    -0.388 OA
ATOM     22  H   UNL     1      -5.218 -11.416  13.656  0.00  0.00    +0.210 HD
ENDBRANCH   9   2
BRANCH   8   4
ATOM      4  N   UNL     1      -4.187  -9.898  16.552  0.00  0.00    -0.306 NA
ATOM     21  H   UNL     1      -4.722  -9.482  15.790  0.00  0.00    +0.123 HD
BRANCH   4   7
ATOM      7  C   UNL     1      -5.083 -10.369  17.593  0.00  0.00    +0.054 C 
ATOM     10  C   UNL     1      -6.466 -10.730  17.064  0.00  0.00    +0.019 C 
ATOM     11  C   UNL     1      -4.621 -11.681  18.218  0.00  0.00    +0.019 C 
ATOM     13  C   UNL     1      -7.061 -11.594  18.173  0.00  0.00    +0.002 C 
ATOM     14  C   UNL     1      -5.872 -12.207  18.916  0.00  0.00    +0.002 C 
ENDBRANCH   4   7
ENDBRANCH   8   4
BRANCH  12  16
ATOM     16  C   UNL     1      -1.765 -11.854  12.813  0.00  0.00    +0.140 C 
BRANCH  16   5
ATOM      3  O   UNL     1      -1.918  -9.637  10.972  0.00  0.00    -0.253 OA
ATOM      5  N   UNL     1      -2.862 -11.521  11.950  0.00  0.00    -0.297 N 
ATOM      6  N   UNL     1      -4.046 -10.334  10.364  0.00  0.00    -0.297 N 
ATOM     17  C   UNL     1      -2.857 -10.424  11.084  0.00  0.00    +0.300 C 
ATOM     23  H   UNL     1      -3.691 -12.105  11.982  0.00  0.00    +0.150 HD
ATOM     24  H   UNL     1      -4.732 -11.075  10.471  0.00  0.00    +0.150 HD
BRANCH   6  18
ATOM     18  C   UNL     1      -4.300  -9.291   9.398  0.00  0.00    +0.068 C 
ATOM     19  C   UNL     1      -5.172  -8.203  10.012  0.00  0.00    +0.027 C 
ATOM     20  C   UNL     1      -4.938  -9.868   8.142  0.00  0.00    +0.027 C 
ENDBRANCH   6  18
ENDBRANCH  16   5
ENDBRANCH  12  16
TORSDOF 6
ENDMDL
MODEL 6
REMARK VINA RESULT:      -5.4     20.898     23.618
REMARK  Name = 75367100
REMARK  8 active torsions:
REMARK  status: ('A' for Active; 'I' for Inactive)
REMARK    1  A    between atoms: O_2  and  C_9
REMARK    2  A    between atoms: N_4  and  C_7
REMARK    3  A    between atoms: N_4  and  C_8
REMARK    4  A    between atoms: N_5  and  C_16
REMARK    5  A    between atoms: N_6  and  C_18
REMARK    6  A    between atoms: C_12  and  C_16
REMARK    7  A    between atoms: C_18  and  C_19
REMARK    8  A    between atoms: C_18  and  C_20
REMARK                            x       y       z     vdW  Elec       q    Type
REMARK                         _______ _______ _______ _____ _____    ______ ____
ROOT
ATOM      1  O   UNL     1      -2.516  11.359  36.485  0.00  0.00    -0.371 OA
ATOM      8  C   UNL     1      -4.563  10.161  36.351  0.00  0.00    +0.111 C 
ATOM      9  C   UNL     1      -3.414   9.172  36.404  0.00  0.00    +0.164 C 
ATOM     12  C   UNL     1      -2.312  10.035  37.004  0.00  0.00    +0.165 C 
ATOM     15  C   UNL     1      -3.844  11.436  35.937  0.00  0.00    +0.181 C 
ENDROOT
BRANCH   9   2
ATOM      2  O   UNL     1      -3.699   8.046  37.210  0.00  0.00    -0.388 OA
ATOM     22  H   UNL     1      -4.108   7.364  36.650  0.00  0.00    +0.210 HD
ENDBRANCH   9   2
BRANCH   8   4
ATOM      4  N   UNL     1      -5.618   9.781  35.426  0.00  0.00    -0.306 NA
ATOM     21  H   UNL     1      -5.476   8.824  35.104  0.00  0.00    +0.123 HD
BRANCH   4   7
ATOM      7  C   UNL     1      -6.926   9.913  36.041  0.00  0.00    +0.054 C 
ATOM     10  C   UNL     1      -8.054   9.986  35.020  0.00  0.00    +0.019 C 
ATOM     11  C   UNL     1      -7.314   8.692  36.867  0.00  0.00    +0.019 C 
ATOM     13  C   UNL     1      -9.303   9.667  35.838  0.00  0.00    +0.002 C 
ATOM     14  C   UNL     1      -8.825   8.832  37.029  0.00  0.00    +0.002 C 
ENDBRANCH   4   7
ENDBRANCH   8   4
BRANCH  12  16
ATOM     16  C   UNL     1      -0.915   9.555  36.653  0.00  0.00    +0.140 C 
BRANCH  16   5
ATOM      3  O   UNL     1      -0.444   8.535  39.311  0.00  0.00    -0.253 OA
ATOM      5  N   UNL     1      -0.724   8.184  37.032  0.00  0.00    -0.297 N 
ATOM      6  N   UNL     1      -0.349   6.389  38.433  0.00  0.00    -0.297 N 
ATOM     17  C   UNL     1      -0.500   7.771  38.349  0.00  0.00    +0.300 C 
ATOM     23  H   UNL     1      -0.739   7.478  36.302  0.00  0.00    +0.150 HD
ATOM     24  H   UNL     1      -0.487   5.837  37.593  0.00  0.00    +0.150 HD
BRANCH   6  18
ATOM     18  C   UNL     1      -0.107   5.703  39.682  0.00  0.00    +0.068 C 
ATOM     19  C   UNL     1       1.067   4.744  39.538  0.00  0.00    +0.027 C 
ATOM     20  C   UNL     1      -1.362   4.976  40.144  0.00  0.00    +0.027 C 
ENDBRANCH   6  18
ENDBRANCH  16   5
ENDBRANCH  12  16
TORSDOF 6
ENDMDL
MODEL 7
REMARK VINA RESULT:      -5.3     26.585     28.560
REMARK  Name = 75367100
REMARK  8 active torsions:
REMARK  status: ('A' for Active; 'I' for Inactive)
REMARK    1  A    between atoms: O_2  and  C_9
REMARK    2  A    between atoms: N_4  and  C_7
REMARK    3  A    between atoms: N_4  and  C_8
REMARK    4  A    between atoms: N_5  and  C_16
REMARK    5  A    between atoms: N_6  and  C_18
REMARK    6  A    between atoms: C_12  and  C_16
REMARK    7  A    between atoms: C_18  and  C_19
REMARK    8  A    between atoms: C_18  and  C_20
REMARK                            x       y       z     vdW  Elec       q    Type
REMARK                         _______ _______ _______ _____ _____    ______ ____
ROOT
ATOM      1  O   UNL     1      -4.456 -11.173  13.132  0.00  0.00    -0.371 OA
ATOM      8  C   UNL     1      -3.671 -10.902  15.357  0.00  0.00    +0.111 C 
ATOM      9  C   UNL     1      -2.503 -10.756  14.400  0.00  0.00    +0.164 C 
ATOM     12  C   UNL     1      -3.228 -10.428  13.102  0.00  0.00    +0.165 C 
ATOM     15  C   UNL     1      -4.692 -11.612  14.481  0.00  0.00    +0.181 C 
ENDROOT
BRANCH   9   2
ATOM      2  O   UNL     1      -1.611  -9.728  14.781  0.00  0.00    -0.388 OA
ATOM     22  H   UNL     1      -0.989  -9.575  14.048  0.00  0.00    +0.210 HD
ENDBRANCH   9   2
BRANCH   8   4
ATOM      4  N   UNL     1      -3.347 -11.645  16.564  0.00  0.00    -0.306 NA
ATOM     21  H   UNL     1      -2.546 -11.224  17.033  0.00  0.00    +0.123 HD
BRANCH   4   7
ATOM      7  C   UNL     1      -4.484 -11.699  17.466  0.00  0.00    +0.054 C 
ATOM     10  C   UNL     1      -4.087 -12.049  18.895  0.00  0.00    +0.019 C 
ATOM     11  C   UNL     1      -5.163 -10.346  17.639  0.00  0.00    +0.019 C 
ATOM     13  C   UNL     1      -5.295 -11.615  19.721  0.00  0.00    +0.002 C 
ATOM     14  C   UNL     1      -5.988 -10.516  18.911  0.00  0.00    +0.002 C 
ENDBRANCH   4   7
ENDBRANCH   8   4
BRANCH  12  16
ATOM     16  C   UNL     1      -2.434 -10.796  11.861  0.00  0.00    +0.140 C 
BRANCH  16   5
ATOM      3  O   UNL     1      -3.371  -9.016   9.792  0.00  0.00    -0.253 OA
ATOM      5  N   UNL     1      -3.300 -11.124  10.765  0.00  0.00    -0.297 N 
ATOM      6  N   UNL     1      -4.545 -10.783   8.853  0.00  0.00    -0.297 N 
ATOM     17  C   UNL     1      -3.709 -10.199   9.801  0.00  0.00    +0.300 C 
ATOM     23  H   UNL     1      -3.644 -12.076  10.696  0.00  0.00    +0.150 HD
ATOM     24  H   UNL     1      -4.705 -11.784   8.903  0.00  0.00    +0.150 HD
BRANCH   6  18
ATOM     18  C   UNL     1      -5.109 -10.046   7.746  0.00  0.00    +0.068 C 
ATOM     19  C   UNL     1      -6.485  -9.508   8.116  0.00  0.00    +0.027 C 
ATOM     20  C   UNL     1      -5.174 -10.918   6.500  0.00  0.00    +0.027 C 
ENDBRANCH   6  18
ENDBRANCH  16   5
ENDBRANCH  12  16
TORSDOF 6
ENDMDL
MODEL 8
REMARK VINA RESULT:      -5.3     26.500     28.427
REMARK  Name = 75367100
REMARK  8 active torsions:
REMARK  status: ('A' for Active; 'I' for Inactive)
REMARK    1  A    between atoms: O_2  and  C_9
REMARK    2  A    between atoms: N_4  and  C_7
REMARK    3  A    between atoms: N_4  and  C_8
REMARK    4  A    between atoms: N_5  and  C_16
REMARK    5  A    between atoms: N_6  and  C_18
REMARK    6  A    between atoms: C_12  and  C_16
REMARK    7  A    between atoms: C_18  and  C_19
REMARK    8  A    between atoms: C_18  and  C_20
REMARK                            x       y       z     vdW  Elec       q    Type
REMARK                         _______ _______ _______ _____ _____    ______ ____
ROOT
ATOM      1  O   UNL     1      -5.952 -10.207  17.360  0.00  0.00    -0.371 OA
ATOM      8  C   UNL     1      -3.960 -11.308  16.682  0.00  0.00    +0.111 C 
ATOM      9  C   UNL     1      -4.348 -11.796  18.065  0.00  0.00    +0.164 C 
ATOM     12  C   UNL     1      -5.826 -11.432  18.099  0.00  0.00    +0.165 C 
ATOM     15  C   UNL     1      -4.757 -10.016  16.584  0.00  0.00    +0.181 C 
ENDROOT
BRANCH   9   2
ATOM      2  O   UNL     1      -4.142 -13.184  18.232  0.00  0.00    -0.388 OA
ATOM     22  H   UNL     1      -3.377 -13.448  17.692  0.00  0.00    +0.210 HD
ENDBRANCH   9   2
BRANCH   8   4
ATOM      4  N   UNL     1      -2.530 -11.104  16.515  0.00  0.00    -0.306 NA
ATOM     21  H   UNL     1      -2.018 -11.585  17.253  0.00  0.00    +0.123 HD
BRANCH   4   7
ATOM      7  C   UNL     1      -2.085 -11.566  15.213  0.00  0.00    +0.054 C 
ATOM     10  C   UNL     1      -3.055 -12.552  14.573  0.00  0.00    +0.019 C 
ATOM     11  C   UNL     1      -2.030 -10.448  14.179  0.00  0.00    +0.019 C 
ATOM     13  C   UNL     1      -2.655 -12.548  13.100  0.00  0.00    +0.002 C 
ATOM     14  C   UNL     1      -1.994 -11.190  12.846  0.00  0.00    +0.002 C 
ENDBRANCH   4   7
ENDBRANCH   8   4
BRANCH  12  16
ATOM     16  C   UNL     1      -6.365 -11.241  19.506  0.00  0.00    +0.140 C 
BRANCH  16   5
ATOM      3  O   UNL     1      -9.063 -12.140  19.019  0.00  0.00    -0.253 OA
ATOM      5  N   UNL     1      -7.556 -10.441  19.505  0.00  0.00    -0.297 N 
ATOM      6  N   UNL     1      -9.806  -9.962  19.318  0.00  0.00    -0.297 N 
ATOM     17  C   UNL     1      -8.832 -10.956  19.258  0.00  0.00    +0.300 C 
ATOM     23  H   UNL     1      -7.464  -9.445  19.679  0.00  0.00    +0.150 HD
ATOM     24  H   UNL     1      -9.525  -9.028  19.597  0.00  0.00    +0.150 HD
BRANCH   6  18
ATOM     18  C   UNL     1     -11.209 -10.228  19.101  0.00  0.00    +0.068 C 
ATOM     19  C   UNL     1     -11.742  -9.361  17.968  0.00  0.00    +0.027 C 
ATOM     20  C   UNL     1     -11.999 -10.008  20.384  0.00  0.00    +0.027 C 
ENDBRANCH   6  18
ENDBRANCH  16   5
ENDBRANCH  12  16
TORSDOF 6
ENDMDL
MODEL 9
REMARK VINA RESULT:      -5.1     24.904     27.411
REMARK  Name = 75367100
REMARK  8 active torsions:
REMARK  status: ('A' for Active; 'I' for Inactive)
REMARK    1  A    between atoms: O_2  and  C_9
REMARK    2  A    between atoms: N_4  and  C_7
REMARK    3  A    between atoms: N_4  and  C_8
REMARK    4  A    between atoms: N_5  and  C_16
REMARK    5  A    between atoms: N_6  and  C_18
REMARK    6  A    between atoms: C_12  and  C_16
REMARK    7  A    between atoms: C_18  and  C_19
REMARK    8  A    between atoms: C_18  and  C_20
REMARK                            x       y       z     vdW  Elec       q    Type
REMARK                         _______ _______ _______ _____ _____    ______ ____
ROOT
ATOM      1  O   UNL     1     -14.726   7.993  20.280  0.00  0.00    -0.371 OA
ATOM      8  C   UNL     1     -12.581   7.131  19.733  0.00  0.00    +0.111 C 
ATOM      9  C   UNL     1     -12.860   6.870  21.202  0.00  0.00    +0.164 C 
ATOM     12  C   UNL     1     -14.379   6.978  21.235  0.00  0.00    +0.165 C 
ATOM     15  C   UNL     1     -13.592   8.225  19.425  0.00  0.00    +0.181 C 
ENDROOT
BRANCH   9   2
ATOM      2  O   UNL     1     -12.413   5.596  21.624  0.00  0.00    -0.388 OA
ATOM     22  H   UNL     1     -12.385   5.588  22.596  0.00  0.00    +0.210 HD
ENDBRANCH   9   2
BRANCH   8   4
ATOM      4  N   UNL     1     -11.211   7.536  19.463  0.00  0.00    -0.306 NA
ATOM     21  H   UNL     1     -10.695   6.767  19.038  0.00  0.00    +0.123 HD
BRANCH   4   7
ATOM      7  C   UNL     1     -11.171   8.703  18.600  0.00  0.00    +0.054 C 
ATOM     10  C   UNL     1     -10.323   9.832  19.174  0.00  0.00    +0.019 C 
ATOM     11  C   UNL     1     -10.485   8.426  17.268  0.00  0.00    +0.019 C 
ATOM     13  C   UNL     1     -10.048  10.725  17.967  0.00  0.00    +0.002 C 
ATOM     14  C   UNL     1     -10.152   9.818  16.739  0.00  0.00    +0.002 C 
ENDBRANCH   4   7
ENDBRANCH   8   4
BRANCH  12  16
ATOM     16  C   UNL     1     -14.924   7.351  22.602  0.00  0.00    +0.140 C 
BRANCH  16   5
ATOM      3  O   UNL     1     -17.105   5.755  23.614  0.00  0.00    -0.253 OA
ATOM      5  N   UNL     1     -14.837   6.248  23.517  0.00  0.00    -0.297 N 
ATOM      6  N   UNL     1     -15.579   4.510  24.841  0.00  0.00    -0.297 N 
ATOM     17  C   UNL     1     -15.947   5.524  23.960  0.00  0.00    +0.300 C 
ATOM     23  H   UNL     1     -13.921   5.990  23.871  0.00  0.00    +0.150 HD
ATOM     24  H   UNL     1     -14.590   4.350  25.006  0.00  0.00    +0.150 HD
BRANCH   6  18
ATOM     18  C   UNL     1     -16.536   3.613  25.446  0.00  0.00    +0.068 C 
ATOM     19  C   UNL     1     -16.121   3.283  26.874  0.00  0.00    +0.027 C 
ATOM     20  C   UNL     1     -16.689   2.350  24.609  0.00  0.00    +0.027 C 
ENDBRANCH   6  18
ENDBRANCH  16   5
ENDBRANCH  12  16
TORSDOF 6
ENDMDL
MODEL 10
REMARK VINA RESULT:      -5.1     26.963     30.008
REMARK  Name = 75367100
REMARK  8 active torsions:
REMARK  status: ('A' for Active; 'I' for Inactive)
REMARK    1  A    between atoms: O_2  and  C_9
REMARK    2  A    between atoms: N_4  and  C_7
REMARK    3  A    between atoms: N_4  and  C_8
REMARK    4  A    between atoms: N_5  and  C_16
REMARK    5  A    between atoms: N_6  and  C_18
REMARK    6  A    between atoms: C_12  and  C_16
REMARK    7  A    between atoms: C_18  and  C_19
REMARK    8  A    between atoms: C_18  and  C_20
REMARK                            x       y       z     vdW  Elec       q    Type
REMARK                         _______ _______ _______ _____ _____    ______ ____
ROOT
ATOM      1  O   UNL     1      -7.669 -13.070  19.217  0.00  0.00    -0.371 OA
ATOM      8  C   UNL     1      -9.099 -11.181  19.391  0.00  0.00    +0.111 C 
ATOM      9  C   UNL     1      -7.658 -10.708  19.350  0.00  0.00    +0.164 C 
ATOM     12  C   UNL     1      -6.971 -11.915  18.724  0.00  0.00    +0.165 C 
ATOM     15  C   UNL     1      -8.925 -12.643  19.773  0.00  0.00    +0.181 C 
ENDROOT
BRANCH   9   2
ATOM      2  O   UNL     1      -7.488  -9.541  18.570  0.00  0.00    -0.388 OA
ATOM     22  H   UNL     1      -8.014  -9.636  17.758  0.00  0.00    +0.210 HD
ENDBRANCH   9   2
BRANCH   8   4
ATOM      4  N   UNL     1      -9.927 -10.446  20.332  0.00  0.00    -0.306 NA
ATOM     21  H   UNL     1      -9.658  -9.463  20.345  0.00  0.00    +0.123 HD
BRANCH   4   7
ATOM      7  C   UNL     1     -11.335 -10.575  20.001  0.00  0.00    +0.054 C 
ATOM     10  C   UNL     1     -12.229  -9.703  20.874  0.00  0.00    +0.019 C 
ATOM     11  C   UNL     1     -11.659 -10.072  18.599  0.00  0.00    +0.019 C 
ATOM     13  C   UNL     1     -13.540  -9.636  20.095  0.00  0.00    +0.002 C 
ATOM     14  C   UNL     1     -13.171  -9.874  18.628  0.00  0.00    +0.002 C 
ENDBRANCH   4   7
ENDBRANCH   8   4
BRANCH  12  16
ATOM     16  C   UNL     1      -5.497 -12.015  19.074  0.00  0.00    +0.140 C 
BRANCH  16   5
ATOM      3  O   UNL     1      -4.400 -12.841  16.536  0.00  0.00    -0.253 OA
ATOM      5  N   UNL     1      -4.694 -11.229  18.183  0.00  0.00    -0.297 N 
ATOM      6  N   UNL     1      -3.452 -10.736  16.301  0.00  0.00    -0.297 N 
ATOM     17  C   UNL     1      -4.199 -11.706  16.966  0.00  0.00    +0.300 C 
ATOM     23  H   UNL     1      -4.461 -10.280  18.458  0.00  0.00    +0.150 HD
ATOM     24  H   UNL     1      -3.406  -9.805  16.701  0.00  0.00    +0.150 HD
BRANCH   6  18
ATOM     18  C   UNL     1      -2.827 -10.971  15.020  0.00  0.00    +0.068 C 
ATOM     19  C   UNL     1      -1.529 -10.183  14.912  0.00  0.00    +0.027 C 
ATOM     20  C   UNL     1      -3.783 -10.620  13.887  0.00  0.00    +0.027 C 
ENDBRANCH   6  18
ENDBRANCH  16   5
ENDBRANCH  12  16
TORSDOF 6
ENDMDL
