MODEL 1
REMARK VINA RESULT:      -8.4      0.000      0.000
REMARK  Name = 45783513
REMARK  4 active torsions:
REMARK  status: ('A' for Active; 'I' for Inactive)
REMARK    1  A    between atoms: N_3  and  C_13
REMARK    2  A    between atoms: C_9  and  C_14
REMARK    3  A    between atoms: C_13  and  C_15
REMARK    4  A    between atoms: C_19  and  C_22
REMARK                            x       y       z     vdW  Elec       q    Type
REMARK                         _______ _______ _______ _____ _____    ______ ____
ROOT
ATOM      1  O   UNL     1     -16.985   1.968  23.480  0.00  0.00    -0.336 OA
ATOM      4  N   UNL     1     -17.541   3.529  24.988  0.00  0.00    -0.190 NA
ATOM      6  N   UNL     1     -16.473   1.525  24.707  0.00  0.00    -0.056 NA
ATOM     14  C   UNL     1     -17.598   3.154  23.735  0.00  0.00    +0.245 A 
ATOM     19  C   UNL     1     -16.841   2.498  25.544  0.00  0.00    +0.204 A 
ENDROOT
BRANCH  19  22
ATOM      2  O   UNL     1     -14.781   2.642  33.650  0.00  0.00    -0.377 OA
ATOM      7  N   UNL     1     -15.603   2.482  30.967  0.00  0.00    -0.311 N 
ATOM      8  N   UNL     1     -15.795   3.655  28.921  0.00  0.00    -0.240 NA
ATOM     22  C   UNL     1     -16.526   2.470  26.944  0.00  0.00    +0.041 A 
ATOM     23  C   UNL     1     -15.819   3.714  31.738  0.00  0.00    +0.134 C 
ATOM     24  C   UNL     1     -14.535   1.611  31.467  0.00  0.00    +0.134 C 
ATOM     25  C   UNL     1     -15.912   2.494  29.603  0.00  0.00    +0.121 A 
ATOM     26  C   UNL     1     -15.924   3.381  33.221  0.00  0.00    +0.178 C 
ATOM     27  C   UNL     1     -14.707   1.391  32.966  0.00  0.00    +0.178 C 
ATOM     30  C   UNL     1     -16.635   1.295  27.680  0.00  0.00    +0.016 A 
ATOM     31  C   UNL     1     -16.324   1.299  29.035  0.00  0.00    +0.044 A 
ATOM     32  C   UNL     1     -16.106   3.613  27.606  0.00  0.00    +0.124 A 
ENDBRANCH  19  22
BRANCH  14   9
ATOM      3  N   UNL     1     -17.257   4.263  21.533  0.00  0.00    -0.287 NA
ATOM      9  C   UNL     1     -18.242   3.849  22.553  0.00  0.00    +0.146 C 
ATOM     10  C   UNL     1     -19.230   2.942  21.796  0.00  0.00    +0.030 C 
ATOM     11  C   UNL     1     -17.958   4.240  20.249  0.00  0.00    +0.085 C 
ATOM     12  C   UNL     1     -18.756   2.956  20.350  0.00  0.00    +0.017 C 
BRANCH   3  13
ATOM     13  C   UNL     1     -16.657   5.562  21.807  0.00  0.00    +0.122 C 
BRANCH  13  15
ATOM      5  N   UNL     1     -13.105   4.827  22.428  0.00  0.00    -0.360 N 
ATOM     15  C   UNL     1     -15.156   5.481  21.884  0.00  0.00    -0.008 A 
ATOM     16  C   UNL     1     -14.226   6.325  21.213  0.00  0.00    +0.004 A 
ATOM     17  C   UNL     1     -14.436   4.569  22.622  0.00  0.00    +0.088 A 
ATOM     18  C   UNL     1     -12.947   5.893  21.572  0.00  0.00    +0.047 A 
ATOM     20  C   UNL     1     -14.350   7.419  20.334  0.00  0.00    +0.010 A 
ATOM     21  C   UNL     1     -11.782   6.502  21.092  0.00  0.00    +0.026 A 
ATOM     28  C   UNL     1     -13.195   8.038  19.847  0.00  0.00    +0.001 A 
ATOM     29  C   UNL     1     -11.931   7.585  20.221  0.00  0.00    +0.002 A 
ATOM     33  H   UNL     1     -12.348   4.306  22.849  0.00  0.00    +0.165 HD
ENDBRANCH  13  15
ENDBRANCH   3  13
ENDBRANCH  14   9
TORSDOF 4
ENDMDL
MODEL 2
REMARK VINA RESULT:      -8.3     29.482     33.409
REMARK  Name = 45783513
REMARK  4 active torsions:
REMARK  status: ('A' for Active; 'I' for Inactive)
REMARK    1  A    between atoms: N_3  and  C_13
REMARK    2  A    between atoms: C_9  and  C_14
REMARK    3  A    between atoms: C_13  and  C_15
REMARK    4  A    between atoms: C_19  and  C_22
REMARK                            x       y       z     vdW  Elec       q    Type
REMARK                         _______ _______ _______ _____ _____    ______ ____
ROOT
ATOM      1  O   UNL     1      15.969   8.320  20.026  0.00  0.00    -0.336 OA
ATOM      4  N   UNL     1      16.634   6.219  19.623  0.00  0.00    -0.190 NA
ATOM      6  N   UNL     1      17.229   8.188  20.623  0.00  0.00    -0.056 NA
ATOM     14  C   UNL     1      15.694   7.116  19.460  0.00  0.00    +0.245 A 
ATOM     19  C   UNL     1      17.555   6.924  20.342  0.00  0.00    +0.204 A 
ENDROOT
BRANCH  19  22
ATOM      2  O   UNL     1      24.847   3.806  23.000  0.00  0.00    -0.377 OA
ATOM      7  N   UNL     1      22.351   4.691  22.058  0.00  0.00    -0.311 N 
ATOM      8  N   UNL     1      20.597   6.248  22.372  0.00  0.00    -0.240 NA
ATOM     22  C   UNL     1      18.792   6.334  20.765  0.00  0.00    +0.041 A 
ATOM     23  C   UNL     1      22.632   4.658  23.500  0.00  0.00    +0.134 C 
ATOM     24  C   UNL     1      23.534   4.753  21.193  0.00  0.00    +0.134 C 
ATOM     25  C   UNL     1      21.146   5.258  21.632  0.00  0.00    +0.121 A 
ATOM     26  C   UNL     1      23.681   3.594  23.796  0.00  0.00    +0.178 C 
ATOM     27  C   UNL     1      24.536   3.683  21.612  0.00  0.00    +0.178 C 
ATOM     30  C   UNL     1      19.387   5.313  20.031  0.00  0.00    +0.016 A 
ATOM     31  C   UNL     1      20.586   4.760  20.467  0.00  0.00    +0.044 A 
ATOM     32  C   UNL     1      19.431   6.762  21.918  0.00  0.00    +0.124 A 
ENDBRANCH  19  22
BRANCH  14   9
ATOM      3  N   UNL     1      13.279   7.717  19.432  0.00  0.00    -0.287 NA
ATOM      9  C   UNL     1      14.367   6.996  18.740  0.00  0.00    +0.146 C 
ATOM     10  C   UNL     1      14.400   7.603  17.326  0.00  0.00    +0.030 C 
ATOM     11  C   UNL     1      12.333   8.129  18.395  0.00  0.00    +0.085 C 
ATOM     12  C   UNL     1      13.259   8.609  17.297  0.00  0.00    +0.017 C 
BRANCH   3  13
ATOM     13  C   UNL     1      12.639   6.928  20.476  0.00  0.00    +0.122 C 
BRANCH  13  15
ATOM      5  N   UNL     1       9.990   8.511  22.481  0.00  0.00    -0.360 N 
ATOM     15  C   UNL     1      11.755   7.772  21.355  0.00  0.00    -0.008 A 
ATOM     16  C   UNL     1      12.122   8.978  22.017  0.00  0.00    +0.004 A 
ATOM     17  C   UNL     1      10.439   7.511  21.660  0.00  0.00    +0.088 A 
ATOM     18  C   UNL     1      10.997   9.420  22.716  0.00  0.00    +0.047 A 
ATOM     20  C   UNL     1      13.306   9.738  22.088  0.00  0.00    +0.010 A 
ATOM     21  C   UNL     1      10.997  10.588  23.487  0.00  0.00    +0.026 A 
ATOM     28  C   UNL     1      13.321  10.908  22.854  0.00  0.00    +0.001 A 
ATOM     29  C   UNL     1      12.183  11.325  23.542  0.00  0.00    +0.002 A 
ATOM     33  H   UNL     1       9.056   8.571  22.862  0.00  0.00    +0.165 HD
ENDBRANCH  13  15
ENDBRANCH   3  13
ENDBRANCH  14   9
TORSDOF 4
ENDMDL
MODEL 3
REMARK VINA RESULT:      -8.0     29.651     33.585
REMARK  Name = 45783513
REMARK  4 active torsions:
REMARK  status: ('A' for Active; 'I' for Inactive)
REMARK    1  A    between atoms: N_3  and  C_13
REMARK    2  A    between atoms: C_9  and  C_14
REMARK    3  A    between atoms: C_13  and  C_15
REMARK    4  A    between atoms: C_19  and  C_22
REMARK                            x       y       z     vdW  Elec       q    Type
REMARK                         _______ _______ _______ _____ _____    ______ ____
ROOT
ATOM      1  O   UNL     1      14.541   6.818  19.455  0.00  0.00    -0.336 OA
ATOM      4  N   UNL     1      15.750   7.604  21.171  0.00  0.00    -0.190 NA
ATOM      6  N   UNL     1      15.811   6.239  19.336  0.00  0.00    -0.056 NA
ATOM     14  C   UNL     1      14.591   7.608  20.560  0.00  0.00    +0.245 A 
ATOM     19  C   UNL     1      16.465   6.750  20.382  0.00  0.00    +0.204 A 
ENDROOT
BRANCH  19  22
ATOM      2  O   UNL     1      24.474   5.209  22.235  0.00  0.00    -0.377 OA
ATOM      7  N   UNL     1      21.766   5.557  21.568  0.00  0.00    -0.311 N 
ATOM      8  N   UNL     1      19.777   6.734  22.074  0.00  0.00    -0.240 NA
ATOM     22  C   UNL     1      17.834   6.428  20.669  0.00  0.00    +0.041 A 
ATOM     23  C   UNL     1      22.198   5.606  22.972  0.00  0.00    +0.134 C 
ATOM     24  C   UNL     1      22.814   5.841  20.582  0.00  0.00    +0.134 C 
ATOM     25  C   UNL     1      20.433   5.863  21.276  0.00  0.00    +0.121 A 
ATOM     26  C   UNL     1      23.466   4.780  23.149  0.00  0.00    +0.178 C 
ATOM     27  C   UNL     1      24.051   5.003  20.888  0.00  0.00    +0.178 C 
ATOM     30  C   UNL     1      18.541   5.536  19.871  0.00  0.00    +0.016 A 
ATOM     31  C   UNL     1      19.866   5.243  20.174  0.00  0.00    +0.044 A 
ATOM     32  C   UNL     1      18.491   6.995  21.749  0.00  0.00    +0.124 A 
ENDBRANCH  19  22
BRANCH  14   9
ATOM      3  N   UNL     1      12.539   8.737  19.719  0.00  0.00    -0.287 NA
ATOM      9  C   UNL     1      13.323   8.357  20.912  0.00  0.00    +0.146 C 
ATOM     10  C   UNL     1      12.353   7.519  21.765  0.00  0.00    +0.030 C 
ATOM     11  C   UNL     1      11.139   8.776  20.140  0.00  0.00    +0.085 C 
ATOM     12  C   UNL     1      11.036   7.534  21.003  0.00  0.00    +0.017 C 
BRANCH   3  13
ATOM     13  C   UNL     1      12.968   9.997  19.127  0.00  0.00    +0.122 C 
BRANCH  13  15
ATOM      5  N   UNL     1      13.666   9.021  15.648  0.00  0.00    -0.360 N 
ATOM     15  C   UNL     1      13.436   9.819  17.707  0.00  0.00    -0.008 A 
ATOM     16  C   UNL     1      14.399  10.616  17.026  0.00  0.00    +0.004 A 
ATOM     17  C   UNL     1      13.004   8.848  16.835  0.00  0.00    +0.088 A 
ATOM     18  C   UNL     1      14.524  10.094  15.737  0.00  0.00    +0.047 A 
ATOM     20  C   UNL     1      15.178  11.734  17.383  0.00  0.00    +0.010 A 
ATOM     21  C   UNL     1      15.393  10.637  14.783  0.00  0.00    +0.026 A 
ATOM     28  C   UNL     1      16.051  12.288  16.441  0.00  0.00    +0.001 A 
ATOM     29  C   UNL     1      16.155  11.746  15.161  0.00  0.00    +0.002 A 
ATOM     33  H   UNL     1      13.541   8.446  14.826  0.00  0.00    +0.165 HD
ENDBRANCH  13  15
ENDBRANCH   3  13
ENDBRANCH  14   9
TORSDOF 4
ENDMDL
MODEL 4
REMARK VINA RESULT:      -7.7     18.295     19.948
REMARK  Name = 45783513
REMARK  4 active torsions:
REMARK  status: ('A' for Active; 'I' for Inactive)
REMARK    1  A    between atoms: N_3  and  C_13
REMARK    2  A    between atoms: C_9  and  C_14
REMARK    3  A    between atoms: C_13  and  C_15
REMARK    4  A    between atoms: C_19  and  C_22
REMARK                            x       y       z     vdW  Elec       q    Type
REMARK                         _______ _______ _______ _____ _____    ______ ____
ROOT
ATOM      1  O   UNL     1      -3.700 -11.418  18.174  0.00  0.00    -0.336 OA
ATOM      4  N   UNL     1      -5.329 -11.068  16.676  0.00  0.00    -0.190 NA
ATOM      6  N   UNL     1      -4.883 -11.269  18.911  0.00  0.00    -0.056 NA
ATOM     14  C   UNL     1      -4.052 -11.285  16.868  0.00  0.00    +0.245 A 
ATOM     19  C   UNL     1      -5.797 -11.067  17.958  0.00  0.00    +0.204 A 
ENDROOT
BRANCH  19  22
ATOM      2  O   UNL     1     -13.852  -9.495  19.570  0.00  0.00    -0.377 OA
ATOM      7  N   UNL     1     -11.182 -10.195  19.040  0.00  0.00    -0.311 N 
ATOM      8  N   UNL     1      -9.211  -9.594  17.877  0.00  0.00    -0.240 NA
ATOM     22  C   UNL     1      -7.186 -10.860  18.253  0.00  0.00    +0.041 A 
ATOM     23  C   UNL     1     -12.026  -9.627  17.979  0.00  0.00    +0.134 C 
ATOM     24  C   UNL     1     -11.610  -9.889  20.409  0.00  0.00    +0.134 C 
ATOM     25  C   UNL     1      -9.828 -10.407  18.764  0.00  0.00    +0.121 A 
ATOM     26  C   UNL     1     -13.490  -9.941  18.264  0.00  0.00    +0.178 C 
ATOM     27  C   UNL     1     -13.097 -10.188  20.564  0.00  0.00    +0.178 C 
ATOM     30  C   UNL     1      -7.855 -11.676  19.158  0.00  0.00    +0.016 A 
ATOM     31  C   UNL     1      -9.201 -11.452  19.423  0.00  0.00    +0.044 A 
ATOM     32  C   UNL     1      -7.902  -9.841  17.645  0.00  0.00    +0.124 A 
ENDBRANCH  19  22
BRANCH  14   9
ATOM      3  N   UNL     1      -3.178 -10.594  14.643  0.00  0.00    -0.287 NA
ATOM      9  C   UNL     1      -2.935 -11.406  15.853  0.00  0.00    +0.146 C 
ATOM     10  C   UNL     1      -1.583 -10.907  16.393  0.00  0.00    +0.030 C 
ATOM     11  C   UNL     1      -1.861 -10.224  14.123  0.00  0.00    +0.085 C 
ATOM     12  C   UNL     1      -1.114  -9.862  15.391  0.00  0.00    +0.017 C 
BRANCH   3  13
ATOM     13  C   UNL     1      -3.988 -11.279  13.644  0.00  0.00    +0.122 C 
BRANCH  13  15
ATOM      5  N   UNL     1      -6.572  -8.975  12.396  0.00  0.00    -0.360 N 
ATOM     15  C   UNL     1      -4.882 -10.326  12.898  0.00  0.00    -0.008 A 
ATOM     16  C   UNL     1      -4.670  -9.815  11.586  0.00  0.00    +0.004 A 
ATOM     17  C   UNL     1      -6.059  -9.791  13.370  0.00  0.00    +0.088 A 
ATOM     18  C   UNL     1      -5.744  -8.971  11.296  0.00  0.00    +0.047 A 
ATOM     20  C   UNL     1      -3.665  -9.991  10.615  0.00  0.00    +0.010 A 
ATOM     21  C   UNL     1      -5.863  -8.291  10.079  0.00  0.00    +0.026 A 
ATOM     28  C   UNL     1      -3.770  -9.317   9.394  0.00  0.00    +0.001 A 
ATOM     29  C   UNL     1      -4.853  -8.480   9.132  0.00  0.00    +0.002 A 
ATOM     33  H   UNL     1      -7.432  -8.450  12.475  0.00  0.00    +0.165 HD
ENDBRANCH  13  15
ENDBRANCH   3  13
ENDBRANCH  14   9
TORSDOF 4
ENDMDL
MODEL 5
REMARK VINA RESULT:      -7.7     29.314     33.238
REMARK  Name = 45783513
REMARK  4 active torsions:
REMARK  status: ('A' for Active; 'I' for Inactive)
REMARK    1  A    between atoms: N_3  and  C_13
REMARK    2  A    between atoms: C_9  and  C_14
REMARK    3  A    between atoms: C_13  and  C_15
REMARK    4  A    between atoms: C_19  and  C_22
REMARK                            x       y       z     vdW  Elec       q    Type
REMARK                         _______ _______ _______ _____ _____    ______ ____
ROOT
ATOM      1  O   UNL     1      16.434   5.747  18.395  0.00  0.00    -0.336 OA
ATOM      4  N   UNL     1      16.381   7.226  20.077  0.00  0.00    -0.190 NA
ATOM      6  N   UNL     1      17.698   5.698  18.999  0.00  0.00    -0.056 NA
ATOM     14  C   UNL     1      15.722   6.671  19.091  0.00  0.00    +0.245 A 
ATOM     19  C   UNL     1      17.587   6.596  19.980  0.00  0.00    +0.204 A 
ENDROOT
BRANCH  19  22
ATOM      2  O   UNL     1      23.969   7.937  25.218  0.00  0.00    -0.377 OA
ATOM      7  N   UNL     1      21.810   7.661  23.441  0.00  0.00    -0.311 N 
ATOM      8  N   UNL     1      20.854   6.325  21.738  0.00  0.00    -0.240 NA
ATOM     22  C   UNL     1      18.664   6.890  20.882  0.00  0.00    +0.041 A 
ATOM     23  C   UNL     1      23.169   7.290  23.022  0.00  0.00    +0.134 C 
ATOM     24  C   UNL     1      21.581   7.662  24.889  0.00  0.00    +0.134 C 
ATOM     25  C   UNL     1      20.752   7.386  22.569  0.00  0.00    +0.121 A 
ATOM     26  C   UNL     1      24.189   8.095  23.817  0.00  0.00    +0.178 C 
ATOM     27  C   UNL     1      22.688   8.447  25.586  0.00  0.00    +0.178 C 
ATOM     30  C   UNL     1      18.596   7.973  21.751  0.00  0.00    +0.016 A 
ATOM     31  C   UNL     1      19.656   8.233  22.613  0.00  0.00    +0.044 A 
ATOM     32  C   UNL     1      19.805   6.103  20.914  0.00  0.00    +0.124 A 
ENDBRANCH  19  22
BRANCH  14   9
ATOM      3  N   UNL     1      13.536   7.762  19.567  0.00  0.00    -0.287 NA
ATOM      9  C   UNL     1      14.300   6.915  18.629  0.00  0.00    +0.146 C 
ATOM     10  C   UNL     1      14.231   7.661  17.284  0.00  0.00    +0.030 C 
ATOM     11  C   UNL     1      12.546   8.479  18.763  0.00  0.00    +0.085 C 
ATOM     12  C   UNL     1      13.359   8.879  17.548  0.00  0.00    +0.017 C 
BRANCH   3  13
ATOM     13  C   UNL     1      12.920   7.008  20.651  0.00  0.00    +0.122 C 
BRANCH  13  15
ATOM      5  N   UNL     1      10.023   8.534  22.332  0.00  0.00    -0.360 N 
ATOM     15  C   UNL     1      11.920   7.838  21.413  0.00  0.00    -0.008 A 
ATOM     16  C   UNL     1      12.174   9.069  22.081  0.00  0.00    +0.004 A 
ATOM     17  C   UNL     1      10.590   7.535  21.586  0.00  0.00    +0.088 A 
ATOM     18  C   UNL     1      10.968   9.484  22.648  0.00  0.00    +0.047 A 
ATOM     20  C   UNL     1      13.318   9.873  22.256  0.00  0.00    +0.010 A 
ATOM     21  C   UNL     1      10.848  10.667  23.387  0.00  0.00    +0.026 A 
ATOM     28  C   UNL     1      13.213  11.058  22.991  0.00  0.00    +0.001 A 
ATOM     29  C   UNL     1      11.996  11.447  23.548  0.00  0.00    +0.002 A 
ATOM     33  H   UNL     1       9.052   8.567  22.613  0.00  0.00    +0.165 HD
ENDBRANCH  13  15
ENDBRANCH   3  13
ENDBRANCH  14   9
TORSDOF 4
ENDMDL
MODEL 6
REMARK VINA RESULT:      -7.6     16.788     19.409
REMARK  Name = 45783513
REMARK  4 active torsions:
REMARK  status: ('A' for Active; 'I' for Inactive)
REMARK    1  A    between atoms: N_3  and  C_13
REMARK    2  A    between atoms: C_9  and  C_14
REMARK    3  A    between atoms: C_13  and  C_15
REMARK    4  A    between atoms: C_19  and  C_22
REMARK                            x       y       z     vdW  Elec       q    Type
REMARK                         _______ _______ _______ _____ _____    ______ ____
ROOT
ATOM      1  O   UNL     1      -8.174  -9.488  17.803  0.00  0.00    -0.336 OA
ATOM      4  N   UNL     1      -8.513  -9.335  15.593  0.00  0.00    -0.190 NA
ATOM      6  N   UNL     1      -9.303  -8.676  17.636  0.00  0.00    -0.056 NA
ATOM     14  C   UNL     1      -7.772  -9.833  16.551  0.00  0.00    +0.245 A 
ATOM     19  C   UNL     1      -9.439  -8.633  16.308  0.00  0.00    +0.204 A 
ENDROOT
BRANCH  19  22
ATOM      2  O   UNL     1     -15.467  -4.521  12.220  0.00  0.00    -0.377 OA
ATOM      7  N   UNL     1     -13.516  -5.850  13.744  0.00  0.00    -0.311 N 
ATOM      8  N   UNL     1     -12.075  -7.725  13.846  0.00  0.00    -0.240 NA
ATOM     22  C   UNL     1     -10.489  -7.897  15.663  0.00  0.00    +0.041 A 
ATOM     23  C   UNL     1     -14.520  -6.616  12.992  0.00  0.00    +0.134 C 
ATOM     24  C   UNL     1     -13.272  -4.489  13.255  0.00  0.00    +0.134 C 
ATOM     25  C   UNL     1     -12.490  -6.555  14.382  0.00  0.00    +0.121 A 
ATOM     26  C   UNL     1     -15.781  -5.777  12.818  0.00  0.00    +0.178 C 
ATOM     27  C   UNL     1     -14.600  -3.764  13.066  0.00  0.00    +0.178 C 
ATOM     30  C   UNL     1     -10.944  -6.692  16.185  0.00  0.00    +0.016 A 
ATOM     31  C   UNL     1     -11.963  -6.002  15.538  0.00  0.00    +0.044 A 
ATOM     32  C   UNL     1     -11.082  -8.367  14.501  0.00  0.00    +0.124 A 
ENDBRANCH  19  22
BRANCH  14   9
ATOM      3  N   UNL     1      -5.706 -10.406  15.288  0.00  0.00    -0.287 NA
ATOM      9  C   UNL     1      -6.551 -10.724  16.457  0.00  0.00    +0.146 C 
ATOM     10  C   UNL     1      -5.612 -10.577  17.668  0.00  0.00    +0.030 C 
ATOM     11  C   UNL     1      -4.336 -10.760  15.660  0.00  0.00    +0.085 C 
ATOM     12  C   UNL     1      -4.251 -10.236  17.079  0.00  0.00    +0.017 C 
BRANCH   3  13
ATOM     13  C   UNL     1      -6.134 -11.080  14.069  0.00  0.00    +0.122 C 
BRANCH  13  15
ATOM      5  N   UNL     1      -6.572  -8.730  11.271  0.00  0.00    -0.360 N 
ATOM     15  C   UNL     1      -6.039 -10.178  12.867  0.00  0.00    -0.008 A 
ATOM     16  C   UNL     1      -4.893  -9.978  12.046  0.00  0.00    +0.004 A 
ATOM     17  C   UNL     1      -7.054  -9.397  12.366  0.00  0.00    +0.088 A 
ATOM     18  C   UNL     1      -5.255  -9.065  11.053  0.00  0.00    +0.047 A 
ATOM     20  C   UNL     1      -3.580 -10.487  12.053  0.00  0.00    +0.010 A 
ATOM     21  C   UNL     1      -4.365  -8.634  10.063  0.00  0.00    +0.026 A 
ATOM     28  C   UNL     1      -2.679 -10.066  11.069  0.00  0.00    +0.001 A 
ATOM     29  C   UNL     1      -3.068  -9.153  10.090  0.00  0.00    +0.002 A 
ATOM     33  H   UNL     1      -7.105  -8.082  10.707  0.00  0.00    +0.165 HD
ENDBRANCH  13  15
ENDBRANCH   3  13
ENDBRANCH  14   9
TORSDOF 4
ENDMDL
MODEL 7
REMARK VINA RESULT:      -7.5     20.504     23.849
REMARK  Name = 45783513
REMARK  4 active torsions:
REMARK  status: ('A' for Active; 'I' for Inactive)
REMARK    1  A    between atoms: N_3  and  C_13
REMARK    2  A    between atoms: C_9  and  C_14
REMARK    3  A    between atoms: C_13  and  C_15
REMARK    4  A    between atoms: C_19  and  C_22
REMARK                            x       y       z     vdW  Elec       q    Type
REMARK                         _______ _______ _______ _____ _____    ______ ____
ROOT
ATOM      1  O   UNL     1      -1.880 -10.100  11.607  0.00  0.00    -0.336 OA
ATOM      4  N   UNL     1      -3.979 -10.885  11.632  0.00  0.00    -0.190 NA
ATOM      6  N   UNL     1      -2.555  -9.445  10.567  0.00  0.00    -0.056 NA
ATOM     14  C   UNL     1      -2.791 -10.929  12.181  0.00  0.00    +0.245 A 
ATOM     19  C   UNL     1      -3.784  -9.961  10.647  0.00  0.00    +0.204 A 
ENDROOT
BRANCH  19  22
ATOM      2  O   UNL     1      -9.700  -7.733   5.169  0.00  0.00    -0.377 OA
ATOM      7  N   UNL     1      -7.839  -8.508   7.128  0.00  0.00    -0.311 N 
ATOM      8  N   UNL     1      -5.764  -9.575   7.522  0.00  0.00    -0.240 NA
ATOM     22  C   UNL     1      -4.842  -9.575   9.757  0.00  0.00    +0.041 A 
ATOM     23  C   UNL     1      -8.111  -9.379   5.975  0.00  0.00    +0.134 C 
ATOM     24  C   UNL     1      -8.158  -7.091   6.929  0.00  0.00    +0.134 C 
ATOM     25  C   UNL     1      -6.815  -8.877   8.006  0.00  0.00    +0.121 A 
ATOM     26  C   UNL     1      -9.520  -9.119   5.456  0.00  0.00    +0.178 C 
ATOM     27  C   UNL     1      -9.565  -6.953   6.358  0.00  0.00    +0.178 C 
ATOM     30  C   UNL     1      -5.940  -8.857  10.218  0.00  0.00    +0.016 A 
ATOM     31  C   UNL     1      -6.950  -8.498   9.333  0.00  0.00    +0.044 A 
ATOM     32  C   UNL     1      -4.801  -9.906   8.412  0.00  0.00    +0.124 A 
ENDBRANCH  19  22
BRANCH  14   9
ATOM      3  N   UNL     1      -3.302 -11.862  14.431  0.00  0.00    -0.287 NA
ATOM      9  C   UNL     1      -2.303 -11.762  13.348  0.00  0.00    +0.146 C 
ATOM     10  C   UNL     1      -2.005 -13.220  12.955  0.00  0.00    +0.030 C 
ATOM     11  C   UNL     1      -3.069 -13.148  15.090  0.00  0.00    +0.085 C 
ATOM     12  C   UNL     1      -2.834 -14.068  13.909  0.00  0.00    +0.017 C 
BRANCH   3  13
ATOM     13  C   UNL     1      -3.248 -10.748  15.368  0.00  0.00    +0.122 C 
BRANCH  13  15
ATOM      5  N   UNL     1      -6.695  -9.686  16.101  0.00  0.00    -0.360 N 
ATOM     15  C   UNL     1      -4.607 -10.421  15.928  0.00  0.00    -0.008 A 
ATOM     16  C   UNL     1      -5.066 -10.690  17.249  0.00  0.00    +0.004 A 
ATOM     17  C   UNL     1      -5.630  -9.804  15.247  0.00  0.00    +0.088 A 
ATOM     18  C   UNL     1      -6.378 -10.218  17.330  0.00  0.00    +0.047 A 
ATOM     20  C   UNL     1      -4.490 -11.289  18.386  0.00  0.00    +0.010 A 
ATOM     21  C   UNL     1      -7.146 -10.318  18.496  0.00  0.00    +0.026 A 
ATOM     28  C   UNL     1      -5.245 -11.396  19.559  0.00  0.00    +0.001 A 
ATOM     29  C   UNL     1      -6.553 -10.917  19.611  0.00  0.00    +0.002 A 
ATOM     33  H   UNL     1      -7.585  -9.270  15.862  0.00  0.00    +0.165 HD
ENDBRANCH  13  15
ENDBRANCH   3  13
ENDBRANCH  14   9
TORSDOF 4
ENDMDL
MODEL 8
REMARK VINA RESULT:      -7.4     18.089     20.364
REMARK  Name = 45783513
REMARK  4 active torsions:
REMARK  status: ('A' for Active; 'I' for Inactive)
REMARK    1  A    between atoms: N_3  and  C_13
REMARK    2  A    between atoms: C_9  and  C_14
REMARK    3  A    between atoms: C_13  and  C_15
REMARK    4  A    between atoms: C_19  and  C_22
REMARK                            x       y       z     vdW  Elec       q    Type
REMARK                         _______ _______ _______ _____ _____    ______ ____
ROOT
ATOM      1  O   UNL     1      -4.740 -10.857  17.368  0.00  0.00    -0.336 OA
ATOM      4  N   UNL     1      -5.552 -10.250  15.370  0.00  0.00    -0.190 NA
ATOM      6  N   UNL     1      -6.047 -10.406  17.598  0.00  0.00    -0.056 NA
ATOM     14  C   UNL     1      -4.530 -10.731  16.031  0.00  0.00    +0.245 A 
ATOM     19  C   UNL     1      -6.458 -10.067  16.373  0.00  0.00    +0.204 A 
ENDROOT
BRANCH  19  22
ATOM      2  O   UNL     1     -14.150  -6.974  15.265  0.00  0.00    -0.377 OA
ATOM      7  N   UNL     1     -11.535  -7.983  15.467  0.00  0.00    -0.311 N 
ATOM      8  N   UNL     1      -9.647  -8.220  16.875  0.00  0.00    -0.240 NA
ATOM     22  C   UNL     1      -7.769  -9.540  16.118  0.00  0.00    +0.041 A 
ATOM     23  C   UNL     1     -11.886  -6.699  16.090  0.00  0.00    +0.134 C 
ATOM     24  C   UNL     1     -12.662  -8.890  15.227  0.00  0.00    +0.134 C 
ATOM     25  C   UNL     1     -10.259  -8.504  15.703  0.00  0.00    +0.121 A 
ATOM     26  C   UNL     1     -13.052  -6.066  15.341  0.00  0.00    +0.178 C 
ATOM     27  C   UNL     1     -13.788  -8.139  14.525  0.00  0.00    +0.178 C 
ATOM     30  C   UNL     1      -8.429  -9.810  14.925  0.00  0.00    +0.016 A 
ATOM     31  C   UNL     1      -9.698  -9.286  14.705  0.00  0.00    +0.044 A 
ATOM     32  C   UNL     1      -8.415  -8.747  17.053  0.00  0.00    +0.124 A 
ENDBRANCH  19  22
BRANCH  14   9
ATOM      3  N   UNL     1      -2.836 -10.546  14.217  0.00  0.00    -0.287 NA
ATOM      9  C   UNL     1      -3.170 -11.159  15.519  0.00  0.00    +0.146 C 
ATOM     10  C   UNL     1      -2.022 -10.737  16.455  0.00  0.00    +0.030 C 
ATOM     11  C   UNL     1      -1.378 -10.430  14.178  0.00  0.00    +0.085 C 
ATOM     12  C   UNL     1      -1.063  -9.945  15.579  0.00  0.00    +0.017 C 
BRANCH   3  13
ATOM     13  C   UNL     1      -3.357 -11.293  13.080  0.00  0.00    +0.122 C 
BRANCH  13  15
ATOM      5  N   UNL     1      -3.241  -9.173  10.074  0.00  0.00    -0.360 N 
ATOM     15  C   UNL     1      -3.593 -10.405  11.888  0.00  0.00    -0.008 A 
ATOM     16  C   UNL     1      -4.844  -9.883  11.453  0.00  0.00    +0.004 A 
ATOM     17  C   UNL     1      -2.627  -9.951  11.019  0.00  0.00    +0.088 A 
ATOM     18  C   UNL     1      -4.595  -9.114  10.314  0.00  0.00    +0.047 A 
ATOM     20  C   UNL     1      -6.168  -9.991  11.922  0.00  0.00    +0.010 A 
ATOM     21  C   UNL     1      -5.608  -8.446   9.617  0.00  0.00    +0.026 A 
ATOM     28  C   UNL     1      -7.192  -9.329  11.236  0.00  0.00    +0.001 A 
ATOM     29  C   UNL     1      -6.914  -8.568  10.101  0.00  0.00    +0.002 A 
ATOM     33  H   UNL     1      -2.768  -8.711   9.309  0.00  0.00    +0.165 HD
ENDBRANCH  13  15
ENDBRANCH   3  13
ENDBRANCH  14   9
TORSDOF 4
ENDMDL
MODEL 9
REMARK VINA RESULT:      -7.4     18.937     20.383
REMARK  Name = 45783513
REMARK  4 active torsions:
REMARK  status: ('A' for Active; 'I' for Inactive)
REMARK    1  A    between atoms: N_3  and  C_13
REMARK    2  A    between atoms: C_9  and  C_14
REMARK    3  A    between atoms: C_13  and  C_15
REMARK    4  A    between atoms: C_19  and  C_22
REMARK                            x       y       z     vdW  Elec       q    Type
REMARK                         _______ _______ _______ _____ _____    ______ ____
ROOT
ATOM      1  O   UNL     1      -4.495  -9.892  17.098  0.00  0.00    -0.336 OA
ATOM      4  N   UNL     1      -5.178 -12.026  17.067  0.00  0.00    -0.190 NA
ATOM      6  N   UNL     1      -5.652  -9.943  17.887  0.00  0.00    -0.056 NA
ATOM     14  C   UNL     1      -4.287 -11.159  16.655  0.00  0.00    +0.245 A 
ATOM     19  C   UNL     1      -5.994 -11.233  17.819  0.00  0.00    +0.204 A 
ENDROOT
BRANCH  19  22
ATOM      2  O   UNL     1     -12.683 -14.027  21.992  0.00  0.00    -0.377 OA
ATOM      7  N   UNL     1     -10.479 -13.197  20.459  0.00  0.00    -0.311 N 
ATOM      8  N   UNL     1      -9.054 -11.383  19.928  0.00  0.00    -0.240 NA
ATOM     22  C   UNL     1      -7.146 -11.761  18.492  0.00  0.00    +0.041 A 
ATOM     23  C   UNL     1     -11.614 -12.290  20.680  0.00  0.00    +0.134 C 
ATOM     24  C   UNL     1     -10.329 -14.264  21.453  0.00  0.00    +0.134 C 
ATOM     25  C   UNL     1      -9.352 -12.696  19.799  0.00  0.00    +0.121 A 
ATOM     26  C   UNL     1     -12.880 -13.101  20.924  0.00  0.00    +0.178 C 
ATOM     27  C   UNL     1     -11.665 -14.970  21.657  0.00  0.00    +0.178 C 
ATOM     30  C   UNL     1      -7.485 -13.106  18.382  0.00  0.00    +0.016 A 
ATOM     31  C   UNL     1      -8.608 -13.589  19.045  0.00  0.00    +0.044 A 
ATOM     32  C   UNL     1      -7.956 -10.949  19.270  0.00  0.00    +0.124 A 
ENDBRANCH  19  22
BRANCH  14   9
ATOM      3  N   UNL     1      -3.143 -10.583  14.521  0.00  0.00    -0.287 NA
ATOM      9  C   UNL     1      -3.078 -11.373  15.767  0.00  0.00    +0.146 C 
ATOM     10  C   UNL     1      -1.762 -10.936  16.438  0.00  0.00    +0.030 C 
ATOM     11  C   UNL     1      -1.759 -10.303  14.137  0.00  0.00    +0.085 C 
ATOM     12  C   UNL     1      -1.129  -9.948  15.469  0.00  0.00    +0.017 C 
BRANCH   3  13
ATOM     13  C   UNL     1      -3.882 -11.249  13.457  0.00  0.00    +0.122 C 
BRANCH  13  15
ATOM      5  N   UNL     1      -6.581  -8.987  12.388  0.00  0.00    -0.360 N 
ATOM     15  C   UNL     1      -4.843 -10.313  12.772  0.00  0.00    -0.008 A 
ATOM     16  C   UNL     1      -4.738  -9.816  11.442  0.00  0.00    +0.004 A 
ATOM     17  C   UNL     1      -5.985  -9.786  13.328  0.00  0.00    +0.088 A 
ATOM     18  C   UNL     1      -5.841  -8.987  11.227  0.00  0.00    +0.047 A 
ATOM     20  C   UNL     1      -3.809  -9.992  10.398  0.00  0.00    +0.010 A 
ATOM     21  C   UNL     1      -6.062  -8.322  10.015  0.00  0.00    +0.026 A 
ATOM     28  C   UNL     1      -4.017  -9.335   9.181  0.00  0.00    +0.001 A 
ATOM     29  C   UNL     1      -5.127  -8.512   8.995  0.00  0.00    +0.002 A 
ATOM     33  H   UNL     1      -7.439  -8.471  12.528  0.00  0.00    +0.165 HD
ENDBRANCH  13  15
ENDBRANCH   3  13
ENDBRANCH  14   9
TORSDOF 4
ENDMDL
MODEL 10
REMARK VINA RESULT:      -7.4     30.219     34.159
REMARK  Name = 45783513
REMARK  4 active torsions:
REMARK  status: ('A' for Active; 'I' for Inactive)
REMARK    1  A    between atoms: N_3  and  C_13
REMARK    2  A    between atoms: C_9  and  C_14
REMARK    3  A    between atoms: C_13  and  C_15
REMARK    4  A    between atoms: C_19  and  C_22
REMARK                            x       y       z     vdW  Elec       q    Type
REMARK                         _______ _______ _______ _____ _____    ______ ____
ROOT
ATOM      1  O   UNL     1      17.891   9.846  21.838  0.00  0.00    -0.336 OA
ATOM      4  N   UNL     1      17.444   7.706  21.347  0.00  0.00    -0.190 NA
ATOM      6  N   UNL     1      19.093   9.146  22.010  0.00  0.00    -0.056 NA
ATOM     14  C   UNL     1      16.973   8.924  21.448  0.00  0.00    +0.245 A 
ATOM     19  C   UNL     1      18.748   7.893  21.702  0.00  0.00    +0.204 A 
ENDROOT
BRANCH  19  22
ATOM      2  O   UNL     1      24.397   1.743  22.173  0.00  0.00    -0.377 OA
ATOM      7  N   UNL     1      22.393   3.698  21.930  0.00  0.00    -0.311 N 
ATOM      8  N   UNL     1      21.385   5.584  22.944  0.00  0.00    -0.240 NA
ATOM     22  C   UNL     1      19.682   6.804  21.739  0.00  0.00    +0.041 A 
ATOM     23  C   UNL     1      22.703   3.111  23.241  0.00  0.00    +0.134 C 
ATOM     24  C   UNL     1      23.468   3.613  20.937  0.00  0.00    +0.134 C 
ATOM     25  C   UNL     1      21.479   4.756  21.880  0.00  0.00    +0.121 A 
ATOM     26  C   UNL     1      23.276   1.711  23.055  0.00  0.00    +0.178 C 
ATOM     27  C   UNL     1      24.002   2.186  20.875  0.00  0.00    +0.178 C 
ATOM     30  C   UNL     1      19.807   5.931  20.663  0.00  0.00    +0.016 A 
ATOM     31  C   UNL     1      20.720   4.885  20.728  0.00  0.00    +0.044 A 
ATOM     32  C   UNL     1      20.487   6.590  22.846  0.00  0.00    +0.124 A 
ENDBRANCH  19  22
BRANCH  14   9
ATOM      3  N   UNL     1      14.537   8.606  21.847  0.00  0.00    -0.287 NA
ATOM      9  C   UNL     1      15.570   9.435  21.193  0.00  0.00    +0.146 C 
ATOM     10  C   UNL     1      15.343  10.853  21.750  0.00  0.00    +0.030 C 
ATOM     11  C   UNL     1      13.416   9.500  22.141  0.00  0.00    +0.085 C 
ATOM     12  C   UNL     1      14.127  10.735  22.657  0.00  0.00    +0.017 C 
BRANCH   3  13
ATOM     13  C   UNL     1      14.128   7.460  21.045  0.00  0.00    +0.122 C 
BRANCH  13  15
ATOM      5  N   UNL     1      11.007   8.138  19.217  0.00  0.00    -0.360 N 
ATOM     15  C   UNL     1      13.025   7.815  20.083  0.00  0.00    -0.008 A 
ATOM     16  C   UNL     1      13.183   8.294  18.752  0.00  0.00    +0.004 A 
ATOM     17  C   UNL     1      11.676   7.730  20.340  0.00  0.00    +0.088 A 
ATOM     18  C   UNL     1      11.902   8.489  18.232  0.00  0.00    +0.047 A 
ATOM     20  C   UNL     1      14.296   8.581  17.938  0.00  0.00    +0.010 A 
ATOM     21  C   UNL     1      11.678   8.959  16.933  0.00  0.00    +0.026 A 
ATOM     28  C   UNL     1      14.088   9.052  16.637  0.00  0.00    +0.001 A 
ATOM     29  C   UNL     1      12.798   9.237  16.144  0.00  0.00    +0.002 A 
ATOM     33  H   UNL     1      10.001   8.179  19.125  0.00  0.00    +0.165 HD
ENDBRANCH  13  15
ENDBRANCH   3  13
ENDBRANCH  14   9
TORSDOF 4
ENDMDL
