MODEL 1
REMARK VINA RESULT:      -7.2      0.000      0.000
REMARK  Name = 7142731
REMARK  5 active torsions:
REMARK  status: ('A' for Active; 'I' for Inactive)
REMARK    1  A    between atoms: O_3  and  C_22
REMARK    2  A    between atoms: O_3  and  C_24
REMARK    3  A    between atoms: N_7  and  C_20
REMARK    4  A    between atoms: C_19  and  C_22
REMARK    5  A    between atoms: C_23  and  C_25
REMARK                            x       y       z     vdW  Elec       q    Type
REMARK                         _______ _______ _______ _____ _____    ______ ____
ROOT
ATOM      1  O   UNL     1      -4.631 -12.772   9.851  0.00  0.00    -0.266 OA
ATOM      2  O   UNL     1      -5.801 -12.714  15.077  0.00  0.00    -0.272 OA
ATOM      5  N   UNL     1      -3.512 -12.497  14.741  0.00  0.00    -0.298 N 
ATOM      6  N   UNL     1      -3.095 -12.400  11.573  0.00  0.00    -0.310 N 
ATOM     10  C   UNL     1      -2.448 -14.208  13.265  0.00  0.00    +0.027 C 
ATOM     11  C   UNL     1      -1.459 -11.964  13.439  0.00  0.00    +0.054 C 
ATOM     12  C   UNL     1      -1.128 -13.452  13.358  0.00  0.00    +0.018 C 
ATOM     13  C   UNL     1      -3.318 -13.928  14.503  0.00  0.00    +0.113 C 
ATOM     14  C   UNL     1      -3.155 -13.815  11.963  0.00  0.00    +0.130 C 
ATOM     15  C   UNL     1      -2.286 -11.686  14.710  0.00  0.00    +0.117 C 
ATOM     16  C   UNL     1      -2.231 -11.508  12.214  0.00  0.00    +0.027 A 
ATOM     17  C   UNL     1      -2.107 -10.247  11.766  0.00  0.00    +0.024 A 
ATOM     18  C   UNL     1      -3.870 -12.018  10.459  0.00  0.00    +0.273 A 
ATOM     19  C   UNL     1      -4.783 -12.017  15.056  0.00  0.00    +0.253 C 
ATOM     20  C   UNL     1      -3.721 -10.598  10.007  0.00  0.00    +0.099 A 
ATOM     21  C   UNL     1      -2.869  -9.785  10.642  0.00  0.00    +0.030 A 
ENDROOT
BRANCH  20   7
ATOM      4  O   UNL     1      -6.352  -9.497  10.113  0.00  0.00    -0.268 OA
ATOM      7  N   UNL     1      -4.465 -10.184   8.941  0.00  0.00    -0.276 N 
ATOM     23  C   UNL     1      -5.742  -9.655   9.059  0.00  0.00    +0.268 C 
ATOM     34  H   UNL     1      -4.135 -10.448   8.015  0.00  0.00    +0.155 HD
BRANCH  23  25
ATOM      8  N   UNL     1      -7.329  -8.306   7.904  0.00  0.00    -0.247 NA
ATOM      9  N   UNL     1      -6.579  -9.434   5.449  0.00  0.00    -0.259 NA
ATOM     25  C   UNL     1      -6.386  -9.238   7.785  0.00  0.00    +0.144 A 
ATOM     28  C   UNL     1      -6.002  -9.803   6.610  0.00  0.00    +0.143 A 
ATOM     32  C   UNL     1      -7.907  -7.936   6.743  0.00  0.00    +0.131 A 
ATOM     33  C   UNL     1      -7.537  -8.491   5.536  0.00  0.00    +0.130 A 
ENDBRANCH  23  25
ENDBRANCH  20   7
BRANCH  19  22
ATOM     22  C   UNL     1      -4.890 -10.549  15.381  0.00  0.00    +0.324 C 
BRANCH  22   3
ATOM      3  O   UNL     1      -4.493 -10.403  16.723  0.00  0.00    -0.483 OA
BRANCH   3  24
ATOM     24  C   UNL     1      -5.456 -10.587  17.691  0.00  0.00    +0.121 A 
ATOM     26  C   UNL     1      -5.104 -11.163  18.903  0.00  0.00    +0.045 A 
ATOM     27  C   UNL     1      -6.761 -10.193  17.436  0.00  0.00    +0.045 A 
ATOM     29  C   UNL     1      -6.080 -11.349  19.881  0.00  0.00    +0.004 A 
ATOM     30  C   UNL     1      -7.737 -10.379  18.416  0.00  0.00    +0.004 A 
ATOM     31  C   UNL     1      -7.395 -10.958  19.638  0.00  0.00    +0.000 A 
ENDBRANCH   3  24
ENDBRANCH  22   3
ENDBRANCH  19  22
TORSDOF 5
ENDMDL
MODEL 2
REMARK VINA RESULT:      -7.1     24.977     27.883
REMARK  Name = 7142731
REMARK  5 active torsions:
REMARK  status: ('A' for Active; 'I' for Inactive)
REMARK    1  A    between atoms: O_3  and  C_22
REMARK    2  A    between atoms: O_3  and  C_24
REMARK    3  A    between atoms: N_7  and  C_20
REMARK    4  A    between atoms: C_19  and  C_22
REMARK    5  A    between atoms: C_23  and  C_25
REMARK                            x       y       z     vdW  Elec       q    Type
REMARK                         _______ _______ _______ _____ _____    ______ ____
ROOT
ATOM      1  O   UNL     1      14.232   6.627   7.074  0.00  0.00    -0.266 OA
ATOM      2  O   UNL     1      10.346   3.773   4.743  0.00  0.00    -0.272 OA
ATOM      5  N   UNL     1       9.682   5.980   5.043  0.00  0.00    -0.298 N 
ATOM      6  N   UNL     1      12.207   7.493   6.291  0.00  0.00    -0.310 N 
ATOM     10  C   UNL     1       9.950   6.907   7.347  0.00  0.00    +0.027 C 
ATOM     11  C   UNL     1      10.036   8.416   5.408  0.00  0.00    +0.054 C 
ATOM     12  C   UNL     1       9.514   8.274   6.836  0.00  0.00    +0.018 C 
ATOM     13  C   UNL     1       9.371   5.790   6.460  0.00  0.00    +0.113 C 
ATOM     14  C   UNL     1      11.482   6.863   7.402  0.00  0.00    +0.130 C 
ATOM     15  C   UNL     1       9.409   7.325   4.517  0.00  0.00    +0.117 C 
ATOM     16  C   UNL     1      11.549   8.307   5.366  0.00  0.00    +0.027 A 
ATOM     17  C   UNL     1      12.249   8.967   4.427  0.00  0.00    +0.024 A 
ATOM     18  C   UNL     1      13.606   7.320   6.270  0.00  0.00    +0.273 A 
ATOM     19  C   UNL     1      10.121   4.896   4.282  0.00  0.00    +0.253 C 
ATOM     20  C   UNL     1      14.346   8.051   5.194  0.00  0.00    +0.099 A 
ATOM     21  C   UNL     1      13.675   8.833   4.340  0.00  0.00    +0.030 A 
ENDROOT
BRANCH  20   7
ATOM      4  O   UNL     1      16.297   9.850   6.244  0.00  0.00    -0.268 OA
ATOM      7  N   UNL     1      15.700   7.898   5.129  0.00  0.00    -0.276 N 
ATOM     23  C   UNL     1      16.599   8.811   5.662  0.00  0.00    +0.268 C 
ATOM     34  H   UNL     1      16.056   7.178   4.504  0.00  0.00    +0.155 HD
BRANCH  23  25
ATOM      8  N   UNL     1      18.767   8.579   6.621  0.00  0.00    -0.247 NA
ATOM      9  N   UNL     1      19.820   7.737   4.161  0.00  0.00    -0.259 NA
ATOM     25  C   UNL     1      18.036   8.461   5.513  0.00  0.00    +0.144 A 
ATOM     28  C   UNL     1      18.519   8.057   4.308  0.00  0.00    +0.143 A 
ATOM     32  C   UNL     1      20.069   8.259   6.474  0.00  0.00    +0.131 A 
ATOM     33  C   UNL     1      20.586   7.846   5.265  0.00  0.00    +0.130 A 
ENDBRANCH  23  25
ENDBRANCH  20   7
BRANCH  19  22
ATOM     22  C   UNL     1      10.332   5.143   2.810  0.00  0.00    +0.324 C 
BRANCH  22   3
ATOM      3  O   UNL     1      11.102   4.069   2.327  0.00  0.00    -0.483 OA
BRANCH   3  24
ATOM     24  C   UNL     1      12.412   4.331   1.992  0.00  0.00    +0.121 A 
ATOM     26  C   UNL     1      13.232   3.290   1.583  0.00  0.00    +0.045 A 
ATOM     27  C   UNL     1      12.888   5.631   2.070  0.00  0.00    +0.045 A 
ATOM     29  C   UNL     1      14.558   3.556   1.244  0.00  0.00    +0.004 A 
ATOM     30  C   UNL     1      14.215   5.897   1.730  0.00  0.00    +0.004 A 
ATOM     31  C   UNL     1      15.050   4.858   1.318  0.00  0.00    +0.000 A 
ENDBRANCH   3  24
ENDBRANCH  22   3
ENDBRANCH  19  22
TORSDOF 5
ENDMDL
MODEL 3
REMARK VINA RESULT:      -7.0     29.722     32.320
REMARK  Name = 7142731
REMARK  5 active torsions:
REMARK  status: ('A' for Active; 'I' for Inactive)
REMARK    1  A    between atoms: O_3  and  C_22
REMARK    2  A    between atoms: O_3  and  C_24
REMARK    3  A    between atoms: N_7  and  C_20
REMARK    4  A    between atoms: C_19  and  C_22
REMARK    5  A    between atoms: C_23  and  C_25
REMARK                            x       y       z     vdW  Elec       q    Type
REMARK                         _______ _______ _______ _____ _____    ______ ____
ROOT
ATOM      1  O   UNL     1      12.072  12.016  25.679  0.00  0.00    -0.266 OA
ATOM      2  O   UNL     1      11.985   7.948  22.197  0.00  0.00    -0.272 OA
ATOM      5  N   UNL     1      13.062   9.794  21.283  0.00  0.00    -0.298 N 
ATOM      6  N   UNL     1      13.121  12.006  23.590  0.00  0.00    -0.310 N 
ATOM     10  C   UNL     1      11.818  11.957  21.387  0.00  0.00    +0.027 C 
ATOM     11  C   UNL     1      14.277  11.964  21.352  0.00  0.00    +0.054 C 
ATOM     12  C   UNL     1      13.035  12.672  20.814  0.00  0.00    +0.018 C 
ATOM     13  C   UNL     1      11.810  10.479  20.960  0.00  0.00    +0.113 C 
ATOM     14  C   UNL     1      11.822  12.116  22.913  0.00  0.00    +0.130 C 
ATOM     15  C   UNL     1      14.285  10.499  20.873  0.00  0.00    +0.117 C 
ATOM     16  C   UNL     1      14.318  12.010  22.868  0.00  0.00    +0.027 A 
ATOM     17  C   UNL     1      15.496  12.026  23.514  0.00  0.00    +0.024 A 
ATOM     18  C   UNL     1      13.100  12.002  25.000  0.00  0.00    +0.273 A 
ATOM     19  C   UNL     1      13.023   8.524  21.860  0.00  0.00    +0.253 C 
ATOM     20  C   UNL     1      14.434  11.995  25.681  0.00  0.00    +0.099 A 
ATOM     21  C   UNL     1      15.553  12.016  24.948  0.00  0.00    +0.030 A 
ENDROOT
BRANCH  20   7
ATOM      4  O   UNL     1      14.656  14.266  27.393  0.00  0.00    -0.268 OA
ATOM      7  N   UNL     1      14.457  11.976  27.044  0.00  0.00    -0.276 N 
ATOM     23  C   UNL     1      14.567  13.119  27.823  0.00  0.00    +0.268 C 
ATOM     34  H   UNL     1      14.585  11.072  27.493  0.00  0.00    +0.155 HD
BRANCH  23  25
ATOM      8  N   UNL     1      14.735  11.640  29.682  0.00  0.00    -0.247 NA
ATOM      9  N   UNL     1      14.345  13.763  31.472  0.00  0.00    -0.259 NA
ATOM     25  C   UNL     1      14.553  12.901  29.293  0.00  0.00    +0.144 A 
ATOM     28  C   UNL     1      14.361  13.949  30.137  0.00  0.00    +0.143 A 
ATOM     32  C   UNL     1      14.719  11.454  31.017  0.00  0.00    +0.131 A 
ATOM     33  C   UNL     1      14.528  12.497  31.897  0.00  0.00    +0.130 A 
ENDBRANCH  23  25
ENDBRANCH  20   7
BRANCH  19  22
ATOM     22  C   UNL     1      14.349   7.840  22.078  0.00  0.00    +0.324 C 
BRANCH  22   3
ATOM      3  O   UNL     1      14.558   7.003  20.966  0.00  0.00    -0.483 OA
BRANCH   3  24
ATOM     24  C   UNL     1      15.862   6.702  20.638  0.00  0.00    +0.121 A 
ATOM     26  C   UNL     1      16.148   6.189  19.382  0.00  0.00    +0.045 A 
ATOM     27  C   UNL     1      16.865   6.916  21.572  0.00  0.00    +0.045 A 
ATOM     29  C   UNL     1      17.468   5.884  19.051  0.00  0.00    +0.004 A 
ATOM     30  C   UNL     1      18.186   6.610  21.241  0.00  0.00    +0.004 A 
ATOM     31  C   UNL     1      18.487   6.094  19.980  0.00  0.00    +0.000 A 
ENDBRANCH   3  24
ENDBRANCH  22   3
ENDBRANCH  19  22
TORSDOF 5
ENDMDL
MODEL 4
REMARK VINA RESULT:      -6.9      4.303      7.567
REMARK  Name = 7142731
REMARK  5 active torsions:
REMARK  status: ('A' for Active; 'I' for Inactive)
REMARK    1  A    between atoms: O_3  and  C_22
REMARK    2  A    between atoms: O_3  and  C_24
REMARK    3  A    between atoms: N_7  and  C_20
REMARK    4  A    between atoms: C_19  and  C_22
REMARK    5  A    between atoms: C_23  and  C_25
REMARK                            x       y       z     vdW  Elec       q    Type
REMARK                         _______ _______ _______ _____ _____    ______ ____
ROOT
ATOM      1  O   UNL     1      -8.561  -8.372  17.163  0.00  0.00    -0.266 OA
ATOM      2  O   UNL     1      -3.561 -10.220  16.649  0.00  0.00    -0.272 OA
ATOM      5  N   UNL     1      -4.991 -11.902  17.374  0.00  0.00    -0.298 N 
ATOM      6  N   UNL     1      -7.910 -10.599  17.447  0.00  0.00    -0.310 N 
ATOM     10  C   UNL     1      -6.400 -11.366  19.366  0.00  0.00    +0.027 C 
ATOM     11  C   UNL     1      -7.197 -13.002  17.712  0.00  0.00    +0.054 C 
ATOM     12  C   UNL     1      -7.113 -12.703  19.207  0.00  0.00    +0.018 C 
ATOM     13  C   UNL     1      -4.986 -11.434  18.761  0.00  0.00    +0.113 C 
ATOM     14  C   UNL     1      -7.252 -10.269  18.718  0.00  0.00    +0.130 C 
ATOM     15  C   UNL     1      -5.777 -13.120  17.127  0.00  0.00    +0.117 C 
ATOM     16  C   UNL     1      -7.966 -11.916  16.981  0.00  0.00    +0.027 A 
ATOM     17  C   UNL     1      -8.672 -12.213  15.877  0.00  0.00    +0.024 A 
ATOM     18  C   UNL     1      -8.567  -9.544  16.782  0.00  0.00    +0.273 A 
ATOM     19  C   UNL     1      -4.213 -11.242  16.422  0.00  0.00    +0.253 C 
ATOM     20  C   UNL     1      -9.322  -9.913  15.542  0.00  0.00    +0.099 A 
ATOM     21  C   UNL     1      -9.361 -11.189  15.144  0.00  0.00    +0.030 A 
ENDROOT
BRANCH  20   7
ATOM      4  O   UNL     1     -11.995  -9.015  15.981  0.00  0.00    -0.268 OA
ATOM      7  N   UNL     1      -9.959  -8.918  14.861  0.00  0.00    -0.276 N 
ATOM     23  C   UNL     1     -11.265  -8.526  15.123  0.00  0.00    +0.268 C 
ATOM     34  H   UNL     1      -9.517  -8.583  14.008  0.00  0.00    +0.155 HD
BRANCH  23  25
ATOM      8  N   UNL     1     -12.222  -7.756  13.083  0.00  0.00    -0.247 NA
ATOM      9  N   UNL     1     -12.241  -5.116  14.030  0.00  0.00    -0.259 NA
ATOM     25  C   UNL     1     -11.780  -7.408  14.290  0.00  0.00    +0.144 A 
ATOM     28  C   UNL     1     -11.776  -6.138  14.775  0.00  0.00    +0.143 A 
ATOM     32  C   UNL     1     -12.687  -6.733  12.337  0.00  0.00    +0.131 A 
ATOM     33  C   UNL     1     -12.696  -5.436  12.802  0.00  0.00    +0.130 A 
ENDBRANCH  23  25
ENDBRANCH  20   7
BRANCH  19  22
ATOM     22  C   UNL     1      -4.194 -11.836  15.036  0.00  0.00    +0.324 C 
BRANCH  22   3
ATOM      3  O   UNL     1      -4.794 -10.891  14.185  0.00  0.00    -0.483 OA
BRANCH   3  24
ATOM     24  C   UNL     1      -4.091 -10.514  13.062  0.00  0.00    +0.121 A 
ATOM     26  C   UNL     1      -4.770  -9.964  11.984  0.00  0.00    +0.045 A 
ATOM     27  C   UNL     1      -2.716 -10.691  13.029  0.00  0.00    +0.045 A 
ATOM     29  C   UNL     1      -4.056  -9.583  10.848  0.00  0.00    +0.004 A 
ATOM     30  C   UNL     1      -2.002 -10.309  11.892  0.00  0.00    +0.004 A 
ATOM     31  C   UNL     1      -2.674  -9.756  10.802  0.00  0.00    +0.000 A 
ENDBRANCH   3  24
ENDBRANCH  22   3
ENDBRANCH  19  22
TORSDOF 5
ENDMDL
MODEL 5
REMARK VINA RESULT:      -6.8      1.631      2.249
REMARK  Name = 7142731
REMARK  5 active torsions:
REMARK  status: ('A' for Active; 'I' for Inactive)
REMARK    1  A    between atoms: O_3  and  C_22
REMARK    2  A    between atoms: O_3  and  C_24
REMARK    3  A    between atoms: N_7  and  C_20
REMARK    4  A    between atoms: C_19  and  C_22
REMARK    5  A    between atoms: C_23  and  C_25
REMARK                            x       y       z     vdW  Elec       q    Type
REMARK                         _______ _______ _______ _____ _____    ______ ____
ROOT
ATOM      1  O   UNL     1      -5.147 -12.108   8.343  0.00  0.00    -0.266 OA
ATOM      2  O   UNL     1      -6.879 -12.316  13.407  0.00  0.00    -0.272 OA
ATOM      5  N   UNL     1      -4.658 -11.636  13.321  0.00  0.00    -0.298 N 
ATOM      6  N   UNL     1      -3.919 -11.440  10.217  0.00  0.00    -0.310 N 
ATOM     10  C   UNL     1      -3.112 -13.087  12.002  0.00  0.00    +0.027 C 
ATOM     11  C   UNL     1      -2.625 -10.689  12.244  0.00  0.00    +0.054 C 
ATOM     12  C   UNL     1      -1.992 -12.078  12.226  0.00  0.00    +0.018 C 
ATOM     13  C   UNL     1      -4.153 -12.996  13.131  0.00  0.00    +0.113 C 
ATOM     14  C   UNL     1      -3.734 -12.840  10.622  0.00  0.00    +0.130 C 
ATOM     15  C   UNL     1      -3.626 -10.592  13.411  0.00  0.00    +0.117 C 
ATOM     16  C   UNL     1      -3.332 -10.394  10.933  0.00  0.00    +0.027 A 
ATOM     17  C   UNL     1      -3.417  -9.132  10.479  0.00  0.00    +0.024 A 
ATOM     18  C   UNL     1      -4.627 -11.218   9.018  0.00  0.00    +0.273 A 
ATOM     19  C   UNL     1      -6.027 -11.426  13.486  0.00  0.00    +0.253 C 
ATOM     20  C   UNL     1      -4.721  -9.796   8.560  0.00  0.00    +0.099 A 
ATOM     21  C   UNL     1      -4.127  -8.829   9.270  0.00  0.00    +0.030 A 
ENDROOT
BRANCH  20   7
ATOM      4  O   UNL     1      -7.477  -9.082   8.372  0.00  0.00    -0.268 OA
ATOM      7  N   UNL     1      -5.409  -9.536   7.412  0.00  0.00    -0.276 N 
ATOM     23  C   UNL     1      -6.753  -9.193   7.386  0.00  0.00    +0.268 C 
ATOM     34  H   UNL     1      -4.958  -9.787   6.534  0.00  0.00    +0.155 HD
BRANCH  23  25
ATOM      8  N   UNL     1      -7.030  -9.828   5.108  0.00  0.00    -0.247 NA
ATOM      9  N   UNL     1      -8.608  -7.563   4.614  0.00  0.00    -0.259 NA
ATOM     25  C   UNL     1      -7.324  -8.925   6.040  0.00  0.00    +0.144 A 
ATOM     28  C   UNL     1      -8.086  -7.818   5.830  0.00  0.00    +0.143 A 
ATOM     32  C   UNL     1      -7.552  -9.574   3.891  0.00  0.00    +0.131 A 
ATOM     33  C   UNL     1      -8.328  -8.461   3.649  0.00  0.00    +0.130 A 
ENDBRANCH  23  25
ENDBRANCH  20   7
BRANCH  19  22
ATOM     22  C   UNL     1      -6.466 -10.012  13.771  0.00  0.00    +0.324 C 
BRANCH  22   3
ATOM      3  O   UNL     1      -7.274 -10.065  14.922  0.00  0.00    -0.483 OA
BRANCH   3  24
ATOM     24  C   UNL     1      -6.674 -10.456  16.099  0.00  0.00    +0.121 A 
ATOM     26  C   UNL     1      -5.470  -9.879  16.475  0.00  0.00    +0.045 A 
ATOM     27  C   UNL     1      -7.284 -11.421  16.885  0.00  0.00    +0.045 A 
ATOM     29  C   UNL     1      -4.863 -10.276  17.666  0.00  0.00    +0.004 A 
ATOM     30  C   UNL     1      -6.677 -11.818  18.077  0.00  0.00    +0.004 A 
ATOM     31  C   UNL     1      -5.466 -11.245  18.467  0.00  0.00    +0.000 A 
ENDBRANCH   3  24
ENDBRANCH  22   3
ENDBRANCH  19  22
TORSDOF 5
ENDMDL
MODEL 6
REMARK VINA RESULT:      -6.7     23.898     26.453
REMARK  Name = 7142731
REMARK  5 active torsions:
REMARK  status: ('A' for Active; 'I' for Inactive)
REMARK    1  A    between atoms: O_3  and  C_22
REMARK    2  A    between atoms: O_3  and  C_24
REMARK    3  A    between atoms: N_7  and  C_20
REMARK    4  A    between atoms: C_19  and  C_22
REMARK    5  A    between atoms: C_23  and  C_25
REMARK                            x       y       z     vdW  Elec       q    Type
REMARK                         _______ _______ _______ _____ _____    ______ ____
ROOT
ATOM      1  O   UNL     1      10.149   7.431   1.814  0.00  0.00    -0.266 OA
ATOM      2  O   UNL     1      12.328  10.022   5.965  0.00  0.00    -0.272 OA
ATOM      5  N   UNL     1      10.668   8.562   6.682  0.00  0.00    -0.298 N 
ATOM      6  N   UNL     1       9.647   7.038   4.063  0.00  0.00    -0.310 N 
ATOM     10  C   UNL     1       8.457   8.760   5.537  0.00  0.00    +0.027 C 
ATOM     11  C   UNL     1       9.146   6.602   6.494  0.00  0.00    +0.054 C 
ATOM     12  C   UNL     1       7.960   7.545   6.311  0.00  0.00    +0.018 C 
ATOM     13  C   UNL     1       9.581   9.470   6.312  0.00  0.00    +0.113 C 
ATOM     14  C   UNL     1       8.913   8.308   4.144  0.00  0.00    +0.130 C 
ATOM     15  C   UNL     1      10.244   7.305   7.316  0.00  0.00    +0.117 C 
ATOM     16  C   UNL     1       9.708   6.165   5.153  0.00  0.00    +0.027 A 
ATOM     17  C   UNL     1      10.285   4.959   5.021  0.00  0.00    +0.024 A 
ATOM     18  C   UNL     1      10.193   6.703   2.808  0.00  0.00    +0.273 A 
ATOM     19  C   UNL     1      11.992   8.961   6.500  0.00  0.00    +0.253 C 
ATOM     20  C   UNL     1      10.850   5.361   2.709  0.00  0.00    +0.099 A 
ATOM     21  C   UNL     1      10.868   4.552   3.775  0.00  0.00    +0.030 A 
ENDROOT
BRANCH  20   7
ATOM      4  O   UNL     1       9.458   4.290   0.459  0.00  0.00    -0.268 OA
ATOM      7  N   UNL     1      11.403   5.004   1.515  0.00  0.00    -0.276 N 
ATOM     23  C   UNL     1      10.670   4.487   0.456  0.00  0.00    +0.268 C 
ATOM     34  H   UNL     1      12.419   4.944   1.474  0.00  0.00    +0.155 HD
BRANCH  23  25
ATOM      8  N   UNL     1      10.819   3.413  -1.664  0.00  0.00    -0.247 NA
ATOM      9  N   UNL     1      13.420   4.393  -2.036  0.00  0.00    -0.259 NA
ATOM     25  C   UNL     1      11.446   4.178  -0.773  0.00  0.00    +0.144 A 
ATOM     28  C   UNL     1      12.706   4.667  -0.926  0.00  0.00    +0.143 A 
ATOM     32  C   UNL     1      11.533   3.139  -2.775  0.00  0.00    +0.131 A 
ATOM     33  C   UNL     1      12.811   3.620  -2.957  0.00  0.00    +0.130 A 
ENDBRANCH  23  25
ENDBRANCH  20   7
BRANCH  19  22
ATOM     22  C   UNL     1      13.058   8.015   6.991  0.00  0.00    +0.324 C 
BRANCH  22   3
ATOM      3  O   UNL     1      13.542   7.332   5.860  0.00  0.00    -0.483 OA
BRANCH   3  24
ATOM     24  C   UNL     1      14.790   7.683   5.395  0.00  0.00    +0.121 A 
ATOM     26  C   UNL     1      15.693   8.290   6.256  0.00  0.00    +0.045 A 
ATOM     27  C   UNL     1      15.121   7.426   4.073  0.00  0.00    +0.045 A 
ATOM     29  C   UNL     1      16.956   8.646   5.784  0.00  0.00    +0.004 A 
ATOM     30  C   UNL     1      16.385   7.782   3.602  0.00  0.00    +0.004 A 
ATOM     31  C   UNL     1      17.302   8.393   4.458  0.00  0.00    +0.000 A 
ENDBRANCH   3  24
ENDBRANCH  22   3
ENDBRANCH  19  22
TORSDOF 5
ENDMDL
MODEL 7
REMARK VINA RESULT:      -6.7     25.161     27.369
REMARK  Name = 7142731
REMARK  5 active torsions:
REMARK  status: ('A' for Active; 'I' for Inactive)
REMARK    1  A    between atoms: O_3  and  C_22
REMARK    2  A    between atoms: O_3  and  C_24
REMARK    3  A    between atoms: N_7  and  C_20
REMARK    4  A    between atoms: C_19  and  C_22
REMARK    5  A    between atoms: C_23  and  C_25
REMARK                            x       y       z     vdW  Elec       q    Type
REMARK                         _______ _______ _______ _____ _____    ______ ____
ROOT
ATOM      1  O   UNL     1      12.857   8.010   3.891  0.00  0.00    -0.266 OA
ATOM      2  O   UNL     1       9.111  10.913   6.386  0.00  0.00    -0.272 OA
ATOM      5  N   UNL     1       8.840   8.650   6.840  0.00  0.00    -0.298 N 
ATOM      6  N   UNL     1      11.267   7.166   5.382  0.00  0.00    -0.310 N 
ATOM     10  C   UNL     1       8.761   7.131   4.860  0.00  0.00    +0.027 C 
ATOM     11  C   UNL     1       9.571   6.278   7.020  0.00  0.00    +0.054 C 
ATOM     12  C   UNL     1       8.726   5.929   5.796  0.00  0.00    +0.018 C 
ATOM     13  C   UNL     1       8.189   8.377   5.559  0.00  0.00    +0.113 C 
ATOM     14  C   UNL     1      10.204   7.347   4.385  0.00  0.00    +0.130 C 
ATOM     15  C   UNL     1       8.959   7.495   7.741  0.00  0.00    +0.117 C 
ATOM     16  C   UNL     1      11.004   6.583   6.624  0.00  0.00    +0.027 A 
ATOM     17  C   UNL     1      12.011   6.320   7.474  0.00  0.00    +0.024 A 
ATOM     18  C   UNL     1      12.574   7.511   4.981  0.00  0.00    +0.273 A 
ATOM     19  C   UNL     1       9.218   9.955   7.157  0.00  0.00    +0.253 C 
ATOM     20  C   UNL     1      13.664   7.226   5.967  0.00  0.00    +0.099 A 
ATOM     21  C   UNL     1      13.367   6.651   7.138  0.00  0.00    +0.030 A 
ENDROOT
BRANCH  20   7
ATOM      4  O   UNL     1      14.984   9.684   6.564  0.00  0.00    -0.268 OA
ATOM      7  N   UNL     1      14.942   7.558   5.624  0.00  0.00    -0.276 N 
ATOM     23  C   UNL     1      15.529   8.774   5.945  0.00  0.00    +0.268 C 
ATOM     34  H   UNL     1      15.411   6.959   4.948  0.00  0.00    +0.155 HD
BRANCH  23  25
ATOM      8  N   UNL     1      17.639   9.851   6.184  0.00  0.00    -0.247 NA
ATOM      9  N   UNL     1      18.702   8.350   4.067  0.00  0.00    -0.259 NA
ATOM     25  C   UNL     1      16.938   8.945   5.505  0.00  0.00    +0.144 A 
ATOM     28  C   UNL     1      17.426   8.203   4.475  0.00  0.00    +0.143 A 
ATOM     32  C   UNL     1      18.916   9.997   5.775  0.00  0.00    +0.131 A 
ATOM     33  C   UNL     1      19.438   9.260   4.735  0.00  0.00    +0.130 A 
ENDBRANCH  23  25
ENDBRANCH  20   7
BRANCH  19  22
ATOM     22  C   UNL     1       9.797  10.178   8.531  0.00  0.00    +0.324 C 
BRANCH  22   3
ATOM      3  O   UNL     1       9.474  11.499   8.894  0.00  0.00    -0.483 OA
BRANCH   3  24
ATOM     24  C   UNL     1       9.592  11.835  10.225  0.00  0.00    +0.121 A 
ATOM     26  C   UNL     1      10.843  11.821  10.824  0.00  0.00    +0.045 A 
ATOM     27  C   UNL     1       8.456  12.179  10.943  0.00  0.00    +0.045 A 
ATOM     29  C   UNL     1      10.961  12.161  12.171  0.00  0.00    +0.004 A 
ATOM     30  C   UNL     1       8.575  12.520  12.291  0.00  0.00    +0.004 A 
ATOM     31  C   UNL     1       9.828  12.510  12.905  0.00  0.00    +0.000 A 
ENDBRANCH   3  24
ENDBRANCH  22   3
ENDBRANCH  19  22
TORSDOF 5
ENDMDL
MODEL 8
REMARK VINA RESULT:      -6.6      2.276      7.928
REMARK  Name = 7142731
REMARK  5 active torsions:
REMARK  status: ('A' for Active; 'I' for Inactive)
REMARK    1  A    between atoms: O_3  and  C_22
REMARK    2  A    between atoms: O_3  and  C_24
REMARK    3  A    between atoms: N_7  and  C_20
REMARK    4  A    between atoms: C_19  and  C_22
REMARK    5  A    between atoms: C_23  and  C_25
REMARK                            x       y       z     vdW  Elec       q    Type
REMARK                         _______ _______ _______ _____ _____    ______ ____
ROOT
ATOM      1  O   UNL     1      -7.359  -9.852  13.643  0.00  0.00    -0.266 OA
ATOM      2  O   UNL     1      -7.440 -12.349   8.906  0.00  0.00    -0.272 OA
ATOM      5  N   UNL     1      -5.556 -11.001   9.096  0.00  0.00    -0.298 N 
ATOM      6  N   UNL     1      -5.659  -9.760  12.041  0.00  0.00    -0.310 N 
ATOM     10  C   UNL     1      -5.963  -8.629   9.765  0.00  0.00    +0.027 C 
ATOM     11  C   UNL     1      -3.821  -9.703  10.319  0.00  0.00    +0.054 C 
ATOM     12  C   UNL     1      -4.457  -8.402   9.834  0.00  0.00    +0.018 C 
ATOM     13  C   UNL     1      -6.291  -9.773   8.790  0.00  0.00    +0.113 C 
ATOM     14  C   UNL     1      -6.488  -8.907  11.178  0.00  0.00    +0.130 C 
ATOM     15  C   UNL     1      -4.112 -10.829   9.308  0.00  0.00    +0.117 C 
ATOM     16  C   UNL     1      -4.348 -10.091  11.688  0.00  0.00    +0.027 A 
ATOM     17  C   UNL     1      -3.570 -10.774  12.545  0.00  0.00    +0.024 A 
ATOM     18  C   UNL     1      -6.216 -10.135  13.281  0.00  0.00    +0.273 A 
ATOM     19  C   UNL     1      -6.225 -12.225   9.086  0.00  0.00    +0.253 C 
ATOM     20  C   UNL     1      -5.324 -10.916  14.196  0.00  0.00    +0.099 A 
ATOM     21  C   UNL     1      -4.071 -11.196  13.822  0.00  0.00    +0.030 A 
ENDROOT
BRANCH  20   7
ATOM      4  O   UNL     1      -4.733  -9.755  16.734  0.00  0.00    -0.268 OA
ATOM      7  N   UNL     1      -5.829 -11.311  15.399  0.00  0.00    -0.276 N 
ATOM     23  C   UNL     1      -5.502 -10.704  16.603  0.00  0.00    +0.268 C 
ATOM     34  H   UNL     1      -6.320 -12.203  15.427  0.00  0.00    +0.155 HD
BRANCH  23  25
ATOM      8  N   UNL     1      -6.934 -12.329  17.592  0.00  0.00    -0.247 NA
ATOM      9  N   UNL     1      -6.587 -11.171  20.122  0.00  0.00    -0.259 NA
ATOM     25  C   UNL     1      -6.171 -11.260  17.808  0.00  0.00    +0.144 A 
ATOM     28  C   UNL     1      -5.985 -10.676  19.022  0.00  0.00    +0.143 A 
ATOM     32  C   UNL     1      -7.537 -12.824  18.692  0.00  0.00    +0.131 A 
ATOM     33  C   UNL     1      -7.366 -12.255  19.935  0.00  0.00    +0.130 A 
ENDBRANCH  23  25
ENDBRANCH  20   7
BRANCH  19  22
ATOM     22  C   UNL     1      -5.386 -13.456   9.318  0.00  0.00    +0.324 C 
BRANCH  22   3
ATOM      3  O   UNL     1      -5.819 -14.015  10.534  0.00  0.00    -0.483 OA
BRANCH   3  24
ATOM     24  C   UNL     1      -4.861 -14.257  11.495  0.00  0.00    +0.121 A 
ATOM     26  C   UNL     1      -3.518 -14.167  11.157  0.00  0.00    +0.045 A 
ATOM     27  C   UNL     1      -5.257 -14.587  12.782  0.00  0.00    +0.045 A 
ATOM     29  C   UNL     1      -2.550 -14.412  12.130  0.00  0.00    +0.004 A 
ATOM     30  C   UNL     1      -4.287 -14.832  13.755  0.00  0.00    +0.004 A 
ATOM     31  C   UNL     1      -2.933 -14.744  13.428  0.00  0.00    +0.000 A 
ENDBRANCH   3  24
ENDBRANCH  22   3
ENDBRANCH  19  22
TORSDOF 5
ENDMDL
MODEL 9
REMARK VINA RESULT:      -6.6      4.079      7.394
REMARK  Name = 7142731
REMARK  5 active torsions:
REMARK  status: ('A' for Active; 'I' for Inactive)
REMARK    1  A    between atoms: O_3  and  C_22
REMARK    2  A    between atoms: O_3  and  C_24
REMARK    3  A    between atoms: N_7  and  C_20
REMARK    4  A    between atoms: C_19  and  C_22
REMARK    5  A    between atoms: C_23  and  C_25
REMARK                            x       y       z     vdW  Elec       q    Type
REMARK                         _______ _______ _______ _____ _____    ______ ____
ROOT
ATOM      1  O   UNL     1      -6.953 -12.829  15.099  0.00  0.00    -0.266 OA
ATOM      2  O   UNL     1     -11.779 -11.373  16.908  0.00  0.00    -0.272 OA
ATOM      5  N   UNL     1     -10.298 -11.691  18.671  0.00  0.00    -0.298 N 
ATOM      6  N   UNL     1      -7.479 -12.390  17.333  0.00  0.00    -0.310 N 
ATOM     10  C   UNL     1      -9.067 -13.864  18.697  0.00  0.00    +0.027 C 
ATOM     11  C   UNL     1      -8.055 -11.876  19.732  0.00  0.00    +0.054 C 
ATOM     12  C   UNL     1      -8.261 -13.380  19.896  0.00  0.00    +0.018 C 
ATOM     13  C   UNL     1     -10.428 -13.148  18.638  0.00  0.00    +0.113 C 
ATOM     14  C   UNL     1      -8.243 -13.642  17.423  0.00  0.00    +0.130 C 
ATOM     15  C   UNL     1      -9.421 -11.164  19.728  0.00  0.00    +0.117 C 
ATOM     16  C   UNL     1      -7.308 -11.565  18.448  0.00  0.00    +0.027 A 
ATOM     17  C   UNL     1      -6.510 -10.486  18.374  0.00  0.00    +0.024 A 
ATOM     18  C   UNL     1      -6.847 -12.122  16.103  0.00  0.00    +0.273 A 
ATOM     19  C   UNL     1     -11.048 -10.912  17.790  0.00  0.00    +0.253 C 
ATOM     20  C   UNL     1      -5.986 -10.898  16.054  0.00  0.00    +0.099 A 
ATOM     21  C   UNL     1      -5.839 -10.147  17.151  0.00  0.00    +0.030 A 
ENDROOT
BRANCH  20   7
ATOM      4  O   UNL     1      -3.282 -11.496  15.369  0.00  0.00    -0.268 OA
ATOM      7  N   UNL     1      -5.368 -10.595  14.877  0.00  0.00    -0.276 N 
ATOM     23  C   UNL     1      -4.045 -10.914  14.603  0.00  0.00    +0.268 C 
ATOM     34  H   UNL     1      -5.847  -9.947  14.255  0.00  0.00    +0.155 HD
BRANCH  23  25
ATOM      8  N   UNL     1      -4.498 -10.161  12.390  0.00  0.00    -0.247 NA
ATOM      9  N   UNL     1      -1.765 -10.200  11.763  0.00  0.00    -0.259 NA
ATOM     25  C   UNL     1      -3.554 -10.523  13.256  0.00  0.00    +0.144 A 
ATOM     28  C   UNL     1      -2.223 -10.552  12.980  0.00  0.00    +0.143 A 
ATOM     32  C   UNL     1      -4.040  -9.809  11.171  0.00  0.00    +0.131 A 
ATOM     33  C   UNL     1      -2.697  -9.828  10.863  0.00  0.00    +0.130 A 
ENDBRANCH  23  25
ENDBRANCH  20   7
BRANCH  19  22
ATOM     22  C   UNL     1     -10.935  -9.417  17.944  0.00  0.00    +0.324 C 
BRANCH  22   3
ATOM      3  O   UNL     1     -12.144  -8.870  17.477  0.00  0.00    -0.483 OA
BRANCH   3  24
ATOM     24  C   UNL     1     -12.063  -7.801  16.612  0.00  0.00    +0.121 A 
ATOM     26  C   UNL     1     -10.846  -7.160  16.433  0.00  0.00    +0.045 A 
ATOM     27  C   UNL     1     -13.201  -7.384  15.937  0.00  0.00    +0.045 A 
ATOM     29  C   UNL     1     -10.765  -6.078  15.557  0.00  0.00    +0.004 A 
ATOM     30  C   UNL     1     -13.119  -6.301  15.061  0.00  0.00    +0.004 A 
ATOM     31  C   UNL     1     -11.901  -5.648  14.872  0.00  0.00    +0.000 A 
ENDBRANCH   3  24
ENDBRANCH  22   3
ENDBRANCH  19  22
TORSDOF 5
ENDMDL
MODEL 10
REMARK VINA RESULT:      -6.6      4.004      6.597
REMARK  Name = 7142731
REMARK  5 active torsions:
REMARK  status: ('A' for Active; 'I' for Inactive)
REMARK    1  A    between atoms: O_3  and  C_22
REMARK    2  A    between atoms: O_3  and  C_24
REMARK    3  A    between atoms: N_7  and  C_20
REMARK    4  A    between atoms: C_19  and  C_22
REMARK    5  A    between atoms: C_23  and  C_25
REMARK                            x       y       z     vdW  Elec       q    Type
REMARK                         _______ _______ _______ _____ _____    ______ ____
ROOT
ATOM      1  O   UNL     1      -8.889 -10.844  13.650  0.00  0.00    -0.266 OA
ATOM      2  O   UNL     1      -5.576 -15.027  14.111  0.00  0.00    -0.272 OA
ATOM      5  N   UNL     1      -4.388 -13.029  14.108  0.00  0.00    -0.298 N 
ATOM      6  N   UNL     1      -6.580 -10.705  13.985  0.00  0.00    -0.310 N 
ATOM     10  C   UNL     1      -4.878 -11.459  12.228  0.00  0.00    +0.027 C 
ATOM     11  C   UNL     1      -4.096 -10.574  14.384  0.00  0.00    +0.054 C 
ATOM     12  C   UNL     1      -3.965 -10.422  12.870  0.00  0.00    +0.018 C 
ATOM     13  C   UNL     1      -4.465 -12.879  12.654  0.00  0.00    +0.113 C 
ATOM     14  C   UNL     1      -6.331 -11.144  12.605  0.00  0.00    +0.130 C 
ATOM     15  C   UNL     1      -3.629 -11.981  14.806  0.00  0.00    +0.117 C 
ATOM     16  C   UNL     1      -5.528 -10.350  14.834  0.00  0.00    +0.027 A 
ATOM     17  C   UNL     1      -5.784  -9.842  16.051  0.00  0.00    +0.024 A 
ATOM     18  C   UNL     1      -7.929 -10.562  14.368  0.00  0.00    +0.273 A 
ATOM     19  C   UNL     1      -4.942 -14.157  14.715  0.00  0.00    +0.253 C 
ATOM     20  C   UNL     1      -8.171 -10.015  15.741  0.00  0.00    +0.099 A 
ATOM     21  C   UNL     1      -7.132  -9.673  16.512  0.00  0.00    +0.030 A 
ENDROOT
BRANCH  20   7
ATOM      4  O   UNL     1      -9.762  -7.656  15.529  0.00  0.00    -0.268 OA
ATOM      7  N   UNL     1      -9.462  -9.874  16.156  0.00  0.00    -0.276 N 
ATOM     23  C   UNL     1     -10.185  -8.697  16.025  0.00  0.00    +0.268 C 
ATOM     34  H   UNL     1      -9.841 -10.609  16.751  0.00  0.00    +0.155 HD
BRANCH  23  25
ATOM      8  N   UNL     1     -11.795  -9.535  17.566  0.00  0.00    -0.247 NA
ATOM      9  N   UNL     1     -13.826  -8.044  16.333  0.00  0.00    -0.259 NA
ATOM     25  C   UNL     1     -11.587  -8.743  16.516  0.00  0.00    +0.144 A 
ATOM     28  C   UNL     1     -12.551  -8.010  15.897  0.00  0.00    +0.143 A 
ATOM     32  C   UNL     1     -13.071  -9.569  18.002  0.00  0.00    +0.131 A 
ATOM     33  C   UNL     1     -14.069  -8.836  17.396  0.00  0.00    +0.130 A 
ENDBRANCH  23  25
ENDBRANCH  20   7
BRANCH  19  22
ATOM     22  C   UNL     1      -4.743 -14.291  16.203  0.00  0.00    +0.324 C 
BRANCH  22   3
ATOM      3  O   UNL     1      -5.978 -13.988  16.804  0.00  0.00    -0.483 OA
BRANCH   3  24
ATOM     24  C   UNL     1      -5.969 -13.093  17.852  0.00  0.00    +0.121 A 
ATOM     26  C   UNL     1      -4.768 -12.530  18.257  0.00  0.00    +0.045 A 
ATOM     27  C   UNL     1      -7.161 -12.772  18.483  0.00  0.00    +0.045 A 
ATOM     29  C   UNL     1      -4.759 -11.625  19.317  0.00  0.00    +0.004 A 
ATOM     30  C   UNL     1      -7.152 -11.866  19.544  0.00  0.00    +0.004 A 
ATOM     31  C   UNL     1      -5.951 -11.293  19.961  0.00  0.00    +0.000 A 
ENDBRANCH   3  24
ENDBRANCH  22   3
ENDBRANCH  19  22
TORSDOF 5
ENDMDL
