MODEL 1
REMARK VINA RESULT:      -6.6      0.000      0.000
REMARK  Name = 40779537
REMARK  13 active torsions:
REMARK  status: ('A' for Active; 'I' for Inactive)
REMARK    1  A    between atoms: S_1  and  N_8
REMARK    2  A    between atoms: S_1  and  C_22
REMARK    3  A    between atoms: O_4  and  C_28
REMARK    4  A    between atoms: O_4  and  C_31
REMARK    5  A    between atoms: O_5  and  C_30
REMARK    6  A    between atoms: O_5  and  C_32
REMARK    7  A    between atoms: N_7  and  C_21
REMARK    8  A    between atoms: N_8  and  C_17
REMARK    9  A    between atoms: C_11  and  C_18
REMARK   10  A    between atoms: C_12  and  C_17
REMARK   11  A    between atoms: C_20  and  C_23
REMARK   12  A    between atoms: C_22  and  C_24
REMARK   13  A    between atoms: C_24  and  C_27
REMARK                            x       y       z     vdW  Elec       q    Type
REMARK                         _______ _______ _______ _____ _____    ______ ____
ROOT
ATOM      6  N   UNL     1      -5.223 -12.648  17.111  0.00  0.00    -0.297 NA
ATOM     10  C   UNL     1      -5.689 -10.678  18.750  0.00  0.00    +0.002 C 
ATOM     11  C   UNL     1      -6.996 -11.467  18.463  0.00  0.00    +0.055 C 
ATOM     12  C   UNL     1      -4.650 -11.389  16.567  0.00  0.00    +0.072 C 
ATOM     13  C   UNL     1      -5.092 -10.178  17.417  0.00  0.00    +0.024 C 
ATOM     14  C   UNL     1      -4.683 -11.686  19.348  0.00  0.00    +0.019 C 
ATOM     15  C   UNL     1      -6.682 -12.488  17.333  0.00  0.00    +0.094 C 
ATOM     16  C   UNL     1      -4.583 -12.911  18.422  0.00  0.00    +0.085 C 
ENDROOT
BRANCH  11  18
ATOM      7  N   UNL     1      -9.432 -10.883  18.868  0.00  0.00    -0.270 N 
ATOM      9  N   UNL     1     -10.438 -10.081  18.476  0.00  0.00    -0.171 NA
ATOM     18  C   UNL     1      -8.267 -10.676  18.190  0.00  0.00    +0.044 A 
ATOM     19  C   UNL     1      -8.529  -9.668  17.292  0.00  0.00    +0.053 A 
ATOM     20  C   UNL     1      -9.880  -9.342  17.514  0.00  0.00    +0.093 A 
ATOM     21  C   UNL     1      -9.666 -11.846  19.918  0.00  0.00    +0.172 C 
BRANCH  20  23
ATOM     23  C   UNL     1     -10.648  -8.340  16.822  0.00  0.00    +0.006 A 
ATOM     25  C   UNL     1     -12.036  -8.452  16.748  0.00  0.00    +0.059 A 
ATOM     26  C   UNL     1     -10.003  -7.256  16.225  0.00  0.00    +0.014 A 
ATOM     28  C   UNL     1     -12.780  -7.481  16.078  0.00  0.00    +0.162 A 
ATOM     29  C   UNL     1     -10.746  -6.286  15.553  0.00  0.00    +0.050 A 
ATOM     30  C   UNL     1     -12.135  -6.398  15.480  0.00  0.00    +0.162 A 
BRANCH  28   4
ATOM      4  O   UNL     1     -14.135  -7.601  16.012  0.00  0.00    -0.491 OA
ATOM     31  C   UNL     1     -14.667  -8.340  14.914  0.00  0.00    +0.277 C 
ENDBRANCH  28   4
BRANCH  30   5
ATOM      5  O   UNL     1     -12.850  -5.443  14.822  0.00  0.00    -0.491 OA
ATOM     32  C   UNL     1     -12.331  -4.990  13.573  0.00  0.00    +0.277 C 
ENDBRANCH  30   5
ENDBRANCH  20  23
ENDBRANCH  11  18
BRANCH  12  17
ATOM     17  C   UNL     1      -4.974 -11.193  15.085  0.00  0.00    +0.124 C 
BRANCH  17   8
ATOM      8  N   UNL     1      -3.928 -10.361  14.467  0.00  0.00    -0.193 NA
ATOM     33  H   UNL     1      -3.990  -9.366  14.723  0.00  0.00    +0.148 HD
BRANCH   8   1
ATOM      1  S   UNL     1      -2.354 -10.998  14.287  0.00  0.00    +0.029 S 
ATOM      2  O   UNL     1      -2.414 -12.445  14.219  0.00  0.00    -0.158 OA
ATOM      3  O   UNL     1      -1.478 -10.337  15.236  0.00  0.00    -0.158 OA
BRANCH   1  22
ATOM     22  C   UNL     1      -1.939 -10.390  12.669  0.00  0.00    +0.185 C 
BRANCH  22  24
ATOM     24  C   UNL     1      -3.002 -10.763  11.648  0.00  0.00    +0.021 C 
ATOM     27  C   UNL     1      -3.148  -9.691  10.581  0.00  0.00    +0.005 C 
ENDBRANCH  22  24
ENDBRANCH   1  22
ENDBRANCH   8   1
ENDBRANCH  17   8
ENDBRANCH  12  17
TORSDOF 9
ENDMDL
MODEL 2
REMARK VINA RESULT:      -6.5      3.064      7.926
REMARK  Name = 40779537
REMARK  13 active torsions:
REMARK  status: ('A' for Active; 'I' for Inactive)
REMARK    1  A    between atoms: S_1  and  N_8
REMARK    2  A    between atoms: S_1  and  C_22
REMARK    3  A    between atoms: O_4  and  C_28
REMARK    4  A    between atoms: O_4  and  C_31
REMARK    5  A    between atoms: O_5  and  C_30
REMARK    6  A    between atoms: O_5  and  C_32
REMARK    7  A    between atoms: N_7  and  C_21
REMARK    8  A    between atoms: N_8  and  C_17
REMARK    9  A    between atoms: C_11  and  C_18
REMARK   10  A    between atoms: C_12  and  C_17
REMARK   11  A    between atoms: C_20  and  C_23
REMARK   12  A    between atoms: C_22  and  C_24
REMARK   13  A    between atoms: C_24  and  C_27
REMARK                            x       y       z     vdW  Elec       q    Type
REMARK                         _______ _______ _______ _____ _____    ______ ____
ROOT
ATOM      6  N   UNL     1      -6.570 -10.552  17.993  0.00  0.00    -0.297 NA
ATOM     10  C   UNL     1      -4.476 -11.995  17.436  0.00  0.00    +0.002 C 
ATOM     11  C   UNL     1      -4.402 -10.627  16.705  0.00  0.00    +0.055 C 
ATOM     12  C   UNL     1      -6.990 -11.914  17.571  0.00  0.00    +0.072 C 
ATOM     13  C   UNL     1      -5.782 -12.716  17.041  0.00  0.00    +0.024 C 
ATOM     14  C   UNL     1      -4.566 -11.688  18.946  0.00  0.00    +0.019 C 
ATOM     15  C   UNL     1      -5.767  -9.913  16.921  0.00  0.00    +0.094 C 
ATOM     16  C   UNL     1      -5.712 -10.691  19.193  0.00  0.00    +0.085 C 
ENDROOT
BRANCH  11  18
ATOM      7  N   UNL     1      -2.661 -10.582  14.858  0.00  0.00    -0.270 N 
ATOM      9  N   UNL     1      -2.490 -10.576  13.525  0.00  0.00    -0.171 NA
ATOM     18  C   UNL     1      -3.969 -10.614  15.246  0.00  0.00    +0.044 A 
ATOM     19  C   UNL     1      -4.704 -10.631  14.085  0.00  0.00    +0.053 A 
ATOM     20  C   UNL     1      -3.741 -10.606  13.058  0.00  0.00    +0.093 A 
ATOM     21  C   UNL     1      -1.501 -10.552  15.719  0.00  0.00    +0.172 C 
BRANCH  20  23
ATOM     23  C   UNL     1      -3.994 -10.608  11.641  0.00  0.00    +0.006 A 
ATOM     25  C   UNL     1      -4.656 -11.685  11.052  0.00  0.00    +0.059 A 
ATOM     26  C   UNL     1      -3.575  -9.533  10.857  0.00  0.00    +0.014 A 
ATOM     28  C   UNL     1      -4.901 -11.686   9.678  0.00  0.00    +0.162 A 
ATOM     29  C   UNL     1      -3.818  -9.535   9.483  0.00  0.00    +0.050 A 
ATOM     30  C   UNL     1      -4.481 -10.612   8.894  0.00  0.00    +0.162 A 
BRANCH  28   4
ATOM      4  O   UNL     1      -5.548 -12.744   9.114  0.00  0.00    -0.491 OA
ATOM     31  C   UNL     1      -6.942 -12.872   9.389  0.00  0.00    +0.277 C 
ENDBRANCH  28   4
BRANCH  30   5
ATOM      5  O   UNL     1      -4.714 -10.602   7.551  0.00  0.00    -0.491 OA
ATOM     32  C   UNL     1      -5.825  -9.835   7.092  0.00  0.00    +0.277 C 
ENDBRANCH  30   5
ENDBRANCH  20  23
ENDBRANCH  11  18
BRANCH  12  17
ATOM     17  C   UNL     1      -8.141 -11.884  16.563  0.00  0.00    +0.124 C 
BRANCH  17   8
ATOM      8  N   UNL     1      -9.174 -10.948  17.036  0.00  0.00    -0.193 NA
ATOM     33  H   UNL     1      -9.089 -10.712  18.033  0.00  0.00    +0.148 HD
BRANCH   8   1
ATOM      1  S   UNL     1      -9.695  -9.690  16.005  0.00  0.00    +0.029 S 
ATOM      2  O   UNL     1     -11.098  -9.868  15.684  0.00  0.00    -0.158 OA
ATOM      3  O   UNL     1      -8.711  -9.518  14.954  0.00  0.00    -0.158 OA
BRANCH   1  22
ATOM     22  C   UNL     1      -9.556  -8.295  17.097  0.00  0.00    +0.185 C 
BRANCH  22  24
ATOM     24  C   UNL     1     -10.714  -7.328  16.910  0.00  0.00    +0.021 C 
ATOM     27  C   UNL     1     -10.500  -6.432  15.700  0.00  0.00    +0.005 C 
ENDBRANCH  22  24
ENDBRANCH   1  22
ENDBRANCH   8   1
ENDBRANCH  17   8
ENDBRANCH  12  17
TORSDOF 9
ENDMDL
MODEL 3
REMARK VINA RESULT:      -6.3      3.766      7.609
REMARK  Name = 40779537
REMARK  13 active torsions:
REMARK  status: ('A' for Active; 'I' for Inactive)
REMARK    1  A    between atoms: S_1  and  N_8
REMARK    2  A    between atoms: S_1  and  C_22
REMARK    3  A    between atoms: O_4  and  C_28
REMARK    4  A    between atoms: O_4  and  C_31
REMARK    5  A    between atoms: O_5  and  C_30
REMARK    6  A    between atoms: O_5  and  C_32
REMARK    7  A    between atoms: N_7  and  C_21
REMARK    8  A    between atoms: N_8  and  C_17
REMARK    9  A    between atoms: C_11  and  C_18
REMARK   10  A    between atoms: C_12  and  C_17
REMARK   11  A    between atoms: C_20  and  C_23
REMARK   12  A    between atoms: C_22  and  C_24
REMARK   13  A    between atoms: C_24  and  C_27
REMARK                            x       y       z     vdW  Elec       q    Type
REMARK                         _______ _______ _______ _____ _____    ______ ____
ROOT
ATOM      6  N   UNL     1      -6.635 -10.672  18.164  0.00  0.00    -0.297 NA
ATOM     10  C   UNL     1      -4.483 -12.050  17.661  0.00  0.00    +0.002 C 
ATOM     11  C   UNL     1      -4.447 -10.691  16.909  0.00  0.00    +0.055 C 
ATOM     12  C   UNL     1      -7.001 -12.055  17.757  0.00  0.00    +0.072 C 
ATOM     13  C   UNL     1      -5.757 -12.822  17.257  0.00  0.00    +0.024 C 
ATOM     14  C   UNL     1      -4.607 -11.723  19.164  0.00  0.00    +0.019 C 
ATOM     15  C   UNL     1      -5.839 -10.022  17.094  0.00  0.00    +0.094 C 
ATOM     16  C   UNL     1      -5.791 -10.763  19.378  0.00  0.00    +0.085 C 
ENDROOT
BRANCH  11  18
ATOM      7  N   UNL     1      -2.679 -10.657  15.088  0.00  0.00    -0.270 N 
ATOM      9  N   UNL     1      -2.488 -10.657  13.757  0.00  0.00    -0.171 NA
ATOM     18  C   UNL     1      -3.992 -10.685  15.456  0.00  0.00    +0.044 A 
ATOM     19  C   UNL     1      -4.710 -10.705  14.285  0.00  0.00    +0.053 A 
ATOM     20  C   UNL     1      -3.733 -10.687  13.273  0.00  0.00    +0.093 A 
ATOM     21  C   UNL     1      -1.532 -10.626  15.965  0.00  0.00    +0.172 C 
BRANCH  20  23
ATOM     23  C   UNL     1      -3.965 -10.694  11.851  0.00  0.00    +0.006 A 
ATOM     25  C   UNL     1      -4.502  -9.569  11.227  0.00  0.00    +0.059 A 
ATOM     26  C   UNL     1      -3.653 -11.827  11.100  0.00  0.00    +0.014 A 
ATOM     28  C   UNL     1      -4.727  -9.576   9.850  0.00  0.00    +0.162 A 
ATOM     29  C   UNL     1      -3.879 -11.835   9.724  0.00  0.00    +0.050 A 
ATOM     30  C   UNL     1      -4.416 -10.709   9.098  0.00  0.00    +0.162 A 
BRANCH  28   4
ATOM      4  O   UNL     1      -5.253  -8.472   9.251  0.00  0.00    -0.491 OA
ATOM     31  C   UNL     1      -6.673  -8.347   9.254  0.00  0.00    +0.277 C 
ENDBRANCH  28   4
BRANCH  30   5
ATOM      5  O   UNL     1      -4.632 -10.729   7.753  0.00  0.00    -0.491 OA
ATOM     32  C   UNL     1      -5.681 -11.569   7.277  0.00  0.00    +0.277 C 
ENDBRANCH  30   5
ENDBRANCH  20  23
ENDBRANCH  11  18
BRANCH  12  17
ATOM     17  C   UNL     1      -8.136 -12.081  16.732  0.00  0.00    +0.124 C 
BRANCH  17   8
ATOM      8  N   UNL     1      -9.201 -11.163  17.167  0.00  0.00    -0.193 NA
ATOM     33  H   UNL     1      -9.135 -10.896  18.158  0.00  0.00    +0.148 HD
BRANCH   8   1
ATOM      1  S   UNL     1      -9.746  -9.950  16.094  0.00  0.00    +0.029 S 
ATOM      2  O   UNL     1      -9.000  -8.727  16.318  0.00  0.00    -0.158 OA
ATOM      3  O   UNL     1     -11.196  -9.945  16.102  0.00  0.00    -0.158 OA
BRANCH   1  22
ATOM     22  C   UNL     1      -9.224 -10.633  14.538  0.00  0.00    +0.185 C 
BRANCH  22  24
ATOM     24  C   UNL     1      -8.235  -9.717  13.835  0.00  0.00    +0.021 C 
ATOM     27  C   UNL     1      -7.998 -10.154  12.399  0.00  0.00    +0.005 C 
ENDBRANCH  22  24
ENDBRANCH   1  22
ENDBRANCH   8   1
ENDBRANCH  17   8
ENDBRANCH  12  17
TORSDOF 9
ENDMDL
MODEL 4
REMARK VINA RESULT:      -6.2     28.127     31.974
REMARK  Name = 40779537
REMARK  13 active torsions:
REMARK  status: ('A' for Active; 'I' for Inactive)
REMARK    1  A    between atoms: S_1  and  N_8
REMARK    2  A    between atoms: S_1  and  C_22
REMARK    3  A    between atoms: O_4  and  C_28
REMARK    4  A    between atoms: O_4  and  C_31
REMARK    5  A    between atoms: O_5  and  C_30
REMARK    6  A    between atoms: O_5  and  C_32
REMARK    7  A    between atoms: N_7  and  C_21
REMARK    8  A    between atoms: N_8  and  C_17
REMARK    9  A    between atoms: C_11  and  C_18
REMARK   10  A    between atoms: C_12  and  C_17
REMARK   11  A    between atoms: C_20  and  C_23
REMARK   12  A    between atoms: C_22  and  C_24
REMARK   13  A    between atoms: C_24  and  C_27
REMARK                            x       y       z     vdW  Elec       q    Type
REMARK                         _______ _______ _______ _____ _____    ______ ____
ROOT
ATOM      6  N   UNL     1      12.673   7.460  20.028  0.00  0.00    -0.297 NA
ATOM     10  C   UNL     1      14.609   8.722  18.829  0.00  0.00    +0.002 C 
ATOM     11  C   UNL     1      15.078   7.312  19.282  0.00  0.00    +0.055 C 
ATOM     12  C   UNL     1      12.825   8.822  20.606  0.00  0.00    +0.072 C 
ATOM     13  C   UNL     1      14.095   9.507  20.055  0.00  0.00    +0.024 C 
ATOM     14  C   UNL     1      13.405   8.510  17.888  0.00  0.00    +0.019 C 
ATOM     15  C   UNL     1      13.944   6.707  20.159  0.00  0.00    +0.094 C 
ATOM     16  C   UNL     1      12.370   7.610  18.585  0.00  0.00    +0.085 C 
ENDROOT
BRANCH  11  18
ATOM      7  N   UNL     1      17.424   6.361  19.467  0.00  0.00    -0.270 N 
ATOM      9  N   UNL     1      18.557   6.395  20.189  0.00  0.00    -0.171 NA
ATOM     18  C   UNL     1      16.445   7.185  19.939  0.00  0.00    +0.044 A 
ATOM     19  C   UNL     1      16.975   7.801  21.048  0.00  0.00    +0.053 A 
ATOM     20  C   UNL     1      18.277   7.276  21.153  0.00  0.00    +0.093 A 
ATOM     21  C   UNL     1      17.348   5.496  18.313  0.00  0.00    +0.172 C 
BRANCH  20  23
ATOM     23  C   UNL     1      19.256   7.597  22.158  0.00  0.00    +0.006 A 
ATOM     25  C   UNL     1      19.946   6.577  22.812  0.00  0.00    +0.059 A 
ATOM     26  C   UNL     1      19.513   8.931  22.479  0.00  0.00    +0.014 A 
ATOM     28  C   UNL     1      20.895   6.889  23.786  0.00  0.00    +0.162 A 
ATOM     29  C   UNL     1      20.461   9.243  23.454  0.00  0.00    +0.050 A 
ATOM     30  C   UNL     1      21.152   8.222  24.108  0.00  0.00    +0.162 A 
BRANCH  28   4
ATOM      4  O   UNL     1      21.563   5.884  24.418  0.00  0.00    -0.491 OA
ATOM     31  C   UNL     1      22.628   5.263  23.701  0.00  0.00    +0.277 C 
ENDBRANCH  28   4
BRANCH  30   5
ATOM      5  O   UNL     1      22.076   8.539  25.057  0.00  0.00    -0.491 OA
ATOM     32  C   UNL     1      21.619   9.291  26.181  0.00  0.00    +0.277 C 
ENDBRANCH  30   5
ENDBRANCH  20  23
ENDBRANCH  11  18
BRANCH  12  17
ATOM     17  C   UNL     1      12.801   8.813  22.135  0.00  0.00    +0.124 C 
BRANCH  17   8
ATOM      8  N   UNL     1      11.654   9.607  22.605  0.00  0.00    -0.193 NA
ATOM     33  H   UNL     1      11.001   9.076  23.197  0.00  0.00    +0.148 HD
BRANCH   8   1
ATOM      1  S   UNL     1      11.889  11.246  23.024  0.00  0.00    +0.029 S 
ATOM      2  O   UNL     1      11.035  12.088  22.209  0.00  0.00    -0.158 OA
ATOM      3  O   UNL     1      13.314  11.500  23.111  0.00  0.00    -0.158 OA
BRANCH   1  22
ATOM     22  C   UNL     1      11.245  11.254  24.681  0.00  0.00    +0.185 C 
BRANCH  22  24
ATOM     24  C   UNL     1      10.650  12.607  25.037  0.00  0.00    +0.021 C 
ATOM     27  C   UNL     1      11.689  13.524  25.661  0.00  0.00    +0.005 C 
ENDBRANCH  22  24
ENDBRANCH   1  22
ENDBRANCH   8   1
ENDBRANCH  17   8
ENDBRANCH  12  17
TORSDOF 9
ENDMDL
MODEL 5
REMARK VINA RESULT:      -6.0     25.739     28.559
REMARK  Name = 40779537
REMARK  13 active torsions:
REMARK  status: ('A' for Active; 'I' for Inactive)
REMARK    1  A    between atoms: S_1  and  N_8
REMARK    2  A    between atoms: S_1  and  C_22
REMARK    3  A    between atoms: O_4  and  C_28
REMARK    4  A    between atoms: O_4  and  C_31
REMARK    5  A    between atoms: O_5  and  C_30
REMARK    6  A    between atoms: O_5  and  C_32
REMARK    7  A    between atoms: N_7  and  C_21
REMARK    8  A    between atoms: N_8  and  C_17
REMARK    9  A    between atoms: C_11  and  C_18
REMARK   10  A    between atoms: C_12  and  C_17
REMARK   11  A    between atoms: C_20  and  C_23
REMARK   12  A    between atoms: C_22  and  C_24
REMARK   13  A    between atoms: C_24  and  C_27
REMARK                            x       y       z     vdW  Elec       q    Type
REMARK                         _______ _______ _______ _____ _____    ______ ____
ROOT
ATOM      6  N   UNL     1       9.590   7.851   6.986  0.00  0.00    -0.297 NA
ATOM     10  C   UNL     1       9.497   5.393   6.131  0.00  0.00    +0.002 C 
ATOM     11  C   UNL     1      10.847   6.052   5.741  0.00  0.00    +0.055 C 
ATOM     12  C   UNL     1       8.318   7.616   6.252  0.00  0.00    +0.072 C 
ATOM     13  C   UNL     1       8.335   6.235   5.563  0.00  0.00    +0.024 C 
ATOM     14  C   UNL     1       9.396   5.461   7.670  0.00  0.00    +0.019 C 
ATOM     15  C   UNL     1      10.747   7.562   6.102  0.00  0.00    +0.094 C 
ATOM     16  C   UNL     1       9.635   6.910   8.130  0.00  0.00    +0.085 C 
ENDROOT
BRANCH  11  18
ATOM      7  N   UNL     1      12.402   6.554   3.799  0.00  0.00    -0.270 N 
ATOM      9  N   UNL     1      12.717   6.204   2.539  0.00  0.00    -0.171 NA
ATOM     18  C   UNL     1      11.375   5.831   4.331  0.00  0.00    +0.044 A 
ATOM     19  C   UNL     1      10.993   4.945   3.352  0.00  0.00    +0.053 A 
ATOM     20  C   UNL     1      11.853   5.221   2.273  0.00  0.00    +0.093 A 
ATOM     21  C   UNL     1      13.141   7.615   4.442  0.00  0.00    +0.172 C 
BRANCH  20  23
ATOM     23  C   UNL     1      11.864   4.565   0.991  0.00  0.00    +0.006 A 
ATOM     25  C   UNL     1      10.807   4.755   0.101  0.00  0.00    +0.059 A 
ATOM     26  C   UNL     1      12.931   3.736   0.641  0.00  0.00    +0.014 A 
ATOM     28  C   UNL     1      10.818   4.119  -1.140  0.00  0.00    +0.162 A 
ATOM     29  C   UNL     1      12.941   3.100  -0.600  0.00  0.00    +0.050 A 
ATOM     30  C   UNL     1      11.884   3.291  -1.491  0.00  0.00    +0.162 A 
BRANCH  28   4
ATOM      4  O   UNL     1       9.781   4.313  -2.002  0.00  0.00    -0.491 OA
ATOM     31  C   UNL     1       9.175   5.604  -2.007  0.00  0.00    +0.277 C 
ENDBRANCH  28   4
BRANCH  30   5
ATOM      5  O   UNL     1      11.906   2.664  -2.700  0.00  0.00    -0.491 OA
ATOM     32  C   UNL     1      12.672   3.278  -3.735  0.00  0.00    +0.277 C 
ENDBRANCH  30   5
ENDBRANCH  20  23
ENDBRANCH  11  18
BRANCH  12  17
ATOM     17  C   UNL     1       7.998   8.741   5.266  0.00  0.00    +0.124 C 
BRANCH  17   8
ATOM      8  N   UNL     1       7.922   8.185   3.905  0.00  0.00    -0.193 NA
ATOM     33  H   UNL     1       6.958   8.044   3.572  0.00  0.00    +0.148 HD
BRANCH   8   1
ATOM      1  S   UNL     1       9.059   8.685   2.734  0.00  0.00    +0.029 S 
ATOM      2  O   UNL     1       9.266   7.625   1.766  0.00  0.00    -0.158 OA
ATOM      3  O   UNL     1      10.184   9.296   3.415  0.00  0.00    -0.158 OA
BRANCH   1  22
ATOM     22  C   UNL     1       8.152   9.988   1.934  0.00  0.00    +0.185 C 
BRANCH  22  24
ATOM     24  C   UNL     1       6.671   9.656   1.842  0.00  0.00    +0.021 C 
ATOM     27  C   UNL     1       6.197   9.628   0.398  0.00  0.00    +0.005 C 
ENDBRANCH  22  24
ENDBRANCH   1  22
ENDBRANCH   8   1
ENDBRANCH  17   8
ENDBRANCH  12  17
TORSDOF 9
ENDMDL
MODEL 6
REMARK VINA RESULT:      -6.0      4.713      8.394
REMARK  Name = 40779537
REMARK  13 active torsions:
REMARK  status: ('A' for Active; 'I' for Inactive)
REMARK    1  A    between atoms: S_1  and  N_8
REMARK    2  A    between atoms: S_1  and  C_22
REMARK    3  A    between atoms: O_4  and  C_28
REMARK    4  A    between atoms: O_4  and  C_31
REMARK    5  A    between atoms: O_5  and  C_30
REMARK    6  A    between atoms: O_5  and  C_32
REMARK    7  A    between atoms: N_7  and  C_21
REMARK    8  A    between atoms: N_8  and  C_17
REMARK    9  A    between atoms: C_11  and  C_18
REMARK   10  A    between atoms: C_12  and  C_17
REMARK   11  A    between atoms: C_20  and  C_23
REMARK   12  A    between atoms: C_22  and  C_24
REMARK   13  A    between atoms: C_24  and  C_27
REMARK                            x       y       z     vdW  Elec       q    Type
REMARK                         _______ _______ _______ _____ _____    ______ ____
ROOT
ATOM      6  N   UNL     1      -5.862 -10.428   9.335  0.00  0.00    -0.297 NA
ATOM     10  C   UNL     1      -4.241  -8.866  10.644  0.00  0.00    +0.002 C 
ATOM     11  C   UNL     1      -4.268 -10.281  11.284  0.00  0.00    +0.055 C 
ATOM     12  C   UNL     1      -6.543  -9.147   9.660  0.00  0.00    +0.072 C 
ATOM     13  C   UNL     1      -5.674  -8.295  10.611  0.00  0.00    +0.024 C 
ATOM     14  C   UNL     1      -3.790  -9.049   9.179  0.00  0.00    +0.019 C 
ATOM     15  C   UNL     1      -5.397 -11.087  10.581  0.00  0.00    +0.094 C 
ATOM     16  C   UNL     1      -4.674 -10.114   8.507  0.00  0.00    +0.085 C 
ENDROOT
BRANCH  11  18
ATOM      7  N   UNL     1      -3.244 -10.508  13.596  0.00  0.00    -0.270 N 
ATOM      9  N   UNL     1      -3.527 -10.582  14.908  0.00  0.00    -0.171 NA
ATOM     18  C   UNL     1      -4.345 -10.383  12.801  0.00  0.00    +0.044 A 
ATOM     19  C   UNL     1      -5.424 -10.375  13.653  0.00  0.00    +0.053 A 
ATOM     20  C   UNL     1      -4.860 -10.500  14.936  0.00  0.00    +0.093 A 
ATOM     21  C   UNL     1      -1.866 -10.566  13.166  0.00  0.00    +0.172 C 
BRANCH  20  23
ATOM     23  C   UNL     1      -5.570 -10.546  16.188  0.00  0.00    +0.006 A 
ATOM     25  C   UNL     1      -4.966 -11.109  17.312  0.00  0.00    +0.059 A 
ATOM     26  C   UNL     1      -6.862 -10.028  16.275  0.00  0.00    +0.014 A 
ATOM     28  C   UNL     1      -5.654 -11.153  18.524  0.00  0.00    +0.162 A 
ATOM     29  C   UNL     1      -7.551 -10.074  17.488  0.00  0.00    +0.050 A 
ATOM     30  C   UNL     1      -6.947 -10.637  18.613  0.00  0.00    +0.162 A 
BRANCH  28   4
ATOM      4  O   UNL     1      -5.055 -11.706  19.616  0.00  0.00    -0.491 OA
ATOM     31  C   UNL     1      -3.715 -12.168  19.455  0.00  0.00    +0.277 C 
ENDBRANCH  28   4
BRANCH  30   5
ATOM      5  O   UNL     1      -7.629 -10.675  19.791  0.00  0.00    -0.491 OA
ATOM     32  C   UNL     1      -8.983 -11.122  19.742  0.00  0.00    +0.277 C 
ENDBRANCH  30   5
ENDBRANCH  20  23
ENDBRANCH  11  18
BRANCH  12  17
ATOM     17  C   UNL     1      -7.953  -9.360  10.215  0.00  0.00    +0.124 C 
BRANCH  17   8
ATOM      8  N   UNL     1      -8.697 -10.256   9.315  0.00  0.00    -0.193 NA
ATOM     33  H   UNL     1      -9.193 -11.012   9.805  0.00  0.00    +0.148 HD
BRANCH   8   1
ATOM      1  S   UNL     1      -9.483  -9.601   7.947  0.00  0.00    +0.029 S 
ATOM      2  O   UNL     1     -10.788 -10.214   7.791  0.00  0.00    -0.158 OA
ATOM      3  O   UNL     1      -8.542  -9.571   6.845  0.00  0.00    -0.158 OA
BRANCH   1  22
ATOM     22  C   UNL     1      -9.727  -7.924   8.484  0.00  0.00    +0.185 C 
BRANCH  22  24
ATOM     24  C   UNL     1      -9.417  -6.936   7.370  0.00  0.00    +0.021 C 
ATOM     27  C   UNL     1     -10.615  -6.738   6.455  0.00  0.00    +0.005 C 
ENDBRANCH  22  24
ENDBRANCH   1  22
ENDBRANCH   8   1
ENDBRANCH  17   8
ENDBRANCH  12  17
TORSDOF 9
ENDMDL
MODEL 7
REMARK VINA RESULT:      -6.0     26.405     29.041
REMARK  Name = 40779537
REMARK  13 active torsions:
REMARK  status: ('A' for Active; 'I' for Inactive)
REMARK    1  A    between atoms: S_1  and  N_8
REMARK    2  A    between atoms: S_1  and  C_22
REMARK    3  A    between atoms: O_4  and  C_28
REMARK    4  A    between atoms: O_4  and  C_31
REMARK    5  A    between atoms: O_5  and  C_30
REMARK    6  A    between atoms: O_5  and  C_32
REMARK    7  A    between atoms: N_7  and  C_21
REMARK    8  A    between atoms: N_8  and  C_17
REMARK    9  A    between atoms: C_11  and  C_18
REMARK   10  A    between atoms: C_12  and  C_17
REMARK   11  A    between atoms: C_20  and  C_23
REMARK   12  A    between atoms: C_22  and  C_24
REMARK   13  A    between atoms: C_24  and  C_27
REMARK                            x       y       z     vdW  Elec       q    Type
REMARK                         _______ _______ _______ _____ _____    ______ ____
ROOT
ATOM      6  N   UNL     1      10.538   6.128   7.551  0.00  0.00    -0.297 NA
ATOM     10  C   UNL     1       9.574   7.923   5.930  0.00  0.00    +0.002 C 
ATOM     11  C   UNL     1       9.411   6.502   5.325  0.00  0.00    +0.055 C 
ATOM     12  C   UNL     1      11.531   7.216   7.350  0.00  0.00    +0.072 C 
ATOM     13  C   UNL     1      11.064   8.180   6.237  0.00  0.00    +0.024 C 
ATOM     14  C   UNL     1       8.825   7.920   7.280  0.00  0.00    +0.019 C 
ATOM     15  C   UNL     1      10.184   5.516   6.246  0.00  0.00    +0.094 C 
ATOM     16  C   UNL     1       9.312   6.731   8.126  0.00  0.00    +0.085 C 
ENDROOT
BRANCH  11  18
ATOM      7  N   UNL     1       9.226   7.075   2.859  0.00  0.00    -0.270 N 
ATOM      9  N   UNL     1       9.652   6.738   1.629  0.00  0.00    -0.171 NA
ATOM     18  C   UNL     1       9.750   6.304   3.854  0.00  0.00    +0.044 A 
ATOM     19  C   UNL     1      10.577   5.399   3.232  0.00  0.00    +0.053 A 
ATOM     20  C   UNL     1      10.477   5.715   1.864  0.00  0.00    +0.093 A 
ATOM     21  C   UNL     1       8.294   8.169   3.009  0.00  0.00    +0.172 C 
BRANCH  20  23
ATOM     23  C   UNL     1      11.152   5.054   0.777  0.00  0.00    +0.006 A 
ATOM     25  C   UNL     1      12.471   4.629   0.930  0.00  0.00    +0.059 A 
ATOM     26  C   UNL     1      10.486   4.842  -0.431  0.00  0.00    +0.014 A 
ATOM     28  C   UNL     1      13.125   3.990  -0.124  0.00  0.00    +0.162 A 
ATOM     29  C   UNL     1      11.140   4.204  -1.485  0.00  0.00    +0.050 A 
ATOM     30  C   UNL     1      12.460   3.778  -1.331  0.00  0.00    +0.162 A 
BRANCH  28   4
ATOM      4  O   UNL     1      14.414   3.580   0.037  0.00  0.00    -0.491 OA
ATOM     31  C   UNL     1      15.407   4.596   0.160  0.00  0.00    +0.277 C 
ENDBRANCH  28   4
BRANCH  30   5
ATOM      5  O   UNL     1      13.087   3.155  -2.368  0.00  0.00    -0.491 OA
ATOM     32  C   UNL     1      12.362   3.043  -3.591  0.00  0.00    +0.277 C 
ENDBRANCH  30   5
ENDBRANCH  20  23
ENDBRANCH  11  18
BRANCH  12  17
ATOM     17  C   UNL     1      12.939   6.680   7.086  0.00  0.00    +0.124 C 
BRANCH  17   8
ATOM      8  N   UNL     1      13.266   6.860   5.662  0.00  0.00    -0.193 NA
ATOM     33  H   UNL     1      12.445   7.050   5.072  0.00  0.00    +0.148 HD
BRANCH   8   1
ATOM      1  S   UNL     1      14.706   7.673   5.233  0.00  0.00    +0.029 S 
ATOM      2  O   UNL     1      15.564   6.784   4.474  0.00  0.00    -0.158 OA
ATOM      3  O   UNL     1      15.209   8.368   6.402  0.00  0.00    -0.158 OA
BRANCH   1  22
ATOM     22  C   UNL     1      14.067   8.902   4.118  0.00  0.00    +0.185 C 
BRANCH  22  24
ATOM     24  C   UNL     1      13.047   8.305   3.162  0.00  0.00    +0.021 C 
ATOM     27  C   UNL     1      11.957   9.307   2.816  0.00  0.00    +0.005 C 
ENDBRANCH  22  24
ENDBRANCH   1  22
ENDBRANCH   8   1
ENDBRANCH  17   8
ENDBRANCH  12  17
TORSDOF 9
ENDMDL
MODEL 8
REMARK VINA RESULT:      -5.9     17.997     19.926
REMARK  Name = 40779537
REMARK  13 active torsions:
REMARK  status: ('A' for Active; 'I' for Inactive)
REMARK    1  A    between atoms: S_1  and  N_8
REMARK    2  A    between atoms: S_1  and  C_22
REMARK    3  A    between atoms: O_4  and  C_28
REMARK    4  A    between atoms: O_4  and  C_31
REMARK    5  A    between atoms: O_5  and  C_30
REMARK    6  A    between atoms: O_5  and  C_32
REMARK    7  A    between atoms: N_7  and  C_21
REMARK    8  A    between atoms: N_8  and  C_17
REMARK    9  A    between atoms: C_11  and  C_18
REMARK   10  A    between atoms: C_12  and  C_17
REMARK   11  A    between atoms: C_20  and  C_23
REMARK   12  A    between atoms: C_22  and  C_24
REMARK   13  A    between atoms: C_24  and  C_27
REMARK                            x       y       z     vdW  Elec       q    Type
REMARK                         _______ _______ _______ _____ _____    ______ ____
ROOT
ATOM      6  N   UNL     1     -18.505   4.448  23.300  0.00  0.00    -0.297 NA
ATOM     10  C   UNL     1     -17.371   2.106  23.393  0.00  0.00    +0.002 C 
ATOM     11  C   UNL     1     -18.353   2.281  24.583  0.00  0.00    +0.055 C 
ATOM     12  C   UNL     1     -17.032   4.591  23.162  0.00  0.00    +0.072 C 
ATOM     13  C   UNL     1     -16.327   3.242  23.421  0.00  0.00    +0.024 C 
ATOM     14  C   UNL     1     -18.200   2.282  22.103  0.00  0.00    +0.019 C 
ATOM     15  C   UNL     1     -18.831   3.761  24.575  0.00  0.00    +0.094 C 
ATOM     16  C   UNL     1     -18.987   3.602  22.183  0.00  0.00    +0.085 C 
ENDROOT
BRANCH  11  18
ATOM      7  N   UNL     1     -18.421   0.746  26.603  0.00  0.00    -0.270 N 
ATOM      9  N   UNL     1     -17.882   0.516  27.813  0.00  0.00    -0.171 NA
ATOM     18  C   UNL     1     -17.897   1.831  25.964  0.00  0.00    +0.044 A 
ATOM     19  C   UNL     1     -16.949   2.346  26.815  0.00  0.00    +0.053 A 
ATOM     20  C   UNL     1     -16.984   1.496  27.937  0.00  0.00    +0.093 A 
ATOM     21  C   UNL     1     -19.457  -0.133  26.114  0.00  0.00    +0.172 C 
BRANCH  20  23
ATOM     23  C   UNL     1     -16.178   1.606  29.125  0.00  0.00    +0.006 A 
ATOM     25  C   UNL     1     -15.750   2.858  29.565  0.00  0.00    +0.059 A 
ATOM     26  C   UNL     1     -15.825   0.458  29.835  0.00  0.00    +0.014 A 
ATOM     28  C   UNL     1     -14.968   2.962  30.716  0.00  0.00    +0.162 A 
ATOM     29  C   UNL     1     -15.043   0.562  30.985  0.00  0.00    +0.050 A 
ATOM     30  C   UNL     1     -14.614   1.815  31.426  0.00  0.00    +0.162 A 
BRANCH  28   4
ATOM      4  O   UNL     1     -14.555   4.191  31.136  0.00  0.00    -0.491 OA
ATOM     31  C   UNL     1     -15.505   4.988  31.841  0.00  0.00    +0.277 C 
ENDBRANCH  28   4
BRANCH  30   5
ATOM      5  O   UNL     1     -13.852   1.905  32.551  0.00  0.00    -0.491 OA
ATOM     32  C   UNL     1     -14.506   1.676  33.798  0.00  0.00    +0.277 C 
ENDBRANCH  30   5
ENDBRANCH  20  23
ENDBRANCH  11  18
BRANCH  12  17
ATOM     17  C   UNL     1     -16.468   5.707  24.044  0.00  0.00    +0.124 C 
BRANCH  17   8
ATOM      8  N   UNL     1     -15.110   6.044  23.589  0.00  0.00    -0.193 NA
ATOM     33  H   UNL     1     -14.484   5.230  23.525  0.00  0.00    +0.148 HD
BRANCH   8   1
ATOM      1  S   UNL     1     -14.905   7.249  22.396  0.00  0.00    +0.029 S 
ATOM      2  O   UNL     1     -14.314   8.433  22.991  0.00  0.00    -0.158 OA
ATOM      3  O   UNL     1     -16.125   7.342  21.619  0.00  0.00    -0.158 OA
BRANCH   1  22
ATOM     22  C   UNL     1     -13.675   6.483  21.367  0.00  0.00    +0.185 C 
BRANCH  22  24
ATOM     24  C   UNL     1     -12.448   7.368  21.217  0.00  0.00    +0.021 C 
ATOM     27  C   UNL     1     -11.724   7.096  19.909  0.00  0.00    +0.005 C 
ENDBRANCH  22  24
ENDBRANCH   1  22
ENDBRANCH   8   1
ENDBRANCH  17   8
ENDBRANCH  12  17
TORSDOF 9
ENDMDL
MODEL 9
REMARK VINA RESULT:      -5.9     27.346     31.194
REMARK  Name = 40779537
REMARK  13 active torsions:
REMARK  status: ('A' for Active; 'I' for Inactive)
REMARK    1  A    between atoms: S_1  and  N_8
REMARK    2  A    between atoms: S_1  and  C_22
REMARK    3  A    between atoms: O_4  and  C_28
REMARK    4  A    between atoms: O_4  and  C_31
REMARK    5  A    between atoms: O_5  and  C_30
REMARK    6  A    between atoms: O_5  and  C_32
REMARK    7  A    between atoms: N_7  and  C_21
REMARK    8  A    between atoms: N_8  and  C_17
REMARK    9  A    between atoms: C_11  and  C_18
REMARK   10  A    between atoms: C_12  and  C_17
REMARK   11  A    between atoms: C_20  and  C_23
REMARK   12  A    between atoms: C_22  and  C_24
REMARK   13  A    between atoms: C_24  and  C_27
REMARK                            x       y       z     vdW  Elec       q    Type
REMARK                         _______ _______ _______ _____ _____    ______ ____
ROOT
ATOM      6  N   UNL     1      11.722   8.141  18.916  0.00  0.00    -0.297 NA
ATOM     10  C   UNL     1      14.078   8.761  17.998  0.00  0.00    +0.002 C 
ATOM     11  C   UNL     1      14.116   7.377  18.702  0.00  0.00    +0.055 C 
ATOM     12  C   UNL     1      12.089   9.516  19.346  0.00  0.00    +0.072 C 
ATOM     13  C   UNL     1      13.559   9.824  18.989  0.00  0.00    +0.024 C 
ATOM     14  C   UNL     1      13.039   8.654  16.861  0.00  0.00    +0.019 C 
ATOM     15  C   UNL     1      12.738   7.171  19.393  0.00  0.00    +0.094 C 
ATOM     16  C   UNL     1      11.717   8.114  17.434  0.00  0.00    +0.085 C 
ENDROOT
BRANCH  11  18
ATOM      7  N   UNL     1      15.183   7.152  20.993  0.00  0.00    -0.270 N 
ATOM      9  N   UNL     1      16.324   6.848  21.637  0.00  0.00    -0.171 NA
ATOM     18  C   UNL     1      15.280   7.077  19.635  0.00  0.00    +0.044 A 
ATOM     19  C   UNL     1      16.575   6.696  19.372  0.00  0.00    +0.053 A 
ATOM     20  C   UNL     1      17.169   6.570  20.641  0.00  0.00    +0.093 A 
ATOM     21  C   UNL     1      14.015   7.516  21.761  0.00  0.00    +0.172 C 
BRANCH  20  23
ATOM     23  C   UNL     1      18.530   6.193  20.921  0.00  0.00    +0.006 A 
ATOM     25  C   UNL     1      19.195   6.740  22.017  0.00  0.00    +0.059 A 
ATOM     26  C   UNL     1      19.184   5.280  20.092  0.00  0.00    +0.014 A 
ATOM     28  C   UNL     1      20.514   6.374  22.287  0.00  0.00    +0.162 A 
ATOM     29  C   UNL     1      20.503   4.915  20.362  0.00  0.00    +0.050 A 
ATOM     30  C   UNL     1      21.169   5.462  21.459  0.00  0.00    +0.162 A 
BRANCH  28   4
ATOM      4  O   UNL     1      21.153   6.916  23.361  0.00  0.00    -0.491 OA
ATOM     31  C   UNL     1      20.418   7.849  24.151  0.00  0.00    +0.277 C 
ENDBRANCH  28   4
BRANCH  30   5
ATOM      5  O   UNL     1      22.456   5.097  21.713  0.00  0.00    -0.491 OA
ATOM     32  C   UNL     1      23.081   4.229  20.769  0.00  0.00    +0.277 C 
ENDBRANCH  30   5
ENDBRANCH  20  23
ENDBRANCH  11  18
BRANCH  12  17
ATOM     17  C   UNL     1      11.798   9.761  20.828  0.00  0.00    +0.124 C 
BRANCH  17   8
ATOM      8  N   UNL     1      12.617  10.889  21.301  0.00  0.00    -0.193 NA
ATOM     33  H   UNL     1      12.605  11.700  20.669  0.00  0.00    +0.148 HD
BRANCH   8   1
ATOM      1  S   UNL     1      12.672  11.237  22.972  0.00  0.00    +0.029 S 
ATOM      2  O   UNL     1      13.995  10.947  23.491  0.00  0.00    -0.158 OA
ATOM      3  O   UNL     1      11.492  10.675  23.599  0.00  0.00    -0.158 OA
BRANCH   1  22
ATOM     22  C   UNL     1      12.470  13.003  22.945  0.00  0.00    +0.185 C 
BRANCH  22  24
ATOM     24  C   UNL     1      11.867  13.471  21.630  0.00  0.00    +0.021 C 
ATOM     27  C   UNL     1      10.395  13.815  21.787  0.00  0.00    +0.005 C 
ENDBRANCH  22  24
ENDBRANCH   1  22
ENDBRANCH   8   1
ENDBRANCH  17   8
ENDBRANCH  12  17
TORSDOF 9
ENDMDL
MODEL 10
REMARK VINA RESULT:      -5.9     19.682     22.295
REMARK  Name = 40779537
REMARK  13 active torsions:
REMARK  status: ('A' for Active; 'I' for Inactive)
REMARK    1  A    between atoms: S_1  and  N_8
REMARK    2  A    between atoms: S_1  and  C_22
REMARK    3  A    between atoms: O_4  and  C_28
REMARK    4  A    between atoms: O_4  and  C_31
REMARK    5  A    between atoms: O_5  and  C_30
REMARK    6  A    between atoms: O_5  and  C_32
REMARK    7  A    between atoms: N_7  and  C_21
REMARK    8  A    between atoms: N_8  and  C_17
REMARK    9  A    between atoms: C_11  and  C_18
REMARK   10  A    between atoms: C_12  and  C_17
REMARK   11  A    between atoms: C_20  and  C_23
REMARK   12  A    between atoms: C_22  and  C_24
REMARK   13  A    between atoms: C_24  and  C_27
REMARK                            x       y       z     vdW  Elec       q    Type
REMARK                         _______ _______ _______ _____ _____    ______ ____
ROOT
ATOM      6  N   UNL     1       5.197 -10.475  37.082  0.00  0.00    -0.297 NA
ATOM     10  C   UNL     1       3.054 -10.686  35.619  0.00  0.00    +0.002 C 
ATOM     11  C   UNL     1       3.870 -12.007  35.580  0.00  0.00    +0.055 C 
ATOM     12  C   UNL     1       5.094  -9.311  36.162  0.00  0.00    +0.072 C 
ATOM     13  C   UNL     1       3.948  -9.519  35.148  0.00  0.00    +0.024 C 
ATOM     14  C   UNL     1       2.704 -10.422  37.099  0.00  0.00    +0.019 C 
ATOM     15  C   UNL     1       5.221 -11.738  36.302  0.00  0.00    +0.094 C 
ATOM     16  C   UNL     1       3.990 -10.485  37.942  0.00  0.00    +0.085 C 
ENDROOT
BRANCH  11  18
ATOM      7  N   UNL     1       3.287 -13.735  33.815  0.00  0.00    -0.270 N 
ATOM      9  N   UNL     1       3.618 -14.201  32.598  0.00  0.00    -0.171 NA
ATOM     18  C   UNL     1       4.062 -12.694  34.235  0.00  0.00    +0.044 A 
ATOM     19  C   UNL     1       4.962 -12.464  33.223  0.00  0.00    +0.053 A 
ATOM     20  C   UNL     1       4.641 -13.421  32.242  0.00  0.00    +0.093 A 
ATOM     21  C   UNL     1       2.195 -14.350  34.533  0.00  0.00    +0.172 C 
BRANCH  20  23
ATOM     23  C   UNL     1       5.296 -13.605  30.973  0.00  0.00    +0.006 A 
ATOM     25  C   UNL     1       6.457 -12.892  30.677  0.00  0.00    +0.059 A 
ATOM     26  C   UNL     1       4.767 -14.496  30.039  0.00  0.00    +0.014 A 
ATOM     28  C   UNL     1       7.091 -13.071  29.447  0.00  0.00    +0.162 A 
ATOM     29  C   UNL     1       5.400 -14.675  28.809  0.00  0.00    +0.050 A 
ATOM     30  C   UNL     1       6.562 -13.961  28.512  0.00  0.00    +0.162 A 
BRANCH  28   4
ATOM      4  O   UNL     1       8.224 -12.369  29.169  0.00  0.00    -0.491 OA
ATOM     31  C   UNL     1       9.178 -12.235  30.221  0.00  0.00    +0.277 C 
ENDBRANCH  28   4
BRANCH  30   5
ATOM      5  O   UNL     1       7.171 -14.144  27.308  0.00  0.00    -0.491 OA
ATOM     32  C   UNL     1       6.899 -15.366  26.623  0.00  0.00    +0.277 C 
ENDBRANCH  30   5
ENDBRANCH  20  23
ENDBRANCH  11  18
BRANCH  12  17
ATOM     17  C   UNL     1       6.420  -8.997  35.467  0.00  0.00    +0.124 C 
BRANCH  17   8
ATOM      8  N   UNL     1       6.408  -7.597  35.013  0.00  0.00    -0.193 NA
ATOM     33  H   UNL     1       6.479  -6.915  35.781  0.00  0.00    +0.148 HD
BRANCH   8   1
ATOM      1  S   UNL     1       7.208  -7.184  33.562  0.00  0.00    +0.029 S 
ATOM      2  O   UNL     1       8.454  -7.918  33.462  0.00  0.00    -0.158 OA
ATOM      3  O   UNL     1       7.185  -5.741  33.417  0.00  0.00    -0.158 OA
BRANCH   1  22
ATOM     22  C   UNL     1       6.078  -7.855  32.365  0.00  0.00    +0.185 C 
BRANCH  22  24
ATOM     24  C   UNL     1       6.520  -9.233  31.899  0.00  0.00    +0.021 C 
ATOM     27  C   UNL     1       6.926  -9.220  30.434  0.00  0.00    +0.005 C 
ENDBRANCH  22  24
ENDBRANCH   1  22
ENDBRANCH   8   1
ENDBRANCH  17   8
ENDBRANCH  12  17
TORSDOF 9
ENDMDL
