MODEL 1
REMARK VINA RESULT:      -7.7      0.000      0.000
REMARK  Name = 26762953
REMARK  5 active torsions:
REMARK  status: ('A' for Active; 'I' for Inactive)
REMARK    1  A    between atoms: N_8  and  C_13
REMARK    2  A    between atoms: N_10  and  C_27
REMARK    3  A    between atoms: C_12  and  C_17
REMARK    4  A    between atoms: C_17  and  C_19
REMARK    5  A    between atoms: C_19  and  C_20
REMARK                            x       y       z     vdW  Elec       q    Type
REMARK                         _______ _______ _______ _____ _____    ______ ____
ROOT
ATOM      3  O   UNL     1      14.753   6.735  19.975  0.00  0.00    -0.274 OA
ATOM      6  N   UNL     1      11.644   8.166  19.676  0.00  0.00    -0.285 NA
ATOM      7  N   UNL     1      13.122   6.976  21.594  0.00  0.00    -0.313 N 
ATOM     11  C   UNL     1      12.446   7.009  19.279  0.00  0.00    +0.145 C 
ATOM     12  C   UNL     1      10.929   7.977  20.941  0.00  0.00    +0.075 C 
ATOM     13  C   UNL     1      11.801   8.354  17.365  0.00  0.00    +0.090 C 
ATOM     14  C   UNL     1      12.857   7.349  17.851  0.00  0.00    +0.052 C 
ATOM     15  C   UNL     1      10.809   8.482  18.522  0.00  0.00    +0.107 C 
ATOM     16  C   UNL     1      11.700   7.030  21.889  0.00  0.00    +0.123 C 
ATOM     18  C   UNL     1      13.577   6.904  20.285  0.00  0.00    +0.230 C 
ATOM     33  H   UNL     1      13.786   6.886  22.355  0.00  0.00    +0.149 HD
ENDROOT
BRANCH  13   8
ATOM      5  O   UNL     1      13.354   8.967  15.035  0.00  0.00    -0.252 OA
ATOM      8  N   UNL     1      12.401   9.626  17.037  0.00  0.00    -0.295 N 
ATOM     10  N   UNL     1      13.601  11.163  15.823  0.00  0.00    -0.267 N 
ATOM     21  C   UNL     1      13.149   9.842  15.872  0.00  0.00    +0.304 C 
ATOM     34  H   UNL     1      12.338  10.378  17.715  0.00  0.00    +0.151 HD
ATOM     35  H   UNL     1      13.342  11.766  16.600  0.00  0.00    +0.156 HD
BRANCH  10  27
ATOM      1  F   UNL     1      12.443  12.254  13.535  0.00  0.00    -0.203 F 
ATOM      2  F   UNL     1      16.679  13.563  11.887  0.00  0.00    -0.205 F 
ATOM     27  C   UNL     1      14.384  11.776  14.817  0.00  0.00    +0.070 A 
ATOM     28  C   UNL     1      13.774  12.313  13.684  0.00  0.00    +0.147 A 
ATOM     29  C   UNL     1      15.770  11.843  14.960  0.00  0.00    +0.029 A 
ATOM     30  C   UNL     1      14.549  12.916  12.693  0.00  0.00    +0.078 A 
ATOM     31  C   UNL     1      16.545  12.447  13.970  0.00  0.00    +0.040 A 
ATOM     32  C   UNL     1      15.935  12.983  12.836  0.00  0.00    +0.126 A 
ENDBRANCH  10  27
ENDBRANCH  13   8
BRANCH  12  17
ATOM     17  C   UNL     1      10.738   9.345  21.602  0.00  0.00    +0.029 C 
BRANCH  17  19
ATOM     19  C   UNL     1      11.786  10.355  21.162  0.00  0.00    +0.097 C 
BRANCH  19  20
ATOM      4  O   UNL     1      13.720   9.940  22.466  0.00  0.00    -0.276 OA
ATOM      9  N   UNL     1      12.445  11.789  23.063  0.00  0.00    -0.301 N 
ATOM     20  C   UNL     1      12.741  10.669  22.286  0.00  0.00    +0.216 C 
ATOM     22  C   UNL     1      13.325  12.158  24.174  0.00  0.00    +0.108 C 
ATOM     23  C   UNL     1      11.315  12.699  22.845  0.00  0.00    +0.108 C 
ATOM     24  C   UNL     1      12.535  12.295  25.472  0.00  0.00    +0.019 C 
ATOM     25  C   UNL     1      10.486  12.848  24.119  0.00  0.00    +0.019 C 
ATOM     26  C   UNL     1      11.359  13.256  25.306  0.00  0.00    +0.003 C 
ENDBRANCH  19  20
ENDBRANCH  17  19
ENDBRANCH  12  17
TORSDOF 5
ENDMDL
MODEL 2
REMARK VINA RESULT:      -7.1      1.374      2.085
REMARK  Name = 26762953
REMARK  5 active torsions:
REMARK  status: ('A' for Active; 'I' for Inactive)
REMARK    1  A    between atoms: N_8  and  C_13
REMARK    2  A    between atoms: N_10  and  C_27
REMARK    3  A    between atoms: C_12  and  C_17
REMARK    4  A    between atoms: C_17  and  C_19
REMARK    5  A    between atoms: C_19  and  C_20
REMARK                            x       y       z     vdW  Elec       q    Type
REMARK                         _______ _______ _______ _____ _____    ______ ____
ROOT
ATOM      3  O   UNL     1      14.779   6.826  20.029  0.00  0.00    -0.274 OA
ATOM      6  N   UNL     1      11.648   8.193  19.662  0.00  0.00    -0.285 NA
ATOM      7  N   UNL     1      13.109   7.039  21.613  0.00  0.00    -0.313 N 
ATOM     11  C   UNL     1      12.482   7.053  19.285  0.00  0.00    +0.145 C 
ATOM     12  C   UNL     1      10.911   7.994  20.912  0.00  0.00    +0.075 C 
ATOM     13  C   UNL     1      11.849   8.380  17.354  0.00  0.00    +0.090 C 
ATOM     14  C   UNL     1      12.915   7.397  17.864  0.00  0.00    +0.052 C 
ATOM     15  C   UNL     1      10.831   8.490  18.490  0.00  0.00    +0.107 C 
ATOM     16  C   UNL     1      11.681   7.064  21.878  0.00  0.00    +0.123 C 
ATOM     18  C   UNL     1      13.594   6.973  20.314  0.00  0.00    +0.230 C 
ATOM     33  H   UNL     1      13.759   6.964  22.389  0.00  0.00    +0.149 HD
ENDROOT
BRANCH  13   8
ATOM      5  O   UNL     1      13.379   9.037  15.021  0.00  0.00    -0.252 OA
ATOM      8  N   UNL     1      12.431   9.663  17.035  0.00  0.00    -0.295 N 
ATOM     10  N   UNL     1      13.602  11.229  15.829  0.00  0.00    -0.267 N 
ATOM     21  C   UNL     1      13.167   9.901  15.868  0.00  0.00    +0.304 C 
ATOM     34  H   UNL     1      12.363  10.407  17.722  0.00  0.00    +0.151 HD
ATOM     35  H   UNL     1      13.340  11.820  16.614  0.00  0.00    +0.156 HD
BRANCH  10  27
ATOM      1  F   UNL     1      16.333  11.683  16.150  0.00  0.00    -0.203 F 
ATOM      2  F   UNL     1      16.602  13.714  11.886  0.00  0.00    -0.205 F 
ATOM     27  C   UNL     1      14.370  11.862  14.825  0.00  0.00    +0.070 A 
ATOM     28  C   UNL     1      15.735  12.075  15.016  0.00  0.00    +0.147 A 
ATOM     29  C   UNL     1      13.759  12.276  13.641  0.00  0.00    +0.029 A 
ATOM     30  C   UNL     1      16.489  12.701  14.024  0.00  0.00    +0.078 A 
ATOM     31  C   UNL     1      14.514  12.901  12.648  0.00  0.00    +0.040 A 
ATOM     32  C   UNL     1      15.879  13.114  12.840  0.00  0.00    +0.126 A 
ENDBRANCH  10  27
ENDBRANCH  13   8
BRANCH  12  17
ATOM     17  C   UNL     1      10.678   9.359  21.566  0.00  0.00    +0.029 C 
BRANCH  17  19
ATOM     19  C   UNL     1      10.997   9.353  23.052  0.00  0.00    +0.097 C 
BRANCH  19  20
ATOM      4  O   UNL     1      10.453  11.375  24.159  0.00  0.00    -0.276 OA
ATOM      9  N   UNL     1      12.592  11.228  23.264  0.00  0.00    -0.301 N 
ATOM     20  C   UNL     1      11.315  10.742  23.545  0.00  0.00    +0.216 C 
ATOM     22  C   UNL     1      12.976  12.569  23.707  0.00  0.00    +0.108 C 
ATOM     23  C   UNL     1      13.652  10.482  22.574  0.00  0.00    +0.108 C 
ATOM     24  C   UNL     1      13.496  13.402  22.540  0.00  0.00    +0.019 C 
ATOM     25  C   UNL     1      14.187  11.275  21.384  0.00  0.00    +0.019 C 
ATOM     26  C   UNL     1      14.622  12.680  21.803  0.00  0.00    +0.003 C 
ENDBRANCH  19  20
ENDBRANCH  17  19
ENDBRANCH  12  17
TORSDOF 5
ENDMDL
MODEL 3
REMARK VINA RESULT:      -7.0     12.969     16.078
REMARK  Name = 26762953
REMARK  5 active torsions:
REMARK  status: ('A' for Active; 'I' for Inactive)
REMARK    1  A    between atoms: N_8  and  C_13
REMARK    2  A    between atoms: N_10  and  C_27
REMARK    3  A    between atoms: C_12  and  C_17
REMARK    4  A    between atoms: C_17  and  C_19
REMARK    5  A    between atoms: C_19  and  C_20
REMARK                            x       y       z     vdW  Elec       q    Type
REMARK                         _______ _______ _______ _____ _____    ______ ____
ROOT
ATOM      3  O   UNL     1      10.545   4.650   8.351  0.00  0.00    -0.274 OA
ATOM      6  N   UNL     1       9.678   6.738   5.764  0.00  0.00    -0.285 NA
ATOM      7  N   UNL     1       9.555   6.736   8.458  0.00  0.00    -0.313 N 
ATOM     11  C   UNL     1       9.338   5.474   6.415  0.00  0.00    +0.145 C 
ATOM     12  C   UNL     1       8.974   7.894   6.324  0.00  0.00    +0.075 C 
ATOM     13  C   UNL     1      10.111   5.133   4.140  0.00  0.00    +0.090 C 
ATOM     14  C   UNL     1       9.977   4.433   5.502  0.00  0.00    +0.052 C 
ATOM     15  C   UNL     1       9.481   6.512   4.336  0.00  0.00    +0.107 C 
ATOM     16  C   UNL     1       8.665   7.693   7.825  0.00  0.00    +0.123 C 
ATOM     18  C   UNL     1       9.898   5.550   7.823  0.00  0.00    +0.230 C 
ATOM     33  H   UNL     1       9.848   6.886   9.418  0.00  0.00    +0.149 HD
ENDROOT
BRANCH  13   8
ATOM      5  O   UNL     1      11.187   4.569   1.544  0.00  0.00    -0.252 OA
ATOM      8  N   UNL     1      11.495   5.233   3.738  0.00  0.00    -0.295 N 
ATOM     10  N   UNL     1      13.321   5.125   2.348  0.00  0.00    -0.267 N 
ATOM     21  C   UNL     1      11.939   4.938   2.443  0.00  0.00    +0.304 C 
ATOM     34  H   UNL     1      12.187   5.459   4.444  0.00  0.00    +0.151 HD
ATOM     35  H   UNL     1      13.800   5.436   3.189  0.00  0.00    +0.156 HD
BRANCH  10  27
ATOM      1  F   UNL     1      15.332   3.196   2.319  0.00  0.00    -0.203 F 
ATOM      2  F   UNL     1      16.556   4.387  -2.093  0.00  0.00    -0.205 F 
ATOM     27  C   UNL     1      14.147   4.934   1.216  0.00  0.00    +0.070 A 
ATOM     28  C   UNL     1      15.145   3.961   1.234  0.00  0.00    +0.147 A 
ATOM     29  C   UNL     1      13.964   5.724   0.081  0.00  0.00    +0.029 A 
ATOM     30  C   UNL     1      15.959   3.776   0.116  0.00  0.00    +0.078 A 
ATOM     31  C   UNL     1      14.777   5.538  -1.037  0.00  0.00    +0.040 A 
ATOM     32  C   UNL     1      15.775   4.564  -1.019  0.00  0.00    +0.126 A 
ENDBRANCH  10  27
ENDBRANCH  13   8
BRANCH  12  17
ATOM     17  C   UNL     1       9.844   9.139   6.127  0.00  0.00    +0.029 C 
BRANCH  17  19
ATOM     19  C   UNL     1      11.329   8.834   6.245  0.00  0.00    +0.097 C 
BRANCH  19  20
ATOM      4  O   UNL     1      11.423   9.645   4.022  0.00  0.00    -0.276 OA
ATOM      9  N   UNL     1      13.444   9.022   4.983  0.00  0.00    -0.301 N 
ATOM     20  C   UNL     1      12.062   9.206   4.981  0.00  0.00    +0.216 C 
ATOM     22  C   UNL     1      14.226   9.358   3.792  0.00  0.00    +0.108 C 
ATOM     23  C   UNL     1      14.236   8.544   6.123  0.00  0.00    +0.108 C 
ATOM     24  C   UNL     1      15.080   8.174   3.347  0.00  0.00    +0.019 C 
ATOM     25  C   UNL     1      15.092   7.344   5.723  0.00  0.00    +0.019 C 
ATOM     26  C   UNL     1      15.945   7.654   4.493  0.00  0.00    +0.003 C 
ENDBRANCH  19  20
ENDBRANCH  17  19
ENDBRANCH  12  17
TORSDOF 5
ENDMDL
MODEL 4
REMARK VINA RESULT:      -6.9     11.294     14.337
REMARK  Name = 26762953
REMARK  5 active torsions:
REMARK  status: ('A' for Active; 'I' for Inactive)
REMARK    1  A    between atoms: N_8  and  C_13
REMARK    2  A    between atoms: N_10  and  C_27
REMARK    3  A    between atoms: C_12  and  C_17
REMARK    4  A    between atoms: C_17  and  C_19
REMARK    5  A    between atoms: C_19  and  C_20
REMARK                            x       y       z     vdW  Elec       q    Type
REMARK                         _______ _______ _______ _____ _____    ______ ____
ROOT
ATOM      3  O   UNL     1      10.305   4.261   8.148  0.00  0.00    -0.274 OA
ATOM      6  N   UNL     1       9.776   6.760   5.851  0.00  0.00    -0.285 NA
ATOM      7  N   UNL     1       9.469   6.385   8.504  0.00  0.00    -0.313 N 
ATOM     11  C   UNL     1       9.300   5.449   6.288  0.00  0.00    +0.145 C 
ATOM     12  C   UNL     1       9.123   7.880   6.534  0.00  0.00    +0.075 C 
ATOM     13  C   UNL     1      10.200   5.371   4.036  0.00  0.00    +0.090 C 
ATOM     14  C   UNL     1       9.921   4.499   5.270  0.00  0.00    +0.052 C 
ATOM     15  C   UNL     1       9.662   6.757   4.396  0.00  0.00    +0.107 C 
ATOM     16  C   UNL     1       8.697   7.493   7.969  0.00  0.00    +0.123 C 
ATOM     18  C   UNL     1       9.765   5.278   7.722  0.00  0.00    +0.230 C 
ATOM     33  H   UNL     1       9.705   6.373   9.491  0.00  0.00    +0.149 HD
ENDROOT
BRANCH  13   8
ATOM      5  O   UNL     1      11.417   4.943   1.477  0.00  0.00    -0.252 OA
ATOM      8  N   UNL     1      11.612   5.412   3.733  0.00  0.00    -0.295 N 
ATOM     10  N   UNL     1      13.519   5.294   2.459  0.00  0.00    -0.267 N 
ATOM     21  C   UNL     1      12.126   5.190   2.449  0.00  0.00    +0.304 C 
ATOM     34  H   UNL     1      12.266   5.537   4.499  0.00  0.00    +0.151 HD
ATOM     35  H   UNL     1      13.957   5.506   3.352  0.00  0.00    +0.156 HD
BRANCH  10  27
ATOM      1  F   UNL     1      14.976   2.946   2.089  0.00  0.00    -0.203 F 
ATOM      2  F   UNL     1      17.005   4.695  -1.810  0.00  0.00    -0.205 F 
ATOM     27  C   UNL     1      14.409   5.138   1.370  0.00  0.00    +0.070 A 
ATOM     28  C   UNL     1      15.124   3.951   1.214  0.00  0.00    +0.147 A 
ATOM     29  C   UNL     1      14.572   6.176   0.453  0.00  0.00    +0.029 A 
ATOM     30  C   UNL     1      16.001   3.801   0.140  0.00  0.00    +0.078 A 
ATOM     31  C   UNL     1      15.449   6.026  -0.621  0.00  0.00    +0.040 A 
ATOM     32  C   UNL     1      16.164   4.839  -0.778  0.00  0.00    +0.126 A 
ENDBRANCH  10  27
ENDBRANCH  13   8
BRANCH  12  17
ATOM     17  C   UNL     1      10.095   9.063   6.572  0.00  0.00    +0.029 C 
BRANCH  17  19
ATOM     19  C   UNL     1       9.617  10.178   7.488  0.00  0.00    +0.097 C 
BRANCH  19  20
ATOM      4  O   UNL     1      11.898  10.333   8.107  0.00  0.00    -0.276 OA
ATOM      9  N   UNL     1      10.397  11.583   9.364  0.00  0.00    -0.301 N 
ATOM     20  C   UNL     1      10.744  10.700   8.342  0.00  0.00    +0.216 C 
ATOM     22  C   UNL     1      11.436  12.132  10.237  0.00  0.00    +0.108 C 
ATOM     23  C   UNL     1       9.041  12.073   9.640  0.00  0.00    +0.108 C 
ATOM     24  C   UNL     1      11.103  11.884  11.706  0.00  0.00    +0.019 C 
ATOM     25  C   UNL     1       8.661  11.824  11.098  0.00  0.00    +0.019 C 
ATOM     26  C   UNL     1       9.708  12.400  12.051  0.00  0.00    +0.003 C 
ENDBRANCH  19  20
ENDBRANCH  17  19
ENDBRANCH  12  17
TORSDOF 5
ENDMDL
MODEL 5
REMARK VINA RESULT:      -6.8      2.404      5.146
REMARK  Name = 26762953
REMARK  5 active torsions:
REMARK  status: ('A' for Active; 'I' for Inactive)
REMARK    1  A    between atoms: N_8  and  C_13
REMARK    2  A    between atoms: N_10  and  C_27
REMARK    3  A    between atoms: C_12  and  C_17
REMARK    4  A    between atoms: C_17  and  C_19
REMARK    5  A    between atoms: C_19  and  C_20
REMARK                            x       y       z     vdW  Elec       q    Type
REMARK                         _______ _______ _______ _____ _____    ______ ____
ROOT
ATOM      3  O   UNL     1      10.554  13.389  21.778  0.00  0.00    -0.274 OA
ATOM      6  N   UNL     1      12.641  10.742  21.112  0.00  0.00    -0.285 NA
ATOM      7  N   UNL     1      10.531  11.273  22.707  0.00  0.00    -0.313 N 
ATOM     11  C   UNL     1      12.587  12.067  21.727  0.00  0.00    +0.145 C 
ATOM     12  C   UNL     1      12.308   9.653  22.034  0.00  0.00    +0.075 C 
ATOM     13  C   UNL     1      14.081  12.025  19.816  0.00  0.00    +0.090 C 
ATOM     14  C   UNL     1      13.213  12.965  20.667  0.00  0.00    +0.052 C 
ATOM     15  C   UNL     1      13.953  10.653  20.480  0.00  0.00    +0.107 C 
ATOM     16  C   UNL     1      11.310  10.118  23.119  0.00  0.00    +0.123 C 
ATOM     18  C   UNL     1      11.127  12.336  22.044  0.00  0.00    +0.230 C 
ATOM     33  H   UNL     1       9.562  11.351  22.998  0.00  0.00    +0.149 HD
ENDROOT
BRANCH  13   8
ATOM      5  O   UNL     1      15.664  12.530  17.481  0.00  0.00    -0.252 OA
ATOM      8  N   UNL     1      13.631  11.996  18.444  0.00  0.00    -0.295 N 
ATOM     10  N   UNL     1      13.764  12.155  16.156  0.00  0.00    -0.267 N 
ATOM     21  C   UNL     1      14.474  12.256  17.356  0.00  0.00    +0.304 C 
ATOM     34  H   UNL     1      12.643  11.851  18.264  0.00  0.00    +0.151 HD
ATOM     35  H   UNL     1      12.778  11.917  16.225  0.00  0.00    +0.156 HD
BRANCH  10  27
ATOM      1  F   UNL     1      15.466  10.306  14.951  0.00  0.00    -0.203 F 
ATOM      2  F   UNL     1      15.663  12.904  11.002  0.00  0.00    -0.205 F 
ATOM     27  C   UNL     1      14.250  12.343  14.841  0.00  0.00    +0.070 A 
ATOM     28  C   UNL     1      15.101  11.400  14.267  0.00  0.00    +0.147 A 
ATOM     29  C   UNL     1      13.877  13.477  14.120  0.00  0.00    +0.029 A 
ATOM     30  C   UNL     1      15.578  11.589  12.970  0.00  0.00    +0.078 A 
ATOM     31  C   UNL     1      14.354  13.666  12.822  0.00  0.00    +0.040 A 
ATOM     32  C   UNL     1      15.205  12.722  12.247  0.00  0.00    +0.126 A 
ENDBRANCH  10  27
ENDBRANCH  13   8
BRANCH  12  17
ATOM     17  C   UNL     1      11.712   8.495  21.228  0.00  0.00    +0.029 C 
BRANCH  17  19
ATOM     19  C   UNL     1      12.575   7.245  21.283  0.00  0.00    +0.097 C 
BRANCH  19  20
ATOM      4  O   UNL     1      12.614   6.701  18.977  0.00  0.00    -0.276 OA
ATOM      9  N   UNL     1      14.664   7.170  19.966  0.00  0.00    -0.301 N 
ATOM     20  C   UNL     1      13.278   7.013  19.969  0.00  0.00    +0.216 C 
ATOM     22  C   UNL     1      15.419   6.960  18.729  0.00  0.00    +0.108 C 
ATOM     23  C   UNL     1      15.475   7.583  21.118  0.00  0.00    +0.108 C 
ATOM     24  C   UNL     1      16.542   5.949  18.940  0.00  0.00    +0.019 C 
ATOM     25  C   UNL     1      16.600   6.584  21.375  0.00  0.00    +0.019 C 
ATOM     26  C   UNL     1      17.433   6.348  20.114  0.00  0.00    +0.003 C 
ENDBRANCH  19  20
ENDBRANCH  17  19
ENDBRANCH  12  17
TORSDOF 5
ENDMDL
MODEL 6
REMARK VINA RESULT:      -6.7     27.103     29.483
REMARK  Name = 26762953
REMARK  5 active torsions:
REMARK  status: ('A' for Active; 'I' for Inactive)
REMARK    1  A    between atoms: N_8  and  C_13
REMARK    2  A    between atoms: N_10  and  C_27
REMARK    3  A    between atoms: C_12  and  C_17
REMARK    4  A    between atoms: C_17  and  C_19
REMARK    5  A    between atoms: C_19  and  C_20
REMARK                            x       y       z     vdW  Elec       q    Type
REMARK                         _______ _______ _______ _____ _____    ______ ____
ROOT
ATOM      3  O   UNL     1      -5.490 -14.179  14.457  0.00  0.00    -0.274 OA
ATOM      6  N   UNL     1      -3.911 -11.272  15.386  0.00  0.00    -0.285 NA
ATOM      7  N   UNL     1      -3.334 -13.499  13.977  0.00  0.00    -0.313 N 
ATOM     11  C   UNL     1      -4.433 -12.539  15.897  0.00  0.00    +0.145 C 
ATOM     12  C   UNL     1      -2.516 -11.347  14.945  0.00  0.00    +0.075 C 
ATOM     13  C   UNL     1      -5.624 -10.639  16.823  0.00  0.00    +0.090 C 
ATOM     14  C   UNL     1      -5.767 -12.137  16.516  0.00  0.00    +0.052 C 
ATOM     15  C   UNL     1      -4.192 -10.283  16.421  0.00  0.00    +0.107 C 
ATOM     16  C   UNL     1      -2.165 -12.759  14.421  0.00  0.00    +0.123 C 
ATOM     18  C   UNL     1      -4.511 -13.483  14.712  0.00  0.00    +0.230 C 
ATOM     33  H   UNL     1      -3.258 -14.118  13.177  0.00  0.00    +0.149 HD
ENDROOT
BRANCH  13   8
ATOM      5  O   UNL     1      -8.244  -9.880  17.704  0.00  0.00    -0.252 OA
ATOM      8  N   UNL     1      -6.592  -9.859  16.086  0.00  0.00    -0.295 N 
ATOM     10  N   UNL     1      -8.570  -8.773  15.660  0.00  0.00    -0.267 N 
ATOM     21  C   UNL     1      -7.856  -9.531  16.592  0.00  0.00    +0.304 C 
ATOM     34  H   UNL     1      -6.373  -9.599  15.130  0.00  0.00    +0.151 HD
ATOM     35  H   UNL     1      -8.103  -8.568  14.781  0.00  0.00    +0.156 HD
BRANCH  10  27
ATOM      1  F   UNL     1     -10.818 -10.419  15.576  0.00  0.00    -0.203 F 
ATOM      2  F   UNL     1     -13.689  -6.704  16.159  0.00  0.00    -0.205 F 
ATOM     27  C   UNL     1      -9.877  -8.248  15.788  0.00  0.00    +0.070 A 
ATOM     28  C   UNL     1     -10.982  -9.098  15.740  0.00  0.00    +0.147 A 
ATOM     29  C   UNL     1     -10.061  -6.876  15.959  0.00  0.00    +0.029 A 
ATOM     30  C   UNL     1     -12.270  -8.577  15.866  0.00  0.00    +0.078 A 
ATOM     31  C   UNL     1     -11.349  -6.355  16.085  0.00  0.00    +0.040 A 
ATOM     32  C   UNL     1     -12.453  -7.205  16.038  0.00  0.00    +0.126 A 
ENDBRANCH  10  27
ENDBRANCH  13   8
BRANCH  12  17
ATOM     17  C   UNL     1      -2.294 -10.306  13.844  0.00  0.00    +0.029 C 
BRANCH  17  19
ATOM     19  C   UNL     1      -1.893 -10.936  12.520  0.00  0.00    +0.097 C 
BRANCH  19  20
ATOM      4  O   UNL     1      -1.241  -9.229  11.013  0.00  0.00    -0.276 OA
ATOM      9  N   UNL     1      -3.404 -10.045  10.781  0.00  0.00    -0.301 N 
ATOM     20  C   UNL     1      -2.142  -9.992  11.372  0.00  0.00    +0.216 C 
ATOM     22  C   UNL     1      -3.723  -9.157   9.661  0.00  0.00    +0.108 C 
ATOM     23  C   UNL     1      -4.480 -10.971  11.156  0.00  0.00    +0.108 C 
ATOM     24  C   UNL     1      -4.994  -8.361   9.940  0.00  0.00    +0.019 C 
ATOM     25  C   UNL     1      -5.767 -10.210  11.464  0.00  0.00    +0.019 C 
ATOM     26  C   UNL     1      -6.154  -9.283  10.311  0.00  0.00    +0.003 C 
ENDBRANCH  19  20
ENDBRANCH  17  19
ENDBRANCH  12  17
TORSDOF 5
ENDMDL
MODEL 7
REMARK VINA RESULT:      -6.7     26.496     29.781
REMARK  Name = 26762953
REMARK  5 active torsions:
REMARK  status: ('A' for Active; 'I' for Inactive)
REMARK    1  A    between atoms: N_8  and  C_13
REMARK    2  A    between atoms: N_10  and  C_27
REMARK    3  A    between atoms: C_12  and  C_17
REMARK    4  A    between atoms: C_17  and  C_19
REMARK    5  A    between atoms: C_19  and  C_20
REMARK                            x       y       z     vdW  Elec       q    Type
REMARK                         _______ _______ _______ _____ _____    ______ ____
ROOT
ATOM      3  O   UNL     1      -9.959   9.695  34.370  0.00  0.00    -0.274 OA
ATOM      6  N   UNL     1     -12.381   9.453  31.946  0.00  0.00    -0.285 NA
ATOM      7  N   UNL     1     -10.230  10.991  32.476  0.00  0.00    -0.313 N 
ATOM     11  C   UNL     1     -12.152   9.820  33.342  0.00  0.00    +0.145 C 
ATOM     12  C   UNL     1     -12.205  10.566  31.009  0.00  0.00    +0.075 C 
ATOM     13  C   UNL     1     -13.626   7.903  33.150  0.00  0.00    +0.090 C 
ATOM     14  C   UNL     1     -12.643   8.596  34.106  0.00  0.00    +0.052 C 
ATOM     15  C   UNL     1     -13.689   8.806  31.917  0.00  0.00    +0.107 C 
ATOM     16  C   UNL     1     -11.160  11.580  31.529  0.00  0.00    +0.123 C 
ATOM     18  C   UNL     1     -10.671  10.128  33.469  0.00  0.00    +0.230 C 
ATOM     33  H   UNL     1      -9.261  11.293  32.477  0.00  0.00    +0.149 HD
ENDROOT
BRANCH  13   8
ATOM      5  O   UNL     1     -15.270   5.651  32.485  0.00  0.00    -0.252 OA
ATOM      8  N   UNL     1     -13.174   6.572  32.811  0.00  0.00    -0.295 N 
ATOM     10  N   UNL     1     -13.330   4.360  32.211  0.00  0.00    -0.267 N 
ATOM     21  C   UNL     1     -14.049   5.524  32.497  0.00  0.00    +0.304 C 
ATOM     34  H   UNL     1     -12.182   6.370  32.872  0.00  0.00    +0.151 HD
ATOM     35  H   UNL     1     -12.316   4.423  32.265  0.00  0.00    +0.156 HD
BRANCH  10  27
ATOM      1  F   UNL     1     -14.390   2.623  34.115  0.00  0.00    -0.203 F 
ATOM      2  F   UNL     1     -15.323  -0.614  30.794  0.00  0.00    -0.205 F 
ATOM     27  C   UNL     1     -13.839   3.091  31.853  0.00  0.00    +0.070 A 
ATOM     28  C   UNL     1     -14.362   2.244  32.829  0.00  0.00    +0.147 A 
ATOM     29  C   UNL     1     -13.816   2.685  30.519  0.00  0.00    +0.029 A 
ATOM     30  C   UNL     1     -14.863   0.992  32.472  0.00  0.00    +0.078 A 
ATOM     31  C   UNL     1     -14.318   1.434  30.161  0.00  0.00    +0.040 A 
ATOM     32  C   UNL     1     -14.841   0.587  31.138  0.00  0.00    +0.126 A 
ENDBRANCH  10  27
ENDBRANCH  13   8
BRANCH  12  17
ATOM     17  C   UNL     1     -11.766  10.001  29.655  0.00  0.00    +0.029 C 
BRANCH  17  19
ATOM     19  C   UNL     1     -11.125  11.055  28.767  0.00  0.00    +0.097 C 
BRANCH  19  20
ATOM      4  O   UNL     1     -10.159   9.783  27.017  0.00  0.00    -0.276 OA
ATOM      9  N   UNL     1     -11.993  11.095  26.454  0.00  0.00    -0.301 N 
ATOM     20  C   UNL     1     -11.043  10.583  27.338  0.00  0.00    +0.216 C 
ATOM     22  C   UNL     1     -11.977  10.685  25.048  0.00  0.00    +0.108 C 
ATOM     23  C   UNL     1     -13.081  12.011  26.815  0.00  0.00    +0.108 C 
ATOM     24  C   UNL     1     -11.935  11.900  24.126  0.00  0.00    +0.019 C 
ATOM     25  C   UNL     1     -13.061  13.253  25.926  0.00  0.00    +0.019 C 
ATOM     26  C   UNL     1     -13.066  12.876  24.444  0.00  0.00    +0.003 C 
ENDBRANCH  19  20
ENDBRANCH  17  19
ENDBRANCH  12  17
TORSDOF 5
ENDMDL
MODEL 8
REMARK VINA RESULT:      -6.7     26.284     28.472
REMARK  Name = 26762953
REMARK  5 active torsions:
REMARK  status: ('A' for Active; 'I' for Inactive)
REMARK    1  A    between atoms: N_8  and  C_13
REMARK    2  A    between atoms: N_10  and  C_27
REMARK    3  A    between atoms: C_12  and  C_17
REMARK    4  A    between atoms: C_17  and  C_19
REMARK    5  A    between atoms: C_19  and  C_20
REMARK                            x       y       z     vdW  Elec       q    Type
REMARK                         _______ _______ _______ _____ _____    ______ ____
ROOT
ATOM      3  O   UNL     1      22.152  -8.264  -2.963  0.00  0.00    -0.274 OA
ATOM      6  N   UNL     1      20.705  -6.379  -0.482  0.00  0.00    -0.285 NA
ATOM      7  N   UNL     1      21.849  -5.974  -2.891  0.00  0.00    -0.313 N 
ATOM     11  C   UNL     1      21.879  -7.188  -0.807  0.00  0.00    +0.145 C 
ATOM     12  C   UNL     1      20.850  -4.965  -0.837  0.00  0.00    +0.075 C 
ATOM     13  C   UNL     1      20.585  -8.168   0.997  0.00  0.00    +0.090 C 
ATOM     14  C   UNL     1      21.584  -8.515  -0.117  0.00  0.00    +0.052 C 
ATOM     15  C   UNL     1      20.415  -6.650   0.922  0.00  0.00    +0.107 C 
ATOM     16  C   UNL     1      21.775  -4.784  -2.062  0.00  0.00    +0.123 C 
ATOM     18  C   UNL     1      21.964  -7.235  -2.321  0.00  0.00    +0.230 C 
ATOM     33  H   UNL     1      21.923  -5.877  -3.898  0.00  0.00    +0.149 HD
ENDROOT
BRANCH  13   8
ATOM      5  O   UNL     1      19.547 -10.320   2.580  0.00  0.00    -0.252 OA
ATOM      8  N   UNL     1      19.328  -8.853   0.805  0.00  0.00    -0.295 N 
ATOM     10  N   UNL     1      17.646 -10.366   1.204  0.00  0.00    -0.267 N 
ATOM     21  C   UNL     1      18.894  -9.900   1.628  0.00  0.00    +0.304 C 
ATOM     34  H   UNL     1      18.767  -8.613  -0.005  0.00  0.00    +0.151 HD
ATOM     35  H   UNL     1      17.236  -9.907   0.394  0.00  0.00    +0.156 HD
BRANCH  10  27
ATOM      1  F   UNL     1      16.164  -9.988   3.535  0.00  0.00    -0.203 F 
ATOM      2  F   UNL     1      14.613 -14.456   3.397  0.00  0.00    -0.205 F 
ATOM     27  C   UNL     1      16.871 -11.407   1.766  0.00  0.00    +0.070 A 
ATOM     28  C   UNL     1      16.141 -11.186   2.933  0.00  0.00    +0.147 A 
ATOM     29  C   UNL     1      16.839 -12.658   1.150  0.00  0.00    +0.029 A 
ATOM     30  C   UNL     1      15.379 -12.216   3.485  0.00  0.00    +0.078 A 
ATOM     31  C   UNL     1      16.076 -13.688   1.701  0.00  0.00    +0.040 A 
ATOM     32  C   UNL     1      15.346 -13.467   2.868  0.00  0.00    +0.126 A 
ENDBRANCH  10  27
ENDBRANCH  13   8
BRANCH  12  17
ATOM     17  C   UNL     1      19.461  -4.391  -1.134  0.00  0.00    +0.029 C 
BRANCH  17  19
ATOM     19  C   UNL     1      18.565  -5.384  -1.856  0.00  0.00    +0.097 C 
BRANCH  19  20
ATOM      4  O   UNL     1      17.178  -3.499  -2.223  0.00  0.00    -0.276 OA
ATOM      9  N   UNL     1      16.538  -5.474  -3.266  0.00  0.00    -0.301 N 
ATOM     20  C   UNL     1      17.368  -4.694  -2.461  0.00  0.00    +0.216 C 
ATOM     22  C   UNL     1      15.355  -4.876  -3.888  0.00  0.00    +0.108 C 
ATOM     23  C   UNL     1      16.763  -6.885  -3.602  0.00  0.00    +0.108 C 
ATOM     24  C   UNL     1      14.100  -5.677  -3.554  0.00  0.00    +0.019 C 
ATOM     25  C   UNL     1      15.533  -7.725  -3.263  0.00  0.00    +0.019 C 
ATOM     26  C   UNL     1      14.273  -7.152  -3.910  0.00  0.00    +0.003 C 
ENDBRANCH  19  20
ENDBRANCH  17  19
ENDBRANCH  12  17
TORSDOF 5
ENDMDL
MODEL 9
REMARK VINA RESULT:      -6.7      5.067      6.816
REMARK  Name = 26762953
REMARK  5 active torsions:
REMARK  status: ('A' for Active; 'I' for Inactive)
REMARK    1  A    between atoms: N_8  and  C_13
REMARK    2  A    between atoms: N_10  and  C_27
REMARK    3  A    between atoms: C_12  and  C_17
REMARK    4  A    between atoms: C_17  and  C_19
REMARK    5  A    between atoms: C_19  and  C_20
REMARK                            x       y       z     vdW  Elec       q    Type
REMARK                         _______ _______ _______ _____ _____    ______ ____
ROOT
ATOM      3  O   UNL     1      11.655   6.579  21.800  0.00  0.00    -0.274 OA
ATOM      6  N   UNL     1      13.431   8.296  19.413  0.00  0.00    -0.285 NA
ATOM      7  N   UNL     1      10.896   8.188  20.325  0.00  0.00    -0.313 N 
ATOM     11  C   UNL     1      12.903   6.978  19.759  0.00  0.00    +0.145 C 
ATOM     12  C   UNL     1      12.493   9.122  18.649  0.00  0.00    +0.075 C 
ATOM     13  C   UNL     1      15.328   6.979  19.680  0.00  0.00    +0.090 C 
ATOM     14  C   UNL     1      14.127   6.246  20.297  0.00  0.00    +0.052 C 
ATOM     15  C   UNL     1      14.719   8.049  18.772  0.00  0.00    +0.107 C 
ATOM     16  C   UNL     1      11.027   8.791  19.010  0.00  0.00    +0.123 C 
ATOM     18  C   UNL     1      11.782   7.211  20.755  0.00  0.00    +0.230 C 
ATOM     33  H   UNL     1      10.086   8.409  20.896  0.00  0.00    +0.149 HD
ENDROOT
BRANCH  13   8
ATOM      5  O   UNL     1      18.145   6.576  20.026  0.00  0.00    -0.252 OA
ATOM      8  N   UNL     1      16.166   7.563  20.702  0.00  0.00    -0.295 N 
ATOM     10  N   UNL     1      18.085   8.013  21.880  0.00  0.00    -0.267 N 
ATOM     21  C   UNL     1      17.540   7.313  20.800  0.00  0.00    +0.304 C 
ATOM     34  H   UNL     1      15.725   8.124  21.423  0.00  0.00    +0.151 HD
ATOM     35  H   UNL     1      17.445   8.584  22.427  0.00  0.00    +0.156 HD
BRANCH  10  27
ATOM      1  F   UNL     1      19.804  10.110  21.237  0.00  0.00    -0.203 F 
ATOM      2  F   UNL     1      23.358   8.058  23.591  0.00  0.00    -0.205 F 
ATOM     27  C   UNL     1      19.431   8.027  22.316  0.00  0.00    +0.070 A 
ATOM     28  C   UNL     1      20.266   9.091  21.976  0.00  0.00    +0.147 A 
ATOM     29  C   UNL     1      19.923   6.973  23.085  0.00  0.00    +0.029 A 
ATOM     30  C   UNL     1      21.593   9.101  22.407  0.00  0.00    +0.078 A 
ATOM     31  C   UNL     1      21.250   6.984  23.516  0.00  0.00    +0.040 A 
ATOM     32  C   UNL     1      22.085   8.048  23.177  0.00  0.00    +0.126 A 
ENDBRANCH  10  27
ENDBRANCH  13   8
BRANCH  12  17
ATOM     17  C   UNL     1      12.789  10.596  18.942  0.00  0.00    +0.029 C 
BRANCH  17  19
ATOM     19  C   UNL     1      12.965  10.868  20.428  0.00  0.00    +0.097 C 
BRANCH  19  20
ATOM      4  O   UNL     1      12.570  13.193  20.199  0.00  0.00    -0.276 OA
ATOM      9  N   UNL     1      11.413  12.108  21.897  0.00  0.00    -0.301 N 
ATOM     20  C   UNL     1      12.303  12.163  20.824  0.00  0.00    +0.216 C 
ATOM     22  C   UNL     1      10.731  13.324  22.343  0.00  0.00    +0.108 C 
ATOM     23  C   UNL     1      11.042  10.891  22.631  0.00  0.00    +0.108 C 
ATOM     24  C   UNL     1      10.947  13.555  23.836  0.00  0.00    +0.019 C 
ATOM     25  C   UNL     1      11.263  11.075  24.131  0.00  0.00    +0.019 C 
ATOM     26  C   UNL     1      10.550  12.324  24.649  0.00  0.00    +0.003 C 
ENDBRANCH  19  20
ENDBRANCH  17  19
ENDBRANCH  12  17
TORSDOF 5
ENDMDL
MODEL 10
REMARK VINA RESULT:      -6.5     27.980     29.324
REMARK  Name = 26762953
REMARK  5 active torsions:
REMARK  status: ('A' for Active; 'I' for Inactive)
REMARK    1  A    between atoms: N_8  and  C_13
REMARK    2  A    between atoms: N_10  and  C_27
REMARK    3  A    between atoms: C_12  and  C_17
REMARK    4  A    between atoms: C_17  and  C_19
REMARK    5  A    between atoms: C_19  and  C_20
REMARK                            x       y       z     vdW  Elec       q    Type
REMARK                         _______ _______ _______ _____ _____    ______ ____
ROOT
ATOM      3  O   UNL     1      -6.316 -10.235  20.052  0.00  0.00    -0.274 OA
ATOM      6  N   UNL     1      -7.601 -11.905  17.338  0.00  0.00    -0.285 NA
ATOM      7  N   UNL     1      -8.516 -10.796  19.621  0.00  0.00    -0.313 N 
ATOM     11  C   UNL     1      -6.779 -12.071  18.536  0.00  0.00    +0.145 C 
ATOM     12  C   UNL     1      -9.030 -12.127  17.572  0.00  0.00    +0.075 C 
ATOM     13  C   UNL     1      -5.501 -12.459  16.511  0.00  0.00    +0.090 C 
ATOM     14  C   UNL     1      -5.358 -12.050  17.985  0.00  0.00    +0.052 C 
ATOM     15  C   UNL     1      -6.990 -12.753  16.320  0.00  0.00    +0.107 C 
ATOM     16  C   UNL     1      -9.431 -11.748  19.016  0.00  0.00    +0.123 C 
ATOM     18  C   UNL     1      -7.143 -10.930  19.469  0.00  0.00    +0.230 C 
ATOM     33  H   UNL     1      -8.878 -10.085  20.247  0.00  0.00    +0.149 HD
ENDROOT
BRANCH  13   8
ATOM      5  O   UNL     1      -5.648 -12.436  13.648  0.00  0.00    -0.252 OA
ATOM      8  N   UNL     1      -5.050 -11.406  15.630  0.00  0.00    -0.295 N 
ATOM     10  N   UNL     1      -4.644 -10.315  13.650  0.00  0.00    -0.267 N 
ATOM     21  C   UNL     1      -5.160 -11.474  14.236  0.00  0.00    +0.304 C 
ATOM     34  H   UNL     1      -4.568 -10.611  16.037  0.00  0.00    +0.151 HD
ATOM     35  H   UNL     1      -4.275  -9.608  14.280  0.00  0.00    +0.156 HD
BRANCH  10  27
ATOM      1  F   UNL     1      -6.555  -8.701  12.420  0.00  0.00    -0.203 F 
ATOM      2  F   UNL     1      -4.341  -9.075   8.255  0.00  0.00    -0.205 F 
ATOM     27  C   UNL     1      -4.569  -9.997  12.274  0.00  0.00    +0.070 A 
ATOM     28  C   UNL     1      -5.541  -9.187  11.688  0.00  0.00    +0.147 A 
ATOM     29  C   UNL     1      -3.521 -10.497  11.502  0.00  0.00    +0.029 A 
ATOM     30  C   UNL     1      -5.465  -8.875  10.330  0.00  0.00    +0.078 A 
ATOM     31  C   UNL     1      -3.444 -10.184  10.144  0.00  0.00    +0.040 A 
ATOM     32  C   UNL     1      -4.416  -9.374   9.558  0.00  0.00    +0.126 A 
ENDBRANCH  10  27
ENDBRANCH  13   8
BRANCH  12  17
ATOM     17  C   UNL     1      -9.826 -11.291  16.565  0.00  0.00    +0.029 C 
BRANCH  17  19
ATOM     19  C   UNL     1      -8.964 -10.253  15.864  0.00  0.00    +0.097 C 
BRANCH  19  20
ATOM      4  O   UNL     1      -8.719  -8.494  17.431  0.00  0.00    -0.276 OA
ATOM      9  N   UNL     1     -10.125  -8.085  15.626  0.00  0.00    -0.301 N 
ATOM     20  C   UNL     1      -9.253  -8.867  16.383  0.00  0.00    +0.216 C 
ATOM     22  C   UNL     1     -10.456  -6.729  16.066  0.00  0.00    +0.108 C 
ATOM     23  C   UNL     1     -10.739  -8.486  14.355  0.00  0.00    +0.108 C 
ATOM     24  C   UNL     1     -11.967  -6.538  16.158  0.00  0.00    +0.019 C 
ATOM     25  C   UNL     1     -12.257  -8.328  14.413  0.00  0.00    +0.019 C 
ATOM     26  C   UNL     1     -12.653  -6.918  14.848  0.00  0.00    +0.003 C 
ENDBRANCH  19  20
ENDBRANCH  17  19
ENDBRANCH  12  17
TORSDOF 5
ENDMDL
