MODEL 1
REMARK VINA RESULT:      -8.0      0.000      0.000
REMARK  Name = 45360655
REMARK  11 active torsions:
REMARK  status: ('A' for Active; 'I' for Inactive)
REMARK    1  A    between atoms: N_6  and  C_10
REMARK    2  A    between atoms: N_6  and  C_18
REMARK    3  A    between atoms: N_7  and  C_23
REMARK    4  A    between atoms: N_8  and  C_26
REMARK    5  A    between atoms: N_8  and  C_30
REMARK    6  A    between atoms: N_8  and  C_31
REMARK    7  A    between atoms: C_12  and  C_16
REMARK    8  A    between atoms: C_16  and  C_17
REMARK    9  A    between atoms: C_17  and  C_19
REMARK   10  A    between atoms: C_18  and  C_20
REMARK   11  A    between atoms: C_23  and  C_27
REMARK                            x       y       z     vdW  Elec       q    Type
REMARK                         _______ _______ _______ _____ _____    ______ ____
ROOT
ATOM      2  O   UNL     1     -17.689   1.763  22.108  0.00  0.00    -0.274 OA
ATOM      4  N   UNL     1     -16.943   3.389  25.290  0.00  0.00    -0.286 NA
ATOM      5  N   UNL     1     -17.474   0.864  24.186  0.00  0.00    -0.313 N 
ATOM      9  C   UNL     1     -17.413   3.336  23.899  0.00  0.00    +0.145 C 
ATOM     10  C   UNL     1     -15.362   4.611  24.160  0.00  0.00    +0.070 C 
ATOM     11  C   UNL     1     -16.391   4.176  23.115  0.00  0.00    +0.048 C 
ATOM     12  C   UNL     1     -17.482   2.338  26.146  0.00  0.00    +0.075 C 
ATOM     13  C   UNL     1     -15.492   3.555  25.248  0.00  0.00    +0.104 C 
ATOM     14  C   UNL     1     -17.150   0.963  25.590  0.00  0.00    +0.123 C 
ATOM     15  C   UNL     1     -17.513   1.929  23.319  0.00  0.00    +0.230 C 
ATOM     35  H   UNL     1     -17.563  -0.066  23.789  0.00  0.00    +0.149 HD
ENDROOT
BRANCH  10   6
ATOM      6  N   UNL     1     -14.017   4.728  23.620  0.00  0.00    -0.308 NA
ATOM     36  H   UNL     1     -13.563   5.542  24.036  0.00  0.00    +0.123 HD
BRANCH   6  18
ATOM     18  C   UNL     1     -14.045   4.889  22.173  0.00  0.00    +0.116 C 
BRANCH  18  20
ATOM     20  C   UNL     1     -13.453   6.204  21.742  0.00  0.00    -0.033 A 
ATOM     21  C   UNL     1     -12.195   6.238  21.140  0.00  0.00    +0.007 A 
ATOM     22  C   UNL     1     -14.161   7.389  21.945  0.00  0.00    +0.007 A 
ATOM     24  C   UNL     1     -11.646   7.456  20.741  0.00  0.00    +0.023 A 
ATOM     25  C   UNL     1     -13.611   8.607  21.546  0.00  0.00    +0.023 A 
ATOM     26  C   UNL     1     -12.354   8.641  20.944  0.00  0.00    +0.029 A 
BRANCH  26   8
ATOM      8  N   UNL     1     -11.797   9.873  20.540  0.00  0.00    -0.336 N 
ATOM     30  C   UNL     1     -12.373  11.122  20.995  0.00  0.00    +0.129 C 
ATOM     31  C   UNL     1     -10.637   9.904  19.672  0.00  0.00    +0.129 C 
ENDBRANCH  26   8
ENDBRANCH  18  20
ENDBRANCH   6  18
ENDBRANCH  10   6
BRANCH  12  16
ATOM     16  C   UNL     1     -17.028   2.467  27.601  0.00  0.00    +0.029 C 
BRANCH  16  17
ATOM     17  C   UNL     1     -17.273   1.178  28.371  0.00  0.00    +0.097 C 
BRANCH  17  19
ATOM      3  O   UNL     1     -16.027  -0.238  29.890  0.00  0.00    -0.276 OA
ATOM      7  N   UNL     1     -15.171   1.845  29.330  0.00  0.00    -0.311 N 
ATOM     19  C   UNL     1     -16.110   0.825  29.280  0.00  0.00    +0.213 C 
ATOM     37  H   UNL     1     -15.330   2.707  28.815  0.00  0.00    +0.149 HD
BRANCH   7  23
ATOM     23  C   UNL     1     -13.971   1.752  30.126  0.00  0.00    +0.139 C 
BRANCH  23  27
ATOM      1  F   UNL     1     -14.533   4.380  35.079  0.00  0.00    -0.205 F 
ATOM     27  C   UNL     1     -14.121   2.454  31.450  0.00  0.00    -0.030 A 
ATOM     28  C   UNL     1     -13.893   3.827  31.541  0.00  0.00    +0.008 A 
ATOM     29  C   UNL     1     -14.489   1.732  32.586  0.00  0.00    +0.008 A 
ATOM     32  C   UNL     1     -14.032   4.479  32.767  0.00  0.00    +0.038 A 
ATOM     33  C   UNL     1     -14.628   2.382  33.811  0.00  0.00    +0.038 A 
ATOM     34  C   UNL     1     -14.399   3.756  33.901  0.00  0.00    +0.123 A 
ENDBRANCH  23  27
ENDBRANCH   7  23
ENDBRANCH  17  19
ENDBRANCH  16  17
ENDBRANCH  12  16
TORSDOF 9
ENDMDL
MODEL 2
REMARK VINA RESULT:      -7.6     27.455     31.250
REMARK  Name = 45360655
REMARK  11 active torsions:
REMARK  status: ('A' for Active; 'I' for Inactive)
REMARK    1  A    between atoms: N_6  and  C_10
REMARK    2  A    between atoms: N_6  and  C_18
REMARK    3  A    between atoms: N_7  and  C_23
REMARK    4  A    between atoms: N_8  and  C_26
REMARK    5  A    between atoms: N_8  and  C_30
REMARK    6  A    between atoms: N_8  and  C_31
REMARK    7  A    between atoms: C_12  and  C_16
REMARK    8  A    between atoms: C_16  and  C_17
REMARK    9  A    between atoms: C_17  and  C_19
REMARK   10  A    between atoms: C_18  and  C_20
REMARK   11  A    between atoms: C_23  and  C_27
REMARK                            x       y       z     vdW  Elec       q    Type
REMARK                         _______ _______ _______ _____ _____    ______ ____
ROOT
ATOM      2  O   UNL     1      11.130   5.996  20.782  0.00  0.00    -0.274 OA
ATOM      4  N   UNL     1      11.755   9.574  20.427  0.00  0.00    -0.286 NA
ATOM      5  N   UNL     1      11.115   7.638  22.355  0.00  0.00    -0.313 N 
ATOM      9  C   UNL     1      11.389   8.233  19.953  0.00  0.00    +0.145 C 
ATOM     10  C   UNL     1      13.507   9.012  19.055  0.00  0.00    +0.070 C 
ATOM     11  C   UNL     1      12.530   7.837  19.002  0.00  0.00    +0.048 C 
ATOM     12  C   UNL     1      11.072   9.987  21.649  0.00  0.00    +0.075 C 
ATOM     13  C   UNL     1      13.213   9.658  20.402  0.00  0.00    +0.104 C 
ATOM     14  C   UNL     1      11.337   9.002  22.776  0.00  0.00    +0.123 C 
ATOM     15  C   UNL     1      11.225   7.195  21.060  0.00  0.00    +0.230 C 
ATOM     35  H   UNL     1      10.985   6.939  23.080  0.00  0.00    +0.149 HD
ENDROOT
BRANCH  10   6
ATOM      6  N   UNL     1      14.894   8.608  18.894  0.00  0.00    -0.308 NA
ATOM     36  H   UNL     1      15.198   8.836  17.947  0.00  0.00    +0.123 HD
BRANCH   6  18
ATOM     18  C   UNL     1      15.051   7.176  19.110  0.00  0.00    +0.116 C 
BRANCH  18  20
ATOM     20  C   UNL     1      16.420   6.834  19.635  0.00  0.00    -0.033 A 
ATOM     21  C   UNL     1      16.924   7.500  20.751  0.00  0.00    +0.007 A 
ATOM     22  C   UNL     1      17.182   5.849  19.006  0.00  0.00    +0.007 A 
ATOM     24  C   UNL     1      18.192   7.182  21.238  0.00  0.00    +0.023 A 
ATOM     25  C   UNL     1      18.450   5.533  19.493  0.00  0.00    +0.023 A 
ATOM     26  C   UNL     1      18.955   6.199  20.609  0.00  0.00    +0.029 A 
BRANCH  26   8
ATOM      8  N   UNL     1      20.238   5.879  21.102  0.00  0.00    -0.336 N 
ATOM     30  C   UNL     1      20.859   6.701  22.121  0.00  0.00    +0.129 C 
ATOM     31  C   UNL     1      20.947   4.717  20.602  0.00  0.00    +0.129 C 
ENDBRANCH  26   8
ENDBRANCH  18  20
ENDBRANCH   6  18
ENDBRANCH  10   6
BRANCH  12  16
ATOM     16  C   UNL     1      11.422  11.414  22.071  0.00  0.00    +0.029 C 
BRANCH  16  17
ATOM     17  C   UNL     1      11.050  11.665  23.526  0.00  0.00    +0.097 C 
BRANCH  17  19
ATOM      3  O   UNL     1      12.321  11.756  25.585  0.00  0.00    -0.276 OA
ATOM      7  N   UNL     1      13.280  12.559  23.630  0.00  0.00    -0.311 N 
ATOM     19  C   UNL     1      12.263  11.984  24.379  0.00  0.00    +0.213 C 
ATOM     37  H   UNL     1      13.141  12.740  22.640  0.00  0.00    +0.149 HD
BRANCH   7  23
ATOM     23  C   UNL     1      14.540  12.955  24.213  0.00  0.00    +0.139 C 
BRANCH  23  27
ATOM      1  F   UNL     1      18.912  10.556  21.588  0.00  0.00    -0.205 F 
ATOM     27  C   UNL     1      15.708  12.313  23.511  0.00  0.00    -0.030 A 
ATOM     28  C   UNL     1      17.011  12.644  23.884  0.00  0.00    +0.008 A 
ATOM     29  C   UNL     1      15.487  11.390  22.490  0.00  0.00    +0.008 A 
ATOM     32  C   UNL     1      18.094  12.050  23.234  0.00  0.00    +0.038 A 
ATOM     33  C   UNL     1      16.569  10.797  21.840  0.00  0.00    +0.038 A 
ATOM     34  C   UNL     1      17.872  11.127  22.212  0.00  0.00    +0.123 A 
ENDBRANCH  23  27
ENDBRANCH   7  23
ENDBRANCH  17  19
ENDBRANCH  16  17
ENDBRANCH  12  16
TORSDOF 9
ENDMDL
MODEL 3
REMARK VINA RESULT:      -7.5     32.332     35.493
REMARK  Name = 45360655
REMARK  11 active torsions:
REMARK  status: ('A' for Active; 'I' for Inactive)
REMARK    1  A    between atoms: N_6  and  C_10
REMARK    2  A    between atoms: N_6  and  C_18
REMARK    3  A    between atoms: N_7  and  C_23
REMARK    4  A    between atoms: N_8  and  C_26
REMARK    5  A    between atoms: N_8  and  C_30
REMARK    6  A    between atoms: N_8  and  C_31
REMARK    7  A    between atoms: C_12  and  C_16
REMARK    8  A    between atoms: C_16  and  C_17
REMARK    9  A    between atoms: C_17  and  C_19
REMARK   10  A    between atoms: C_18  and  C_20
REMARK   11  A    between atoms: C_23  and  C_27
REMARK                            x       y       z     vdW  Elec       q    Type
REMARK                         _______ _______ _______ _____ _____    ______ ____
ROOT
ATOM      2  O   UNL     1      23.314   7.703  23.027  0.00  0.00    -0.274 OA
ATOM      4  N   UNL     1      23.226   4.141  22.236  0.00  0.00    -0.286 NA
ATOM      5  N   UNL     1      23.127   5.910  24.413  0.00  0.00    -0.313 N 
ATOM      9  C   UNL     1      23.538   5.554  21.983  0.00  0.00    +0.145 C 
ATOM     10  C   UNL     1      21.821   4.682  20.503  0.00  0.00    +0.070 C 
ATOM     11  C   UNL     1      22.634   5.942  20.802  0.00  0.00    +0.048 C 
ATOM     12  C   UNL     1      23.623   3.665  23.556  0.00  0.00    +0.075 C 
ATOM     13  C   UNL     1      21.841   3.925  21.823  0.00  0.00    +0.104 C 
ATOM     14  C   UNL     1      22.969   4.494  24.650  0.00  0.00    +0.123 C 
ATOM     15  C   UNL     1      23.295   6.478  23.173  0.00  0.00    +0.230 C 
ATOM     35  H   UNL     1      22.988   6.536  25.199  0.00  0.00    +0.149 HD
ENDROOT
BRANCH  10   6
ATOM      6  N   UNL     1      20.481   4.970  20.018  0.00  0.00    -0.308 NA
ATOM     36  H   UNL     1      20.540   5.291  19.051  0.00  0.00    +0.123 HD
BRANCH   6  18
ATOM     18  C   UNL     1      19.844   6.004  20.822  0.00  0.00    +0.116 C 
BRANCH  18  20
ATOM     20  C   UNL     1      18.446   6.302  20.348  0.00  0.00    -0.033 A 
ATOM     21  C   UNL     1      17.661   7.230  21.033  0.00  0.00    +0.007 A 
ATOM     22  C   UNL     1      17.936   5.651  19.224  0.00  0.00    +0.007 A 
ATOM     24  C   UNL     1      16.367   7.507  20.593  0.00  0.00    +0.023 A 
ATOM     25  C   UNL     1      16.642   5.928  18.786  0.00  0.00    +0.023 A 
ATOM     26  C   UNL     1      15.857   6.856  19.470  0.00  0.00    +0.029 A 
BRANCH  26   8
ATOM      8  N   UNL     1      14.547   7.136  19.026  0.00  0.00    -0.336 N 
ATOM     30  C   UNL     1      13.416   6.947  19.912  0.00  0.00    +0.129 C 
ATOM     31  C   UNL     1      14.317   7.625  17.681  0.00  0.00    +0.129 C 
ENDBRANCH  26   8
ENDBRANCH  18  20
ENDBRANCH   6  18
ENDBRANCH  10   6
BRANCH  12  16
ATOM     16  C   UNL     1      23.349   2.175  23.757  0.00  0.00    +0.029 C 
BRANCH  16  17
ATOM     17  C   UNL     1      22.397   1.941  24.921  0.00  0.00    +0.097 C 
BRANCH  17  19
ATOM      3  O   UNL     1      23.145  -0.342  25.222  0.00  0.00    -0.276 OA
ATOM      7  N   UNL     1      20.896   0.156  25.506  0.00  0.00    -0.311 N 
ATOM     19  C   UNL     1      22.219   0.465  25.227  0.00  0.00    +0.213 C 
ATOM     37  H   UNL     1      20.184   0.880  25.461  0.00  0.00    +0.149 HD
BRANCH   7  23
ATOM     23  C   UNL     1      20.468  -1.185  25.829  0.00  0.00    +0.139 C 
BRANCH  23  27
ATOM      1  F   UNL     1      16.260  -2.898  22.496  0.00  0.00    -0.205 F 
ATOM     27  C   UNL     1      19.344  -1.643  24.938  0.00  0.00    -0.030 A 
ATOM     28  C   UNL     1      18.257  -0.801  24.698  0.00  0.00    +0.008 A 
ATOM     29  C   UNL     1      19.388  -2.908  24.352  0.00  0.00    +0.008 A 
ATOM     32  C   UNL     1      17.215  -1.225  23.873  0.00  0.00    +0.038 A 
ATOM     33  C   UNL     1      18.347  -3.332  23.528  0.00  0.00    +0.038 A 
ATOM     34  C   UNL     1      17.260  -2.490  23.289  0.00  0.00    +0.123 A 
ENDBRANCH  23  27
ENDBRANCH   7  23
ENDBRANCH  17  19
ENDBRANCH  16  17
ENDBRANCH  12  16
TORSDOF 9
ENDMDL
MODEL 4
REMARK VINA RESULT:      -7.4     18.344     21.113
REMARK  Name = 45360655
REMARK  11 active torsions:
REMARK  status: ('A' for Active; 'I' for Inactive)
REMARK    1  A    between atoms: N_6  and  C_10
REMARK    2  A    between atoms: N_6  and  C_18
REMARK    3  A    between atoms: N_7  and  C_23
REMARK    4  A    between atoms: N_8  and  C_26
REMARK    5  A    between atoms: N_8  and  C_30
REMARK    6  A    between atoms: N_8  and  C_31
REMARK    7  A    between atoms: C_12  and  C_16
REMARK    8  A    between atoms: C_16  and  C_17
REMARK    9  A    between atoms: C_17  and  C_19
REMARK   10  A    between atoms: C_18  and  C_20
REMARK   11  A    between atoms: C_23  and  C_27
REMARK                            x       y       z     vdW  Elec       q    Type
REMARK                         _______ _______ _______ _____ _____    ______ ____
ROOT
ATOM      2  O   UNL     1      -7.685 -12.310  19.796  0.00  0.00    -0.274 OA
ATOM      4  N   UNL     1      -5.465 -10.803  17.322  0.00  0.00    -0.286 NA
ATOM      5  N   UNL     1      -6.252 -13.299  18.333  0.00  0.00    -0.313 N 
ATOM      9  C   UNL     1      -6.287 -10.818  18.539  0.00  0.00    +0.145 C 
ATOM     10  C   UNL     1      -7.200  -9.396  16.795  0.00  0.00    +0.070 C 
ATOM     11  C   UNL     1      -7.447  -9.857  18.232  0.00  0.00    +0.048 C 
ATOM     12  C   UNL     1      -4.558 -11.938  17.194  0.00  0.00    +0.075 C 
ATOM     13  C   UNL     1      -6.358 -10.516  16.202  0.00  0.00    +0.104 C 
ATOM     14  C   UNL     1      -5.326 -13.250  17.225  0.00  0.00    +0.123 C 
ATOM     15  C   UNL     1      -6.817 -12.196  18.925  0.00  0.00    +0.230 C 
ATOM     35  H   UNL     1      -6.599 -14.211  18.614  0.00  0.00    +0.149 HD
ENDROOT
BRANCH  10   6
ATOM      6  N   UNL     1      -8.428  -9.140  16.060  0.00  0.00    -0.308 NA
ATOM     36  H   UNL     1      -8.203  -8.630  15.205  0.00  0.00    +0.123 HD
BRANCH   6  18
ATOM     18  C   UNL     1      -9.358  -8.348  16.853  0.00  0.00    +0.116 C 
BRANCH  18  20
ATOM     20  C   UNL     1     -10.412  -7.697  15.998  0.00  0.00    -0.033 A 
ATOM     21  C   UNL     1     -10.992  -6.493  16.402  0.00  0.00    +0.007 A 
ATOM     22  C   UNL     1     -10.808  -8.294  14.802  0.00  0.00    +0.007 A 
ATOM     24  C   UNL     1     -11.967  -5.889  15.610  0.00  0.00    +0.023 A 
ATOM     25  C   UNL     1     -11.784  -7.690  14.010  0.00  0.00    +0.023 A 
ATOM     26  C   UNL     1     -12.364  -6.487  14.414  0.00  0.00    +0.029 A 
BRANCH  26   8
ATOM      8  N   UNL     1     -13.351  -5.876  13.613  0.00  0.00    -0.336 N 
ATOM     30  C   UNL     1     -13.199  -4.500  13.183  0.00  0.00    +0.129 C 
ATOM     31  C   UNL     1     -14.526  -6.619  13.201  0.00  0.00    +0.129 C 
ENDBRANCH  26   8
ENDBRANCH  18  20
ENDBRANCH   6  18
ENDBRANCH  10   6
BRANCH  12  16
ATOM     16  C   UNL     1      -3.668 -11.851  15.954  0.00  0.00    +0.029 C 
BRANCH  16  17
ATOM     17  C   UNL     1      -2.605 -10.774  16.113  0.00  0.00    +0.097 C 
BRANCH  17  19
ATOM      3  O   UNL     1      -1.047  -9.596  14.682  0.00  0.00    -0.276 OA
ATOM      7  N   UNL     1      -2.614 -11.012  13.721  0.00  0.00    -0.311 N 
ATOM     19  C   UNL     1      -1.987 -10.380  14.784  0.00  0.00    +0.213 C 
ATOM     37  H   UNL     1      -3.405 -11.627  13.890  0.00  0.00    +0.149 HD
BRANCH   7  23
ATOM     23  C   UNL     1      -2.210 -10.802  12.351  0.00  0.00    +0.139 C 
BRANCH  23  27
ATOM      1  F   UNL     1      -6.161  -8.086   9.389  0.00  0.00    -0.205 F 
ATOM     27  C   UNL     1      -3.267 -10.076  11.560  0.00  0.00    -0.030 A 
ATOM     28  C   UNL     1      -2.944  -9.503  10.329  0.00  0.00    +0.008 A 
ATOM     29  C   UNL     1      -4.566  -9.978  12.056  0.00  0.00    +0.008 A 
ATOM     32  C   UNL     1      -3.922  -8.830   9.596  0.00  0.00    +0.038 A 
ATOM     33  C   UNL     1      -5.543  -9.305  11.324  0.00  0.00    +0.038 A 
ATOM     34  C   UNL     1      -5.221  -8.732  10.093  0.00  0.00    +0.123 A 
ENDBRANCH  23  27
ENDBRANCH   7  23
ENDBRANCH  17  19
ENDBRANCH  16  17
ENDBRANCH  12  16
TORSDOF 9
ENDMDL
MODEL 5
REMARK VINA RESULT:      -7.3     18.510     21.418
REMARK  Name = 45360655
REMARK  11 active torsions:
REMARK  status: ('A' for Active; 'I' for Inactive)
REMARK    1  A    between atoms: N_6  and  C_10
REMARK    2  A    between atoms: N_6  and  C_18
REMARK    3  A    between atoms: N_7  and  C_23
REMARK    4  A    between atoms: N_8  and  C_26
REMARK    5  A    between atoms: N_8  and  C_30
REMARK    6  A    between atoms: N_8  and  C_31
REMARK    7  A    between atoms: C_12  and  C_16
REMARK    8  A    between atoms: C_16  and  C_17
REMARK    9  A    between atoms: C_17  and  C_19
REMARK   10  A    between atoms: C_18  and  C_20
REMARK   11  A    between atoms: C_23  and  C_27
REMARK                            x       y       z     vdW  Elec       q    Type
REMARK                         _______ _______ _______ _____ _____    ______ ____
ROOT
ATOM      2  O   UNL     1      -7.771 -14.519  17.195  0.00  0.00    -0.274 OA
ATOM      4  N   UNL     1      -5.583 -11.677  17.869  0.00  0.00    -0.286 NA
ATOM      5  N   UNL     1      -6.625 -13.191  15.748  0.00  0.00    -0.313 N 
ATOM      9  C   UNL     1      -6.290 -12.921  18.200  0.00  0.00    +0.145 C 
ATOM     10  C   UNL     1      -7.141 -10.994  19.410  0.00  0.00    +0.070 C 
ATOM     11  C   UNL     1      -7.324 -12.505  19.259  0.00  0.00    +0.048 C 
ATOM     12  C   UNL     1      -4.861 -11.716  16.602  0.00  0.00    +0.075 C 
ATOM     13  C   UNL     1      -6.520 -10.578  18.084  0.00  0.00    +0.104 C 
ATOM     14  C   UNL     1      -5.801 -12.042  15.453  0.00  0.00    +0.123 C 
ATOM     15  C   UNL     1      -6.974 -13.594  17.014  0.00  0.00    +0.230 C 
ATOM     35  H   UNL     1      -7.072 -13.661  14.967  0.00  0.00    +0.149 HD
ENDROOT
BRANCH  10   6
ATOM      6  N   UNL     1      -8.379 -10.298  19.717  0.00  0.00    -0.308 NA
ATOM     36  H   UNL     1      -8.574 -10.390  20.714  0.00  0.00    +0.123 HD
BRANCH   6  18
ATOM     18  C   UNL     1      -9.494 -10.855  18.963  0.00  0.00    +0.116 C 
BRANCH  18  20
ATOM     20  C   UNL     1     -10.220  -9.799  18.172  0.00  0.00    -0.033 A 
ATOM     21  C   UNL     1      -9.508  -8.748  17.595  0.00  0.00    +0.007 A 
ATOM     22  C   UNL     1     -11.604  -9.873  18.014  0.00  0.00    +0.007 A 
ATOM     24  C   UNL     1     -10.180  -7.771  16.861  0.00  0.00    +0.023 A 
ATOM     25  C   UNL     1     -12.276  -8.896  17.281  0.00  0.00    +0.023 A 
ATOM     26  C   UNL     1     -11.564  -7.844  16.704  0.00  0.00    +0.029 A 
BRANCH  26   8
ATOM      8  N   UNL     1     -12.243  -6.855  15.962  0.00  0.00    -0.336 N 
ATOM     30  C   UNL     1     -13.689  -6.878  15.860  0.00  0.00    +0.129 C 
ATOM     31  C   UNL     1     -11.504  -5.798  15.299  0.00  0.00    +0.129 C 
ENDBRANCH  26   8
ENDBRANCH  18  20
ENDBRANCH   6  18
ENDBRANCH  10   6
BRANCH  12  16
ATOM     16  C   UNL     1      -4.078 -10.432  16.325  0.00  0.00    +0.029 C 
BRANCH  16  17
ATOM     17  C   UNL     1      -2.582 -10.701  16.262  0.00  0.00    +0.097 C 
BRANCH  17  19
ATOM      3  O   UNL     1      -1.336 -12.069  14.701  0.00  0.00    -0.276 OA
ATOM      7  N   UNL     1      -2.757 -10.428  13.880  0.00  0.00    -0.311 N 
ATOM     19  C   UNL     1      -2.141 -11.160  14.885  0.00  0.00    +0.213 C 
ATOM     37  H   UNL     1      -3.392  -9.671  14.118  0.00  0.00    +0.149 HD
BRANCH   7  23
ATOM     23  C   UNL     1      -2.503 -10.673  12.480  0.00  0.00    +0.139 C 
BRANCH  23  27
ATOM      1  F   UNL     1      -6.138  -7.915   9.173  0.00  0.00    -0.205 F 
ATOM     27  C   UNL     1      -3.475  -9.936  11.597  0.00  0.00    -0.030 A 
ATOM     28  C   UNL     1      -3.069  -9.481  10.342  0.00  0.00    +0.008 A 
ATOM     29  C   UNL     1      -4.780  -9.709  12.032  0.00  0.00    +0.008 A 
ATOM     32  C   UNL     1      -3.968  -8.798   9.523  0.00  0.00    +0.038 A 
ATOM     33  C   UNL     1      -5.679  -9.026  11.214  0.00  0.00    +0.038 A 
ATOM     34  C   UNL     1      -5.273  -8.571   9.959  0.00  0.00    +0.123 A 
ENDBRANCH  23  27
ENDBRANCH   7  23
ENDBRANCH  17  19
ENDBRANCH  16  17
ENDBRANCH  12  16
TORSDOF 9
ENDMDL
MODEL 6
REMARK VINA RESULT:      -7.3     27.849     31.927
REMARK  Name = 45360655
REMARK  11 active torsions:
REMARK  status: ('A' for Active; 'I' for Inactive)
REMARK    1  A    between atoms: N_6  and  C_10
REMARK    2  A    between atoms: N_6  and  C_18
REMARK    3  A    between atoms: N_7  and  C_23
REMARK    4  A    between atoms: N_8  and  C_26
REMARK    5  A    between atoms: N_8  and  C_30
REMARK    6  A    between atoms: N_8  and  C_31
REMARK    7  A    between atoms: C_12  and  C_16
REMARK    8  A    between atoms: C_16  and  C_17
REMARK    9  A    between atoms: C_17  and  C_19
REMARK   10  A    between atoms: C_18  and  C_20
REMARK   11  A    between atoms: C_23  and  C_27
REMARK                            x       y       z     vdW  Elec       q    Type
REMARK                         _______ _______ _______ _____ _____    ______ ____
ROOT
ATOM      2  O   UNL     1      11.598   7.633  17.435  0.00  0.00    -0.274 OA
ATOM      4  N   UNL     1      13.550   7.244  20.494  0.00  0.00    -0.286 NA
ATOM      5  N   UNL     1      13.850   7.479  17.714  0.00  0.00    -0.313 N 
ATOM      9  C   UNL     1      12.340   7.157  19.667  0.00  0.00    +0.145 C 
ATOM     10  C   UNL     1      12.160   8.807  21.439  0.00  0.00    +0.070 C 
ATOM     11  C   UNL     1      11.371   8.172  20.294  0.00  0.00    +0.048 C 
ATOM     12  C   UNL     1      14.751   6.708  19.861  0.00  0.00    +0.075 C 
ATOM     13  C   UNL     1      13.611   8.603  21.027  0.00  0.00    +0.104 C 
ATOM     14  C   UNL     1      15.030   7.415  18.545  0.00  0.00    +0.123 C 
ATOM     15  C   UNL     1      12.561   7.465  18.189  0.00  0.00    +0.230 C 
ATOM     35  H   UNL     1      13.982   7.664  16.724  0.00  0.00    +0.149 HD
ENDROOT
BRANCH  10   6
ATOM      6  N   UNL     1      11.811  10.200  21.668  0.00  0.00    -0.308 NA
ATOM     36  H   UNL     1      12.663  10.729  21.857  0.00  0.00    +0.123 HD
BRANCH   6  18
ATOM     18  C   UNL     1      10.908  10.334  22.803  0.00  0.00    +0.116 C 
BRANCH  18  20
ATOM     20  C   UNL     1      11.416  11.332  23.809  0.00  0.00    -0.033 A 
ATOM     21  C   UNL     1      12.785  11.438  24.056  0.00  0.00    +0.007 A 
ATOM     22  C   UNL     1      10.519  12.153  24.493  0.00  0.00    +0.007 A 
ATOM     24  C   UNL     1      13.256  12.363  24.988  0.00  0.00    +0.023 A 
ATOM     25  C   UNL     1      10.990  13.077  25.425  0.00  0.00    +0.023 A 
ATOM     26  C   UNL     1      12.358  13.183  25.672  0.00  0.00    +0.029 A 
BRANCH  26   8
ATOM      8  N   UNL     1      12.835  14.118  26.615  0.00  0.00    -0.336 N 
ATOM     30  C   UNL     1      14.209  14.065  27.071  0.00  0.00    +0.129 C 
ATOM     31  C   UNL     1      11.958  15.151  27.131  0.00  0.00    +0.129 C 
ENDBRANCH  26   8
ENDBRANCH  18  20
ENDBRANCH   6  18
ENDBRANCH  10   6
BRANCH  12  16
ATOM     16  C   UNL     1      15.973   6.750  20.778  0.00  0.00    +0.029 C 
BRANCH  16  17
ATOM     17  C   UNL     1      17.248   6.425  20.012  0.00  0.00    +0.097 C 
BRANCH  17  19
ATOM      3  O   UNL     1      18.468   7.746  21.633  0.00  0.00    -0.276 OA
ATOM      7  N   UNL     1      19.634   6.274  20.269  0.00  0.00    -0.311 N 
ATOM     19  C   UNL     1      18.491   6.904  20.740  0.00  0.00    +0.213 C 
ATOM     37  H   UNL     1      19.569   5.607  19.506  0.00  0.00    +0.149 HD
BRANCH   7  23
ATOM     23  C   UNL     1      20.946   6.558  20.801  0.00  0.00    +0.139 C 
BRANCH  23  27
ATOM      1  F   UNL     1      23.103   2.129  23.536  0.00  0.00    -0.205 F 
ATOM     27  C   UNL     1      21.522   5.375  21.532  0.00  0.00    -0.030 A 
ATOM     28  C   UNL     1      21.479   4.107  20.950  0.00  0.00    +0.008 A 
ATOM     29  C   UNL     1      22.100   5.545  22.790  0.00  0.00    +0.008 A 
ATOM     32  C   UNL     1      22.013   3.010  21.627  0.00  0.00    +0.038 A 
ATOM     33  C   UNL     1      22.633   4.449  23.467  0.00  0.00    +0.038 A 
ATOM     34  C   UNL     1      22.589   3.182  22.885  0.00  0.00    +0.123 A 
ENDBRANCH  23  27
ENDBRANCH   7  23
ENDBRANCH  17  19
ENDBRANCH  16  17
ENDBRANCH  12  16
TORSDOF 9
ENDMDL
MODEL 7
REMARK VINA RESULT:      -7.2     27.637     30.488
REMARK  Name = 45360655
REMARK  11 active torsions:
REMARK  status: ('A' for Active; 'I' for Inactive)
REMARK    1  A    between atoms: N_6  and  C_10
REMARK    2  A    between atoms: N_6  and  C_18
REMARK    3  A    between atoms: N_7  and  C_23
REMARK    4  A    between atoms: N_8  and  C_26
REMARK    5  A    between atoms: N_8  and  C_30
REMARK    6  A    between atoms: N_8  and  C_31
REMARK    7  A    between atoms: C_12  and  C_16
REMARK    8  A    between atoms: C_16  and  C_17
REMARK    9  A    between atoms: C_17  and  C_19
REMARK   10  A    between atoms: C_18  and  C_20
REMARK   11  A    between atoms: C_23  and  C_27
REMARK                            x       y       z     vdW  Elec       q    Type
REMARK                         _______ _______ _______ _____ _____    ______ ____
ROOT
ATOM      2  O   UNL     1      11.666   7.528  17.766  0.00  0.00    -0.274 OA
ATOM      4  N   UNL     1      13.587   6.749  20.770  0.00  0.00    -0.286 NA
ATOM      5  N   UNL     1      13.904   7.677  18.141  0.00  0.00    -0.313 N 
ATOM      9  C   UNL     1      12.428   6.665  19.871  0.00  0.00    +0.145 C 
ATOM     10  C   UNL     1      11.929   7.801  21.960  0.00  0.00    +0.070 C 
ATOM     11  C   UNL     1      11.286   7.334  20.653  0.00  0.00    +0.048 C 
ATOM     12  C   UNL     1      14.875   6.578  20.107  0.00  0.00    +0.075 C 
ATOM     13  C   UNL     1      13.402   7.936  21.602  0.00  0.00    +0.104 C 
ATOM     14  C   UNL     1      15.058   7.610  19.006  0.00  0.00    +0.123 C 
ATOM     15  C   UNL     1      12.626   7.345  18.520  0.00  0.00    +0.230 C 
ATOM     35  H   UNL     1      14.024   8.110  17.230  0.00  0.00    +0.149 HD
ENDROOT
BRANCH  10   6
ATOM      6  N   UNL     1      11.342   9.025  22.478  0.00  0.00    -0.308 NA
ATOM     36  H   UNL     1      10.327   8.972  22.384  0.00  0.00    +0.123 HD
BRANCH   6  18
ATOM     18  C   UNL     1      11.826  10.189  21.748  0.00  0.00    +0.116 C 
BRANCH  18  20
ATOM     20  C   UNL     1      11.904  11.410  22.626  0.00  0.00    -0.033 A 
ATOM     21  C   UNL     1      11.058  12.493  22.390  0.00  0.00    +0.007 A 
ATOM     22  C   UNL     1      12.822  11.457  23.676  0.00  0.00    +0.007 A 
ATOM     24  C   UNL     1      11.130  13.624  23.204  0.00  0.00    +0.023 A 
ATOM     25  C   UNL     1      12.894  12.588  24.489  0.00  0.00    +0.023 A 
ATOM     26  C   UNL     1      12.048  13.671  24.253  0.00  0.00    +0.029 A 
BRANCH  26   8
ATOM      8  N   UNL     1      12.121  14.815  25.075  0.00  0.00    -0.336 N 
ATOM     30  C   UNL     1      10.926  15.351  25.695  0.00  0.00    +0.129 C 
ATOM     31  C   UNL     1      13.395  15.464  25.318  0.00  0.00    +0.129 C 
ENDBRANCH  26   8
ENDBRANCH  18  20
ENDBRANCH   6  18
ENDBRANCH  10   6
BRANCH  12  16
ATOM     16  C   UNL     1      16.052   6.600  21.083  0.00  0.00    +0.029 C 
BRANCH  16  17
ATOM     17  C   UNL     1      17.267   7.279  20.467  0.00  0.00    +0.097 C 
BRANCH  17  19
ATOM      3  O   UNL     1      18.710   8.339  22.097  0.00  0.00    -0.276 OA
ATOM      7  N   UNL     1      17.031   9.588  21.093  0.00  0.00    -0.311 N 
ATOM     19  C   UNL     1      17.768   8.433  21.315  0.00  0.00    +0.213 C 
ATOM     37  H   UNL     1      16.247   9.575  20.447  0.00  0.00    +0.149 HD
BRANCH   7  23
ATOM     23  C   UNL     1      17.312  10.826  21.780  0.00  0.00    +0.139 C 
BRANCH  23  27
ATOM      1  F   UNL     1      13.317  14.692  20.856  0.00  0.00    -0.205 F 
ATOM     27  C   UNL     1      16.244  11.859  21.533  0.00  0.00    -0.030 A 
ATOM     28  C   UNL     1      16.186  13.006  22.326  0.00  0.00    +0.008 A 
ATOM     29  C   UNL     1      15.313  11.670  20.512  0.00  0.00    +0.008 A 
ATOM     32  C   UNL     1      15.198  13.963  22.097  0.00  0.00    +0.038 A 
ATOM     33  C   UNL     1      14.324  12.626  20.284  0.00  0.00    +0.038 A 
ATOM     34  C   UNL     1      14.267  13.773  21.076  0.00  0.00    +0.123 A 
ENDBRANCH  23  27
ENDBRANCH   7  23
ENDBRANCH  17  19
ENDBRANCH  16  17
ENDBRANCH  12  16
TORSDOF 9
ENDMDL
MODEL 8
REMARK VINA RESULT:      -7.1     27.170     30.102
REMARK  Name = 45360655
REMARK  11 active torsions:
REMARK  status: ('A' for Active; 'I' for Inactive)
REMARK    1  A    between atoms: N_6  and  C_10
REMARK    2  A    between atoms: N_6  and  C_18
REMARK    3  A    between atoms: N_7  and  C_23
REMARK    4  A    between atoms: N_8  and  C_26
REMARK    5  A    between atoms: N_8  and  C_30
REMARK    6  A    between atoms: N_8  and  C_31
REMARK    7  A    between atoms: C_12  and  C_16
REMARK    8  A    between atoms: C_16  and  C_17
REMARK    9  A    between atoms: C_17  and  C_19
REMARK   10  A    between atoms: C_18  and  C_20
REMARK   11  A    between atoms: C_23  and  C_27
REMARK                            x       y       z     vdW  Elec       q    Type
REMARK                         _______ _______ _______ _____ _____    ______ ____
ROOT
ATOM      2  O   UNL     1      15.022   6.388  19.613  0.00  0.00    -0.274 OA
ATOM      4  N   UNL     1      11.700   7.867  19.935  0.00  0.00    -0.286 NA
ATOM      5  N   UNL     1      14.102   7.536  21.348  0.00  0.00    -0.313 N 
ATOM      9  C   UNL     1      12.700   6.946  19.377  0.00  0.00    +0.145 C 
ATOM     10  C   UNL     1      11.956   8.620  17.781  0.00  0.00    +0.070 C 
ATOM     11  C   UNL     1      12.872   7.403  17.919  0.00  0.00    +0.048 C 
ATOM     12  C   UNL     1      11.680   7.921  21.392  0.00  0.00    +0.075 C 
ATOM     13  C   UNL     1      11.825   9.129  19.209  0.00  0.00    +0.104 C 
ATOM     14  C   UNL     1      13.041   8.318  21.939  0.00  0.00    +0.123 C 
ATOM     15  C   UNL     1      14.040   6.952  20.106  0.00  0.00    +0.230 C 
ATOM     35  H   UNL     1      14.994   7.514  21.831  0.00  0.00    +0.149 HD
ENDROOT
BRANCH  10   6
ATOM      6  N   UNL     1      12.467   9.615  16.853  0.00  0.00    -0.308 NA
ATOM     36  H   UNL     1      12.337   9.277  15.899  0.00  0.00    +0.123 HD
BRANCH   6  18
ATOM     18  C   UNL     1      13.885   9.863  17.079  0.00  0.00    +0.116 C 
BRANCH  18  20
ATOM     20  C   UNL     1      14.416  10.947  16.179  0.00  0.00    -0.033 A 
ATOM     21  C   UNL     1      15.581  11.631  16.525  0.00  0.00    +0.007 A 
ATOM     22  C   UNL     1      13.743  11.266  14.999  0.00  0.00    +0.007 A 
ATOM     24  C   UNL     1      16.073  12.635  15.691  0.00  0.00    +0.023 A 
ATOM     25  C   UNL     1      14.236  12.270  14.166  0.00  0.00    +0.023 A 
ATOM     26  C   UNL     1      15.400  12.955  14.512  0.00  0.00    +0.029 A 
BRANCH  26   8
ATOM      8  N   UNL     1      15.898  13.971  13.669  0.00  0.00    -0.336 N 
ATOM     30  C   UNL     1      15.012  14.673  12.762  0.00  0.00    +0.129 C 
ATOM     31  C   UNL     1      17.302  14.332  13.706  0.00  0.00    +0.129 C 
ENDBRANCH  26   8
ENDBRANCH  18  20
ENDBRANCH   6  18
ENDBRANCH  10   6
BRANCH  12  16
ATOM     16  C   UNL     1      10.580   8.833  21.937  0.00  0.00    +0.029 C 
BRANCH  16  17
ATOM     17  C   UNL     1      10.943   9.372  23.314  0.00  0.00    +0.097 C 
BRANCH  17  19
ATOM      3  O   UNL     1      10.547  11.485  24.429  0.00  0.00    -0.276 OA
ATOM      7  N   UNL     1      11.007  11.478  22.154  0.00  0.00    -0.311 N 
ATOM     19  C   UNL     1      10.806  10.882  23.391  0.00  0.00    +0.213 C 
ATOM     37  H   UNL     1      11.190  10.903  21.337  0.00  0.00    +0.149 HD
BRANCH   7  23
ATOM     23  C   UNL     1      10.930  12.907  21.965  0.00  0.00    +0.139 C 
BRANCH  23  27
ATOM      1  F   UNL     1      13.891  14.587  17.474  0.00  0.00    -0.205 F 
ATOM     27  C   UNL     1      11.721  13.356  20.765  0.00  0.00    -0.030 A 
ATOM     28  C   UNL     1      12.681  12.511  20.206  0.00  0.00    +0.008 A 
ATOM     29  C   UNL     1      11.495  14.616  20.211  0.00  0.00    +0.008 A 
ATOM     32  C   UNL     1      13.414  12.926  19.095  0.00  0.00    +0.038 A 
ATOM     33  C   UNL     1      12.228  15.032  19.101  0.00  0.00    +0.038 A 
ATOM     34  C   UNL     1      13.188  14.187  18.542  0.00  0.00    +0.123 A 
ENDBRANCH  23  27
ENDBRANCH   7  23
ENDBRANCH  17  19
ENDBRANCH  16  17
ENDBRANCH  12  16
TORSDOF 9
ENDMDL
MODEL 9
REMARK VINA RESULT:      -6.9     27.218     30.842
REMARK  Name = 45360655
REMARK  11 active torsions:
REMARK  status: ('A' for Active; 'I' for Inactive)
REMARK    1  A    between atoms: N_6  and  C_10
REMARK    2  A    between atoms: N_6  and  C_18
REMARK    3  A    between atoms: N_7  and  C_23
REMARK    4  A    between atoms: N_8  and  C_26
REMARK    5  A    between atoms: N_8  and  C_30
REMARK    6  A    between atoms: N_8  and  C_31
REMARK    7  A    between atoms: C_12  and  C_16
REMARK    8  A    between atoms: C_16  and  C_17
REMARK    9  A    between atoms: C_17  and  C_19
REMARK   10  A    between atoms: C_18  and  C_20
REMARK   11  A    between atoms: C_23  and  C_27
REMARK                            x       y       z     vdW  Elec       q    Type
REMARK                         _______ _______ _______ _____ _____    ______ ____
ROOT
ATOM      2  O   UNL     1      11.746   6.152  19.889  0.00  0.00    -0.274 OA
ATOM      4  N   UNL     1      12.195   9.708  20.581  0.00  0.00    -0.286 NA
ATOM      5  N   UNL     1      11.116   7.373  21.701  0.00  0.00    -0.313 N 
ATOM      9  C   UNL     1      12.095   8.521  19.721  0.00  0.00    +0.145 C 
ATOM     10  C   UNL     1      14.327   9.477  19.764  0.00  0.00    +0.070 C 
ATOM     11  C   UNL     1      13.504   8.355  19.129  0.00  0.00    +0.048 C 
ATOM     12  C   UNL     1      11.132   9.822  21.573  0.00  0.00    +0.075 C 
ATOM     13  C   UNL     1      13.576   9.785  21.051  0.00  0.00    +0.104 C 
ATOM     14  C   UNL     1      11.095   8.595  22.470  0.00  0.00    +0.123 C 
ATOM     15  C   UNL     1      11.663   7.250  20.447  0.00  0.00    +0.230 C 
ATOM     35  H   UNL     1      10.812   6.522  22.165  0.00  0.00    +0.149 HD
ENDROOT
BRANCH  10   6
ATOM      6  N   UNL     1      15.719   9.113  19.976  0.00  0.00    -0.308 NA
ATOM     36  H   UNL     1      16.233   9.248  19.104  0.00  0.00    +0.123 HD
BRANCH   6  18
ATOM     18  C   UNL     1      15.840   7.721  20.387  0.00  0.00    +0.116 C 
BRANCH  18  20
ATOM     20  C   UNL     1      17.273   7.331  20.632  0.00  0.00    -0.033 A 
ATOM     21  C   UNL     1      18.068   8.099  21.483  0.00  0.00    +0.007 A 
ATOM     22  C   UNL     1      17.805   6.201  20.010  0.00  0.00    +0.007 A 
ATOM     24  C   UNL     1      19.396   7.736  21.711  0.00  0.00    +0.023 A 
ATOM     25  C   UNL     1      19.132   5.840  20.238  0.00  0.00    +0.023 A 
ATOM     26  C   UNL     1      19.928   6.607  21.088  0.00  0.00    +0.029 A 
BRANCH  26   8
ATOM      8  N   UNL     1      21.271   6.241  21.319  0.00  0.00    -0.336 N 
ATOM     30  C   UNL     1      22.329   6.765  20.479  0.00  0.00    +0.129 C 
ATOM     31  C   UNL     1      21.611   5.344  22.406  0.00  0.00    +0.129 C 
ENDBRANCH  26   8
ENDBRANCH  18  20
ENDBRANCH   6  18
ENDBRANCH  10   6
BRANCH  12  16
ATOM     16  C   UNL     1      11.227  11.105  22.400  0.00  0.00    +0.029 C 
BRANCH  16  17
ATOM     17  C   UNL     1      10.785  10.869  23.837  0.00  0.00    +0.097 C 
BRANCH  17  19
ATOM      3  O   UNL     1      10.525  12.431  25.669  0.00  0.00    -0.276 OA
ATOM      7  N   UNL     1      12.498  12.441  24.448  0.00  0.00    -0.311 N 
ATOM     19  C   UNL     1      11.224  11.990  24.761  0.00  0.00    +0.213 C 
ATOM     37  H   UNL     1      13.001  12.041  23.661  0.00  0.00    +0.149 HD
BRANCH   7  23
ATOM     23  C   UNL     1      13.142  13.504  25.183  0.00  0.00    +0.139 C 
BRANCH  23  27
ATOM      1  F   UNL     1      16.198  11.530  29.486  0.00  0.00    -0.205 F 
ATOM     27  C   UNL     1      13.959  12.976  26.332  0.00  0.00    -0.030 A 
ATOM     28  C   UNL     1      13.939  13.635  27.562  0.00  0.00    +0.008 A 
ATOM     29  C   UNL     1      14.735  11.829  26.169  0.00  0.00    +0.008 A 
ATOM     32  C   UNL     1      14.695  13.147  28.628  0.00  0.00    +0.038 A 
ATOM     33  C   UNL     1      15.492  11.341  27.233  0.00  0.00    +0.038 A 
ATOM     34  C   UNL     1      15.471  12.000  28.463  0.00  0.00    +0.123 A 
ENDBRANCH  23  27
ENDBRANCH   7  23
ENDBRANCH  17  19
ENDBRANCH  16  17
ENDBRANCH  12  16
TORSDOF 9
ENDMDL
MODEL 10
REMARK VINA RESULT:      -6.9     22.397     24.248
REMARK  Name = 45360655
REMARK  11 active torsions:
REMARK  status: ('A' for Active; 'I' for Inactive)
REMARK    1  A    between atoms: N_6  and  C_10
REMARK    2  A    between atoms: N_6  and  C_18
REMARK    3  A    between atoms: N_7  and  C_23
REMARK    4  A    between atoms: N_8  and  C_26
REMARK    5  A    between atoms: N_8  and  C_30
REMARK    6  A    between atoms: N_8  and  C_31
REMARK    7  A    between atoms: C_12  and  C_16
REMARK    8  A    between atoms: C_16  and  C_17
REMARK    9  A    between atoms: C_17  and  C_19
REMARK   10  A    between atoms: C_18  and  C_20
REMARK   11  A    between atoms: C_23  and  C_27
REMARK                            x       y       z     vdW  Elec       q    Type
REMARK                         _______ _______ _______ _____ _____    ______ ____
ROOT
ATOM      2  O   UNL     1      -7.421 -12.460  10.899  0.00  0.00    -0.274 OA
ATOM      4  N   UNL     1      -4.437 -10.367  11.099  0.00  0.00    -0.286 NA
ATOM      5  N   UNL     1      -5.277 -13.027  11.404  0.00  0.00    -0.313 N 
ATOM      9  C   UNL     1      -5.882 -10.630  11.109  0.00  0.00    +0.145 C 
ATOM     10  C   UNL     1      -5.165  -9.351   9.173  0.00  0.00    +0.070 C 
ATOM     11  C   UNL     1      -6.410  -9.933   9.845  0.00  0.00    +0.048 C 
ATOM     12  C   UNL     1      -3.657 -11.266  11.942  0.00  0.00    +0.075 C 
ATOM     13  C   UNL     1      -4.036 -10.224   9.702  0.00  0.00    +0.104 C 
ATOM     14  C   UNL     1      -3.873 -12.714  11.534  0.00  0.00    +0.123 C 
ATOM     15  C   UNL     1      -6.255 -12.110  11.105  0.00  0.00    +0.230 C 
ATOM     35  H   UNL     1      -5.543 -14.007  11.418  0.00  0.00    +0.149 HD
ENDROOT
BRANCH  10   6
ATOM      6  N   UNL     1      -5.256  -9.333   7.723  0.00  0.00    -0.308 NA
ATOM     36  H   UNL     1      -5.644  -8.437   7.426  0.00  0.00    +0.123 HD
BRANCH   6  18
ATOM     18  C   UNL     1      -6.115 -10.405   7.238  0.00  0.00    +0.116 C 
BRANCH  18  20
ATOM     20  C   UNL     1      -5.532 -11.089   6.030  0.00  0.00    -0.033 A 
ATOM     21  C   UNL     1      -4.246 -11.626   6.086  0.00  0.00    +0.007 A 
ATOM     22  C   UNL     1      -6.278 -11.187   4.855  0.00  0.00    +0.007 A 
ATOM     24  C   UNL     1      -3.706 -12.260   4.967  0.00  0.00    +0.023 A 
ATOM     25  C   UNL     1      -5.738 -11.821   3.737  0.00  0.00    +0.023 A 
ATOM     26  C   UNL     1      -4.452 -12.357   3.792  0.00  0.00    +0.029 A 
BRANCH  26   8
ATOM      8  N   UNL     1      -3.905 -12.998   2.661  0.00  0.00    -0.336 N 
ATOM     30  C   UNL     1      -2.509 -13.385   2.639  0.00  0.00    +0.129 C 
ATOM     31  C   UNL     1      -4.736 -13.288   1.508  0.00  0.00    +0.129 C 
ENDBRANCH  26   8
ENDBRANCH  18  20
ENDBRANCH   6  18
ENDBRANCH  10   6
BRANCH  12  16
ATOM     16  C   UNL     1      -2.168 -10.917  11.962  0.00  0.00    +0.029 C 
BRANCH  16  17
ATOM     17  C   UNL     1      -1.794 -10.173  13.236  0.00  0.00    +0.097 C 
BRANCH  17  19
ATOM      3  O   UNL     1      -1.673 -12.160  14.614  0.00  0.00    -0.276 OA
ATOM      7  N   UNL     1      -2.776 -10.288  15.428  0.00  0.00    -0.311 N 
ATOM     19  C   UNL     1      -2.057 -11.001  14.480  0.00  0.00    +0.213 C 
ATOM     37  H   UNL     1      -3.080  -9.339  15.228  0.00  0.00    +0.149 HD
BRANCH   7  23
ATOM     23  C   UNL     1      -3.152 -10.856  16.701  0.00  0.00    +0.139 C 
BRANCH  23  27
ATOM      1  F   UNL     1      -8.460  -9.564  18.084  0.00  0.00    -0.205 F 
ATOM     27  C   UNL     1      -4.570 -10.511  17.071  0.00  0.00    -0.030 A 
ATOM     28  C   UNL     1      -5.407  -9.904  16.134  0.00  0.00    +0.008 A 
ATOM     29  C   UNL     1      -5.048 -10.799  18.349  0.00  0.00    +0.008 A 
ATOM     32  C   UNL     1      -6.721  -9.584  16.476  0.00  0.00    +0.038 A 
ATOM     33  C   UNL     1      -6.361 -10.479  18.692  0.00  0.00    +0.038 A 
ATOM     34  C   UNL     1      -7.198  -9.871  17.755  0.00  0.00    +0.123 A 
ENDBRANCH  23  27
ENDBRANCH   7  23
ENDBRANCH  17  19
ENDBRANCH  16  17
ENDBRANCH  12  16
TORSDOF 9
ENDMDL
