MODEL 1
REMARK VINA RESULT:      -7.5      0.000      0.000
REMARK  Name = 26743252
REMARK  10 active torsions:
REMARK  status: ('A' for Active; 'I' for Inactive)
REMARK    1  A    between atoms: O_3  and  C_31
REMARK    2  A    between atoms: O_3  and  C_32
REMARK    3  A    between atoms: N_6  and  C_25
REMARK    4  A    between atoms: C_7  and  C_11
REMARK    5  A    between atoms: C_8  and  C_14
REMARK    6  A    between atoms: C_11  and  C_21
REMARK    7  A    between atoms: C_12  and  C_19
REMARK    8  A    between atoms: C_14  and  C_24
REMARK    9  A    between atoms: C_19  and  C_22
REMARK   10  A    between atoms: C_25  and  C_26
REMARK                            x       y       z     vdW  Elec       q    Type
REMARK                         _______ _______ _______ _____ _____    ______ ____
ROOT
ATOM      4  N   UNL     1      -4.397 -11.997  19.354  0.00  0.00    -0.316 NA
ATOM      7  C   UNL     1      -5.287 -11.329  17.122  0.00  0.00    +0.012 C 
ATOM      8  C   UNL     1      -6.568 -10.790  17.803  0.00  0.00    +0.004 C 
ATOM      9  C   UNL     1      -6.295 -10.407  19.265  0.00  0.00    +0.019 C 
ATOM     10  C   UNL     1      -4.678 -12.446  17.989  0.00  0.00    +0.085 C 
ATOM     13  C   UNL     1      -5.617 -11.547  20.024  0.00  0.00    +0.081 C 
ATOM     33  H   UNL     1      -3.722 -11.234  19.330  0.00  0.00    +0.122 HD
ENDROOT
BRANCH   7  11
ATOM     11  C   UNL     1      -4.242 -10.245  16.819  0.00  0.00    +0.064 C 
BRANCH  11  21
ATOM      1  O   UNL     1      -1.653 -11.181  14.501  0.00  0.00    -0.359 OA
ATOM      5  N   UNL     1      -2.113 -10.893  15.780  0.00  0.00    -0.083 NA
ATOM     21  C   UNL     1      -3.409 -10.608  15.624  0.00  0.00    +0.084 A 
ATOM     22  C   UNL     1      -2.677 -11.061  13.618  0.00  0.00    +0.138 A 
ATOM     23  C   UNL     1      -3.819 -10.699  14.283  0.00  0.00    +0.071 A 
BRANCH  22  19
ATOM     19  C   UNL     1      -2.364 -11.332  12.211  0.00  0.00    +0.080 C 
BRANCH  19  12
ATOM     12  C   UNL     1      -3.437 -10.827  11.248  0.00  0.00    -0.004 C 
ATOM     15  C   UNL     1      -2.976  -9.539  10.551  0.00  0.00    +0.004 C 
ATOM     16  C   UNL     1      -3.794 -11.907  10.217  0.00  0.00    +0.004 C 
ATOM     17  C   UNL     1      -4.010  -9.042   9.544  0.00  0.00    +0.000 C 
ATOM     18  C   UNL     1      -4.826 -11.407   9.210  0.00  0.00    +0.000 C 
ATOM     20  C   UNL     1      -4.368 -10.122   8.527  0.00  0.00    +0.000 C 
ENDBRANCH  19  12
ENDBRANCH  22  19
ENDBRANCH  11  21
ENDBRANCH   7  11
BRANCH   8  14
ATOM     14  C   UNL     1      -7.214  -9.629  17.048  0.00  0.00    +0.099 C 
BRANCH  14  24
ATOM      2  O   UNL     1      -9.200 -10.547  16.015  0.00  0.00    -0.276 OA
ATOM      6  N   UNL     1      -9.419  -9.068  17.794  0.00  0.00    -0.311 N 
ATOM     24  C   UNL     1      -8.706  -9.819  16.872  0.00  0.00    +0.214 C 
ATOM     34  H   UNL     1      -8.919  -8.487  18.461  0.00  0.00    +0.149 HD
BRANCH   6  25
ATOM     25  C   UNL     1     -10.863  -9.056  17.853  0.00  0.00    +0.139 C 
BRANCH  25  26
ATOM     26  C   UNL     1     -11.455  -8.041  16.918  0.00  0.00    -0.030 A 
ATOM     27  C   UNL     1     -12.664  -8.309  16.274  0.00  0.00    +0.009 A 
ATOM     28  C   UNL     1     -10.797  -6.833  16.693  0.00  0.00    +0.009 A 
ATOM     29  C   UNL     1     -13.215  -7.366  15.405  0.00  0.00    +0.046 A 
ATOM     30  C   UNL     1     -11.348  -5.890  15.824  0.00  0.00    +0.046 A 
ATOM     31  C   UNL     1     -12.556  -6.157  15.180  0.00  0.00    +0.120 A 
BRANCH  31   3
ATOM      3  O   UNL     1     -13.093  -5.237  14.333  0.00  0.00    -0.495 OA
ATOM     32  C   UNL     1     -12.297  -4.838  13.219  0.00  0.00    +0.277 C 
ENDBRANCH  31   3
ENDBRANCH  25  26
ENDBRANCH   6  25
ENDBRANCH  14  24
ENDBRANCH   8  14
TORSDOF 9
ENDMDL
MODEL 2
REMARK VINA RESULT:      -7.1      3.584      7.360
REMARK  Name = 26743252
REMARK  10 active torsions:
REMARK  status: ('A' for Active; 'I' for Inactive)
REMARK    1  A    between atoms: O_3  and  C_31
REMARK    2  A    between atoms: O_3  and  C_32
REMARK    3  A    between atoms: N_6  and  C_25
REMARK    4  A    between atoms: C_7  and  C_11
REMARK    5  A    between atoms: C_8  and  C_14
REMARK    6  A    between atoms: C_11  and  C_21
REMARK    7  A    between atoms: C_12  and  C_19
REMARK    8  A    between atoms: C_14  and  C_24
REMARK    9  A    between atoms: C_19  and  C_22
REMARK   10  A    between atoms: C_25  and  C_26
REMARK                            x       y       z     vdW  Elec       q    Type
REMARK                         _______ _______ _______ _____ _____    ______ ____
ROOT
ATOM      4  N   UNL     1      -6.991 -10.198  17.497  0.00  0.00    -0.316 NA
ATOM      7  C   UNL     1      -5.545 -10.092  15.467  0.00  0.00    +0.012 C 
ATOM      8  C   UNL     1      -4.412 -10.803  16.246  0.00  0.00    +0.004 C 
ATOM      9  C   UNL     1      -4.981 -11.645  17.399  0.00  0.00    +0.019 C 
ATOM     10  C   UNL     1      -6.443  -9.326  16.456  0.00  0.00    +0.085 C 
ATOM     13  C   UNL     1      -5.924 -10.823  18.278  0.00  0.00    +0.081 C 
ATOM     33  H   UNL     1      -7.566 -10.922  17.067  0.00  0.00    +0.122 HD
ENDROOT
BRANCH   7  11
ATOM     11  C   UNL     1      -6.381 -11.034  14.590  0.00  0.00    +0.064 C 
BRANCH  11  21
ATOM      1  O   UNL     1      -6.484  -9.045  11.592  0.00  0.00    -0.359 OA
ATOM      5  N   UNL     1      -5.994  -9.335  12.859  0.00  0.00    -0.083 NA
ATOM     21  C   UNL     1      -6.660 -10.427  13.246  0.00  0.00    +0.084 A 
ATOM     22  C   UNL     1      -7.425  -9.964  11.254  0.00  0.00    +0.138 A 
ATOM     23  C   UNL     1      -7.574 -10.867  12.274  0.00  0.00    +0.071 A 
BRANCH  22  19
ATOM     19  C   UNL     1      -8.051  -9.807   9.937  0.00  0.00    +0.080 C 
BRANCH  19  12
ATOM     12  C   UNL     1      -8.396  -8.357   9.603  0.00  0.00    -0.004 C 
ATOM     15  C   UNL     1      -7.654  -7.901   8.339  0.00  0.00    +0.004 C 
ATOM     16  C   UNL     1      -9.912  -8.182   9.439  0.00  0.00    +0.004 C 
ATOM     17  C   UNL     1      -8.022  -6.470   7.954  0.00  0.00    +0.000 C 
ATOM     18  C   UNL     1     -10.277  -6.751   9.052  0.00  0.00    +0.000 C 
ATOM     20  C   UNL     1      -9.530  -6.299   7.800  0.00  0.00    +0.000 C 
ENDBRANCH  19  12
ENDBRANCH  22  19
ENDBRANCH  11  21
ENDBRANCH   7  11
BRANCH   8  14
ATOM     14  C   UNL     1      -3.500 -11.646  15.357  0.00  0.00    +0.099 C 
BRANCH  14  24
ATOM      2  O   UNL     1      -1.720 -10.101  14.815  0.00  0.00    -0.276 OA
ATOM      6  N   UNL     1      -3.086 -10.908  13.117  0.00  0.00    -0.311 N 
ATOM     24  C   UNL     1      -2.656 -10.796  14.431  0.00  0.00    +0.214 C 
ATOM     34  H   UNL     1      -3.879 -11.504  12.898  0.00  0.00    +0.149 HD
BRANCH   6  25
ATOM     25  C   UNL     1      -2.464 -10.202  12.021  0.00  0.00    +0.139 C 
BRANCH  25  26
ATOM     26  C   UNL     1      -3.279 -10.286  10.763  0.00  0.00    -0.030 A 
ATOM     27  C   UNL     1      -3.863 -11.497  10.389  0.00  0.00    +0.009 A 
ATOM     28  C   UNL     1      -3.452  -9.153   9.968  0.00  0.00    +0.009 A 
ATOM     29  C   UNL     1      -4.621 -11.574   9.220  0.00  0.00    +0.046 A 
ATOM     30  C   UNL     1      -4.210  -9.230   8.799  0.00  0.00    +0.046 A 
ATOM     31  C   UNL     1      -4.794 -10.440   8.425  0.00  0.00    +0.120 A 
BRANCH  31   3
ATOM      3  O   UNL     1      -5.534 -10.515   7.285  0.00  0.00    -0.495 OA
ATOM     32  C   UNL     1      -4.939 -11.171   6.167  0.00  0.00    +0.277 C 
ENDBRANCH  31   3
ENDBRANCH  25  26
ENDBRANCH   6  25
ENDBRANCH  14  24
ENDBRANCH   8  14
TORSDOF 9
ENDMDL
MODEL 3
REMARK VINA RESULT:      -7.0     27.413     30.410
REMARK  Name = 26743252
REMARK  10 active torsions:
REMARK  status: ('A' for Active; 'I' for Inactive)
REMARK    1  A    between atoms: O_3  and  C_31
REMARK    2  A    between atoms: O_3  and  C_32
REMARK    3  A    between atoms: N_6  and  C_25
REMARK    4  A    between atoms: C_7  and  C_11
REMARK    5  A    between atoms: C_8  and  C_14
REMARK    6  A    between atoms: C_11  and  C_21
REMARK    7  A    between atoms: C_12  and  C_19
REMARK    8  A    between atoms: C_14  and  C_24
REMARK    9  A    between atoms: C_19  and  C_22
REMARK   10  A    between atoms: C_25  and  C_26
REMARK                            x       y       z     vdW  Elec       q    Type
REMARK                         _______ _______ _______ _____ _____    ______ ____
ROOT
ATOM      4  N   UNL     1      10.388   7.854  20.598  0.00  0.00    -0.316 NA
ATOM      7  C   UNL     1      12.597   8.393  19.573  0.00  0.00    +0.012 C 
ATOM      8  C   UNL     1      13.293   7.480  20.611  0.00  0.00    +0.004 C 
ATOM      9  C   UNL     1      12.326   6.407  21.137  0.00  0.00    +0.019 C 
ATOM     10  C   UNL     1      11.281   8.931  20.165  0.00  0.00    +0.085 C 
ATOM     13  C   UNL     1      11.018   7.027  21.627  0.00  0.00    +0.081 C 
ATOM     33  H   UNL     1      10.142   7.272  19.798  0.00  0.00    +0.122 HD
ENDROOT
BRANCH   7  11
ATOM     11  C   UNL     1      12.347   7.714  18.219  0.00  0.00    +0.064 C 
BRANCH  11  21
ATOM      1  O   UNL     1      12.824   9.654  15.224  0.00  0.00    -0.359 OA
ATOM      5  N   UNL     1      12.043   8.894  16.086  0.00  0.00    -0.083 NA
ATOM     21  C   UNL     1      12.862   8.552  17.084  0.00  0.00    +0.084 A 
ATOM     22  C   UNL     1      14.083   9.747  15.725  0.00  0.00    +0.138 A 
ATOM     23  C   UNL     1      14.159   9.063  16.910  0.00  0.00    +0.071 A 
BRANCH  22  19
ATOM     19  C   UNL     1      15.047  10.522  14.936  0.00  0.00    +0.080 C 
BRANCH  19  12
ATOM     12  C   UNL     1      15.305  11.917  15.502  0.00  0.00    -0.004 C 
ATOM     15  C   UNL     1      16.805  12.241  15.478  0.00  0.00    +0.004 C 
ATOM     16  C   UNL     1      14.506  12.974  14.728  0.00  0.00    +0.004 C 
ATOM     17  C   UNL     1      17.085  13.652  15.990  0.00  0.00    +0.000 C 
ATOM     18  C   UNL     1      14.789  14.383  15.240  0.00  0.00    +0.000 C 
ATOM     20  C   UNL     1      16.282  14.699  15.223  0.00  0.00    +0.000 C 
ENDBRANCH  19  12
ENDBRANCH  22  19
ENDBRANCH  11  21
ENDBRANCH   7  11
BRANCH   8  14
ATOM     14  C   UNL     1      14.582   6.844  20.093  0.00  0.00    +0.099 C 
BRANCH  14  24
ATOM      2  O   UNL     1      15.918   8.853  19.919  0.00  0.00    -0.276 OA
ATOM      6  N   UNL     1      16.728   7.046  21.136  0.00  0.00    -0.311 N 
ATOM     24  C   UNL     1      15.794   7.711  20.355  0.00  0.00    +0.214 C 
ATOM     34  H   UNL     1      16.538   6.096  21.442  0.00  0.00    +0.149 HD
BRANCH   6  25
ATOM     25  C   UNL     1      17.984   7.636  21.538  0.00  0.00    +0.139 C 
BRANCH  25  26
ATOM     26  C   UNL     1      19.118   6.655  21.454  0.00  0.00    -0.030 A 
ATOM     27  C   UNL     1      20.077   6.609  22.466  0.00  0.00    +0.009 A 
ATOM     28  C   UNL     1      19.212   5.791  20.363  0.00  0.00    +0.009 A 
ATOM     29  C   UNL     1      21.130   5.697  22.387  0.00  0.00    +0.046 A 
ATOM     30  C   UNL     1      20.265   4.879  20.285  0.00  0.00    +0.046 A 
ATOM     31  C   UNL     1      21.224   4.833  21.296  0.00  0.00    +0.120 A 
BRANCH  31   3
ATOM      3  O   UNL     1      22.251   3.943  21.219  0.00  0.00    -0.495 OA
ATOM     32  C   UNL     1      22.536   3.178  22.389  0.00  0.00    +0.277 C 
ENDBRANCH  31   3
ENDBRANCH  25  26
ENDBRANCH   6  25
ENDBRANCH  14  24
ENDBRANCH   8  14
TORSDOF 9
ENDMDL
MODEL 4
REMARK VINA RESULT:      -7.0      2.215      3.538
REMARK  Name = 26743252
REMARK  10 active torsions:
REMARK  status: ('A' for Active; 'I' for Inactive)
REMARK    1  A    between atoms: O_3  and  C_31
REMARK    2  A    between atoms: O_3  and  C_32
REMARK    3  A    between atoms: N_6  and  C_25
REMARK    4  A    between atoms: C_7  and  C_11
REMARK    5  A    between atoms: C_8  and  C_14
REMARK    6  A    between atoms: C_11  and  C_21
REMARK    7  A    between atoms: C_12  and  C_19
REMARK    8  A    between atoms: C_14  and  C_24
REMARK    9  A    between atoms: C_19  and  C_22
REMARK   10  A    between atoms: C_25  and  C_26
REMARK                            x       y       z     vdW  Elec       q    Type
REMARK                         _______ _______ _______ _____ _____    ______ ____
ROOT
ATOM      4  N   UNL     1      -4.218 -12.432  18.959  0.00  0.00    -0.316 NA
ATOM      7  C   UNL     1      -4.889 -11.515  16.738  0.00  0.00    +0.012 C 
ATOM      8  C   UNL     1      -6.093 -10.805  17.405  0.00  0.00    +0.004 C 
ATOM      9  C   UNL     1      -5.823 -10.545  18.895  0.00  0.00    +0.019 C 
ATOM     10  C   UNL     1      -4.510 -12.760  17.562  0.00  0.00    +0.085 C 
ATOM     13  C   UNL     1      -5.375 -11.819  19.611  0.00  0.00    +0.081 C 
ATOM     33  H   UNL     1      -3.426 -11.791  19.000  0.00  0.00    +0.122 HD
ENDROOT
BRANCH   7  11
ATOM     11  C   UNL     1      -3.669 -10.607  16.533  0.00  0.00    +0.064 C 
BRANCH  11  21
ATOM      1  O   UNL     1      -1.471 -11.062  13.719  0.00  0.00    -0.359 OA
ATOM      5  N   UNL     1      -1.710 -10.825  15.067  0.00  0.00    -0.083 NA
ATOM     21  C   UNL     1      -3.040 -10.833  15.188  0.00  0.00    +0.084 A 
ATOM     22  C   UNL     1      -2.655 -11.205  13.072  0.00  0.00    +0.138 A 
ATOM     23  C   UNL     1      -3.687 -11.068  13.963  0.00  0.00    +0.071 A 
BRANCH  22  19
ATOM     19  C   UNL     1      -2.587 -11.463  11.629  0.00  0.00    +0.080 C 
BRANCH  19  12
ATOM     12  C   UNL     1      -3.709 -10.788  10.843  0.00  0.00    -0.004 C 
ATOM     15  C   UNL     1      -3.270  -9.401  10.355  0.00  0.00    +0.004 C 
ATOM     16  C   UNL     1      -4.152 -11.667   9.665  0.00  0.00    +0.004 C 
ATOM     17  C   UNL     1      -4.356  -8.727   9.520  0.00  0.00    +0.000 C 
ATOM     18  C   UNL     1      -5.237 -10.989   8.832  0.00  0.00    +0.000 C 
ATOM     20  C   UNL     1      -4.799  -9.607   8.356  0.00  0.00    +0.000 C 
ENDBRANCH  19  12
ENDBRANCH  22  19
ENDBRANCH  11  21
ENDBRANCH   7  11
BRANCH   8  14
ATOM     14  C   UNL     1      -6.506  -9.517  16.694  0.00  0.00    +0.099 C 
BRANCH  14  24
ATOM      2  O   UNL     1      -8.564  -9.831  15.462  0.00  0.00    -0.276 OA
ATOM      6  N   UNL     1      -8.635  -8.858  17.572  0.00  0.00    -0.311 N 
ATOM     24  C   UNL     1      -8.003  -9.435  16.480  0.00  0.00    +0.214 C 
ATOM     34  H   UNL     1      -8.082  -8.553  18.367  0.00  0.00    +0.149 HD
BRANCH   6  25
ATOM     25  C   UNL     1     -10.064  -8.653  17.638  0.00  0.00    +0.139 C 
BRANCH  25  26
ATOM     26  C   UNL     1     -10.726  -9.615  18.582  0.00  0.00    -0.030 A 
ATOM     27  C   UNL     1     -12.097  -9.521  18.826  0.00  0.00    +0.009 A 
ATOM     28  C   UNL     1      -9.971 -10.603  19.214  0.00  0.00    +0.009 A 
ATOM     29  C   UNL     1     -12.712 -10.415  19.702  0.00  0.00    +0.046 A 
ATOM     30  C   UNL     1     -10.586 -11.497  20.090  0.00  0.00    +0.046 A 
ATOM     31  C   UNL     1     -11.956 -11.403  20.335  0.00  0.00    +0.120 A 
BRANCH  31   3
ATOM      3  O   UNL     1     -12.557 -12.275  21.189  0.00  0.00    -0.495 OA
ATOM     32  C   UNL     1     -13.850 -11.921  21.676  0.00  0.00    +0.277 C 
ENDBRANCH  31   3
ENDBRANCH  25  26
ENDBRANCH   6  25
ENDBRANCH  14  24
ENDBRANCH   8  14
TORSDOF 9
ENDMDL
MODEL 5
REMARK VINA RESULT:      -6.9     28.452     32.000
REMARK  Name = 26743252
REMARK  10 active torsions:
REMARK  status: ('A' for Active; 'I' for Inactive)
REMARK    1  A    between atoms: O_3  and  C_31
REMARK    2  A    between atoms: O_3  and  C_32
REMARK    3  A    between atoms: N_6  and  C_25
REMARK    4  A    between atoms: C_7  and  C_11
REMARK    5  A    between atoms: C_8  and  C_14
REMARK    6  A    between atoms: C_11  and  C_21
REMARK    7  A    between atoms: C_12  and  C_19
REMARK    8  A    between atoms: C_14  and  C_24
REMARK    9  A    between atoms: C_19  and  C_22
REMARK   10  A    between atoms: C_25  and  C_26
REMARK                            x       y       z     vdW  Elec       q    Type
REMARK                         _______ _______ _______ _____ _____    ______ ____
ROOT
ATOM      4  N   UNL     1      19.107   8.568  22.959  0.00  0.00    -0.316 NA
ATOM      7  C   UNL     1      19.000   7.308  20.810  0.00  0.00    +0.012 C 
ATOM      8  C   UNL     1      20.345   6.623  21.154  0.00  0.00    +0.004 C 
ATOM      9  C   UNL     1      20.575   6.593  22.673  0.00  0.00    +0.019 C 
ATOM     10  C   UNL     1      18.929   8.677  21.510  0.00  0.00    +0.085 C 
ATOM     13  C   UNL     1      20.405   7.980  23.290  0.00  0.00    +0.081 C 
ATOM     33  H   UNL     1      18.363   7.991  23.352  0.00  0.00    +0.122 HD
ENDROOT
BRANCH   7  11
ATOM     11  C   UNL     1      17.767   6.459  21.150  0.00  0.00    +0.064 C 
BRANCH  11  21
ATOM      1  O   UNL     1      15.444   6.357  18.402  0.00  0.00    -0.359 OA
ATOM      5  N   UNL     1      16.552   5.884  19.094  0.00  0.00    -0.083 NA
ATOM     21  C   UNL     1      16.660   6.681  20.160  0.00  0.00    +0.084 A 
ATOM     22  C   UNL     1      14.921   7.419  19.067  0.00  0.00    +0.138 A 
ATOM     23  C   UNL     1      15.659   7.666  20.195  0.00  0.00    +0.071 A 
BRANCH  22  19
ATOM     19  C   UNL     1      13.736   8.046  18.471  0.00  0.00    +0.080 C 
BRANCH  19  12
ATOM     12  C   UNL     1      12.496   7.954  19.358  0.00  0.00    -0.004 C 
ATOM     15  C   UNL     1      12.579   6.728  20.279  0.00  0.00    +0.004 C 
ATOM     16  C   UNL     1      12.318   9.240  20.177  0.00  0.00    +0.004 C 
ATOM     17  C   UNL     1      11.376   6.643  21.215  0.00  0.00    +0.000 C 
ATOM     18  C   UNL     1      11.115   9.151  21.113  0.00  0.00    +0.000 C 
ATOM     20  C   UNL     1      11.197   7.927  22.020  0.00  0.00    +0.000 C 
ENDBRANCH  19  12
ENDBRANCH  22  19
ENDBRANCH  11  21
ENDBRANCH   7  11
BRANCH   8  14
ATOM     14  C   UNL     1      20.485   5.224  20.555  0.00  0.00    +0.099 C 
BRANCH  14  24
ATOM      2  O   UNL     1      22.884   5.455  20.349  0.00  0.00    -0.276 OA
ATOM      6  N   UNL     1      21.978   3.379  20.870  0.00  0.00    -0.311 N 
ATOM     24  C   UNL     1      21.916   4.733  20.573  0.00  0.00    +0.214 C 
ATOM     34  H   UNL     1      21.118   2.862  21.032  0.00  0.00    +0.149 HD
BRANCH   6  25
ATOM     25  C   UNL     1      23.220   2.645  20.951  0.00  0.00    +0.139 C 
BRANCH  25  26
ATOM     26  C   UNL     1      23.455   2.090  22.326  0.00  0.00    -0.030 A 
ATOM     27  C   UNL     1      24.397   1.079  22.519  0.00  0.00    +0.009 A 
ATOM     28  C   UNL     1      22.733   2.586  23.411  0.00  0.00    +0.009 A 
ATOM     29  C   UNL     1      24.616   0.564  23.796  0.00  0.00    +0.046 A 
ATOM     30  C   UNL     1      22.952   2.071  24.689  0.00  0.00    +0.046 A 
ATOM     31  C   UNL     1      23.893   1.060  24.882  0.00  0.00    +0.120 A 
BRANCH  31   3
ATOM      3  O   UNL     1      24.107   0.558  26.128  0.00  0.00    -0.495 OA
ATOM     32  C   UNL     1      24.690   1.435  27.090  0.00  0.00    +0.277 C 
ENDBRANCH  31   3
ENDBRANCH  25  26
ENDBRANCH   6  25
ENDBRANCH  14  24
ENDBRANCH   8  14
TORSDOF 9
ENDMDL
MODEL 6
REMARK VINA RESULT:      -6.8     27.435     30.005
REMARK  Name = 26743252
REMARK  10 active torsions:
REMARK  status: ('A' for Active; 'I' for Inactive)
REMARK    1  A    between atoms: O_3  and  C_31
REMARK    2  A    between atoms: O_3  and  C_32
REMARK    3  A    between atoms: N_6  and  C_25
REMARK    4  A    between atoms: C_7  and  C_11
REMARK    5  A    between atoms: C_8  and  C_14
REMARK    6  A    between atoms: C_11  and  C_21
REMARK    7  A    between atoms: C_12  and  C_19
REMARK    8  A    between atoms: C_14  and  C_24
REMARK    9  A    between atoms: C_19  and  C_22
REMARK   10  A    between atoms: C_25  and  C_26
REMARK                            x       y       z     vdW  Elec       q    Type
REMARK                         _______ _______ _______ _____ _____    ______ ____
ROOT
ATOM      4  N   UNL     1      19.010  10.668  21.295  0.00  0.00    -0.316 NA
ATOM      7  C   UNL     1      16.696   9.876  20.804  0.00  0.00    +0.012 C 
ATOM      8  C   UNL     1      17.179   8.411  20.930  0.00  0.00    +0.004 C 
ATOM      9  C   UNL     1      18.428   8.317  21.820  0.00  0.00    +0.019 C 
ATOM     10  C   UNL     1      17.875  10.769  20.375  0.00  0.00    +0.085 C 
ATOM     13  C   UNL     1      19.511   9.295  21.368  0.00  0.00    +0.081 C 
ATOM     33  H   UNL     1      18.724  10.974  22.224  0.00  0.00    +0.122 HD
ENDROOT
BRANCH   7  11
ATOM     11  C   UNL     1      16.036  10.423  22.078  0.00  0.00    +0.064 C 
BRANCH  11  21
ATOM      1  O   UNL     1      12.591  10.311  21.041  0.00  0.00    -0.359 OA
ATOM      5  N   UNL     1      13.954  10.337  20.776  0.00  0.00    -0.083 NA
ATOM     21  C   UNL     1      14.538  10.385  21.977  0.00  0.00    +0.084 A 
ATOM     22  C   UNL     1      12.394  10.344  22.384  0.00  0.00    +0.138 A 
ATOM     23  C   UNL     1      13.603  10.391  23.026  0.00  0.00    +0.071 A 
BRANCH  22  19
ATOM     19  C   UNL     1      11.000  10.322  22.843  0.00  0.00    +0.080 C 
BRANCH  19  12
ATOM     12  C   UNL     1      10.550  11.644  23.460  0.00  0.00    -0.004 C 
ATOM     15  C   UNL     1      11.039  11.760  24.910  0.00  0.00    +0.004 C 
ATOM     16  C   UNL     1      11.044  12.831  22.622  0.00  0.00    +0.004 C 
ATOM     17  C   UNL     1      10.647  13.097  25.533  0.00  0.00    +0.000 C 
ATOM     18  C   UNL     1      10.651  14.167  23.248  0.00  0.00    +0.000 C 
ATOM     20  C   UNL     1      11.132  14.274  24.692  0.00  0.00    +0.000 C 
ENDBRANCH  19  12
ENDBRANCH  22  19
ENDBRANCH  11  21
ENDBRANCH   7  11
BRANCH   8  14
ATOM     14  C   UNL     1      16.092   7.453  21.415  0.00  0.00    +0.099 C 
BRANCH  14  24
ATOM      2  O   UNL     1      15.780   6.003  19.504  0.00  0.00    -0.276 OA
ATOM      6  N   UNL     1      14.027   7.357  20.207  0.00  0.00    -0.311 N 
ATOM     24  C   UNL     1      15.314   6.842  20.270  0.00  0.00    +0.214 C 
ATOM     34  H   UNL     1      13.734   8.057  20.882  0.00  0.00    +0.149 HD
BRANCH   6  25
ATOM     25  C   UNL     1      13.064   6.953  19.208  0.00  0.00    +0.139 C 
BRANCH  25  26
ATOM     26  C   UNL     1      13.049   7.887  18.032  0.00  0.00    -0.030 A 
ATOM     27  C   UNL     1      14.250   8.304  17.457  0.00  0.00    +0.009 A 
ATOM     28  C   UNL     1      11.834   8.336  17.515  0.00  0.00    +0.009 A 
ATOM     29  C   UNL     1      14.235   9.171  16.365  0.00  0.00    +0.046 A 
ATOM     30  C   UNL     1      11.820   9.203  16.423  0.00  0.00    +0.046 A 
ATOM     31  C   UNL     1      13.020   9.621  15.848  0.00  0.00    +0.120 A 
BRANCH  31   3
ATOM      3  O   UNL     1      13.006  10.466  14.781  0.00  0.00    -0.495 OA
ATOM     32  C   UNL     1      13.905  11.573  14.818  0.00  0.00    +0.277 C 
ENDBRANCH  31   3
ENDBRANCH  25  26
ENDBRANCH   6  25
ENDBRANCH  14  24
ENDBRANCH   8  14
TORSDOF 9
ENDMDL
MODEL 7
REMARK VINA RESULT:      -6.8     27.369     29.625
REMARK  Name = 26743252
REMARK  10 active torsions:
REMARK  status: ('A' for Active; 'I' for Inactive)
REMARK    1  A    between atoms: O_3  and  C_31
REMARK    2  A    between atoms: O_3  and  C_32
REMARK    3  A    between atoms: N_6  and  C_25
REMARK    4  A    between atoms: C_7  and  C_11
REMARK    5  A    between atoms: C_8  and  C_14
REMARK    6  A    between atoms: C_11  and  C_21
REMARK    7  A    between atoms: C_12  and  C_19
REMARK    8  A    between atoms: C_14  and  C_24
REMARK    9  A    between atoms: C_19  and  C_22
REMARK   10  A    between atoms: C_25  and  C_26
REMARK                            x       y       z     vdW  Elec       q    Type
REMARK                         _______ _______ _______ _____ _____    ______ ____
ROOT
ATOM      4  N   UNL     1      14.272  13.299  25.015  0.00  0.00    -0.316 NA
ATOM      7  C   UNL     1      13.458  11.874  23.137  0.00  0.00    +0.012 C 
ATOM      8  C   UNL     1      12.256  11.430  24.006  0.00  0.00    +0.004 C 
ATOM      9  C   UNL     1      11.933  12.482  25.078  0.00  0.00    +0.019 C 
ATOM     10  C   UNL     1      14.635  12.258  24.052  0.00  0.00    +0.085 C 
ATOM     13  C   UNL     1      13.178  12.860  25.881  0.00  0.00    +0.081 C 
ATOM     33  H   UNL     1      13.991  14.143  24.516  0.00  0.00    +0.122 HD
ENDROOT
BRANCH   7  11
ATOM     11  C   UNL     1      13.132  13.014  22.162  0.00  0.00    +0.064 C 
BRANCH  11  21
ATOM      1  O   UNL     1      13.452  12.729  18.588  0.00  0.00    -0.359 OA
ATOM      5  N   UNL     1      12.947  13.332  19.733  0.00  0.00    -0.083 NA
ATOM     21  C   UNL     1      13.466  12.636  20.748  0.00  0.00    +0.084 A 
ATOM     22  C   UNL     1      14.255  11.694  18.944  0.00  0.00    +0.138 A 
ATOM     23  C   UNL     1      14.299  11.592  20.309  0.00  0.00    +0.071 A 
BRANCH  22  19
ATOM     19  C   UNL     1      14.877  10.941  17.848  0.00  0.00    +0.080 C 
BRANCH  19  12
ATOM     12  C   UNL     1      13.956   9.882  17.247  0.00  0.00    -0.004 C 
ATOM     15  C   UNL     1      12.972   9.359  18.303  0.00  0.00    +0.004 C 
ATOM     16  C   UNL     1      13.205  10.441  16.032  0.00  0.00    +0.004 C 
ATOM     17  C   UNL     1      12.004   8.336  17.714  0.00  0.00    +0.000 C 
ATOM     18  C   UNL     1      12.236   9.417  15.446  0.00  0.00    +0.000 C 
ATOM     20  C   UNL     1      11.266   8.893  16.500  0.00  0.00    +0.000 C 
ENDBRANCH  19  12
ENDBRANCH  22  19
ENDBRANCH  11  21
ENDBRANCH   7  11
BRANCH   8  14
ATOM     14  C   UNL     1      11.011  11.088  23.189  0.00  0.00    +0.099 C 
BRANCH  14  24
ATOM      2  O   UNL     1      11.125  10.159  20.958  0.00  0.00    -0.276 OA
ATOM      6  N   UNL     1      11.702   8.832  22.777  0.00  0.00    -0.311 N 
ATOM     24  C   UNL     1      11.276  10.003  22.166  0.00  0.00    +0.214 C 
ATOM     34  H   UNL     1      11.789   8.798  23.788  0.00  0.00    +0.149 HD
BRANCH   6  25
ATOM     25  C   UNL     1      12.026   7.632  22.041  0.00  0.00    +0.139 C 
BRANCH  25  26
ATOM     26  C   UNL     1      13.455   7.622  21.581  0.00  0.00    -0.030 A 
ATOM     27  C   UNL     1      13.852   6.764  20.555  0.00  0.00    +0.009 A 
ATOM     28  C   UNL     1      14.385   8.471  22.181  0.00  0.00    +0.009 A 
ATOM     29  C   UNL     1      15.180   6.756  20.128  0.00  0.00    +0.046 A 
ATOM     30  C   UNL     1      15.713   8.463  21.754  0.00  0.00    +0.046 A 
ATOM     31  C   UNL     1      16.111   7.605  20.728  0.00  0.00    +0.120 A 
BRANCH  31   3
ATOM      3  O   UNL     1      17.407   7.597  20.311  0.00  0.00    -0.495 OA
ATOM     32  C   UNL     1      18.371   7.036  21.200  0.00  0.00    +0.277 C 
ENDBRANCH  31   3
ENDBRANCH  25  26
ENDBRANCH   6  25
ENDBRANCH  14  24
ENDBRANCH   8  14
TORSDOF 9
ENDMDL
MODEL 8
REMARK VINA RESULT:      -6.7      4.417      6.418
REMARK  Name = 26743252
REMARK  10 active torsions:
REMARK  status: ('A' for Active; 'I' for Inactive)
REMARK    1  A    between atoms: O_3  and  C_31
REMARK    2  A    between atoms: O_3  and  C_32
REMARK    3  A    between atoms: N_6  and  C_25
REMARK    4  A    between atoms: C_7  and  C_11
REMARK    5  A    between atoms: C_8  and  C_14
REMARK    6  A    between atoms: C_11  and  C_21
REMARK    7  A    between atoms: C_12  and  C_19
REMARK    8  A    between atoms: C_14  and  C_24
REMARK    9  A    between atoms: C_19  and  C_22
REMARK   10  A    between atoms: C_25  and  C_26
REMARK                            x       y       z     vdW  Elec       q    Type
REMARK                         _______ _______ _______ _____ _____    ______ ____
ROOT
ATOM      4  N   UNL     1      -6.187 -11.442  17.432  0.00  0.00    -0.316 NA
ATOM      7  C   UNL     1      -4.713 -11.484  15.421  0.00  0.00    +0.012 C 
ATOM      8  C   UNL     1      -3.576 -10.839  16.250  0.00  0.00    +0.004 C 
ATOM      9  C   UNL     1      -3.748 -11.140  17.747  0.00  0.00    +0.019 C 
ATOM     10  C   UNL     1      -6.073 -11.080  16.018  0.00  0.00    +0.085 C 
ATOM     13  C   UNL     1      -5.153 -10.783  18.230  0.00  0.00    +0.081 C 
ATOM     33  H   UNL     1      -6.102 -12.452  17.534  0.00  0.00    +0.122 HD
ENDROOT
BRANCH   7  11
ATOM     11  C   UNL     1      -4.603 -13.010  15.299  0.00  0.00    +0.064 C 
BRANCH  11  21
ATOM      1  O   UNL     1      -3.633 -14.046  11.991  0.00  0.00    -0.359 OA
ATOM      5  N   UNL     1      -3.343 -13.673  13.297  0.00  0.00    -0.083 NA
ATOM     21  C   UNL     1      -4.530 -13.440  13.862  0.00  0.00    +0.084 A 
ATOM     22  C   UNL     1      -4.978 -14.027  11.808  0.00  0.00    +0.138 A 
ATOM     23  C   UNL     1      -5.597 -13.648  12.971  0.00  0.00    +0.071 A 
BRANCH  22  19
ATOM     19  C   UNL     1      -5.464 -14.398  10.474  0.00  0.00    +0.080 C 
BRANCH  19  12
ATOM     12  C   UNL     1      -4.614 -13.822   9.343  0.00  0.00    -0.004 C 
ATOM     15  C   UNL     1      -4.581 -14.783   8.147  0.00  0.00    +0.004 C 
ATOM     16  C   UNL     1      -5.137 -12.442   8.919  0.00  0.00    +0.004 C 
ATOM     17  C   UNL     1      -3.781 -14.206   6.982  0.00  0.00    +0.000 C 
ATOM     18  C   UNL     1      -4.337 -11.869   7.752  0.00  0.00    +0.000 C 
ATOM     20  C   UNL     1      -4.298 -12.832   6.570  0.00  0.00    +0.000 C 
ENDBRANCH  19  12
ENDBRANCH  22  19
ENDBRANCH  11  21
ENDBRANCH   7  11
BRANCH   8  14
ATOM     14  C   UNL     1      -2.178 -11.232  15.774  0.00  0.00    +0.099 C 
BRANCH  14  24
ATOM      2  O   UNL     1      -1.068  -9.405  14.642  0.00  0.00    -0.276 OA
ATOM      6  N   UNL     1      -2.192 -11.009  13.390  0.00  0.00    -0.311 N 
ATOM     24  C   UNL     1      -1.738 -10.432  14.567  0.00  0.00    +0.214 C 
ATOM     34  H   UNL     1      -2.749 -11.857  13.430  0.00  0.00    +0.149 HD
BRANCH   6  25
ATOM     25  C   UNL     1      -1.921 -10.453  12.084  0.00  0.00    +0.139 C 
BRANCH  25  26
ATOM     26  C   UNL     1      -3.169  -9.954  11.415  0.00  0.00    -0.030 A 
ATOM     27  C   UNL     1      -3.083  -9.244  10.217  0.00  0.00    +0.009 A 
ATOM     28  C   UNL     1      -4.414 -10.200  11.992  0.00  0.00    +0.009 A 
ATOM     29  C   UNL     1      -4.243  -8.780   9.596  0.00  0.00    +0.046 A 
ATOM     30  C   UNL     1      -5.574  -9.737  11.371  0.00  0.00    +0.046 A 
ATOM     31  C   UNL     1      -5.489  -9.026  10.174  0.00  0.00    +0.120 A 
BRANCH  31   3
ATOM      3  O   UNL     1      -6.621  -8.574   9.568  0.00  0.00    -0.495 OA
ATOM     32  C   UNL     1      -6.780  -8.875   8.183  0.00  0.00    +0.277 C 
ENDBRANCH  31   3
ENDBRANCH  25  26
ENDBRANCH   6  25
ENDBRANCH  14  24
ENDBRANCH   8  14
TORSDOF 9
ENDMDL
MODEL 9
REMARK VINA RESULT:      -6.7      4.833     10.920
REMARK  Name = 26743252
REMARK  10 active torsions:
REMARK  status: ('A' for Active; 'I' for Inactive)
REMARK    1  A    between atoms: O_3  and  C_31
REMARK    2  A    between atoms: O_3  and  C_32
REMARK    3  A    between atoms: N_6  and  C_25
REMARK    4  A    between atoms: C_7  and  C_11
REMARK    5  A    between atoms: C_8  and  C_14
REMARK    6  A    between atoms: C_11  and  C_21
REMARK    7  A    between atoms: C_12  and  C_19
REMARK    8  A    between atoms: C_14  and  C_24
REMARK    9  A    between atoms: C_19  and  C_22
REMARK   10  A    between atoms: C_25  and  C_26
REMARK                            x       y       z     vdW  Elec       q    Type
REMARK                         _______ _______ _______ _____ _____    ______ ____
ROOT
ATOM      4  N   UNL     1     -10.367 -10.537   9.968  0.00  0.00    -0.316 NA
ATOM      7  C   UNL     1      -8.788  -8.670   9.474  0.00  0.00    +0.012 C 
ATOM      8  C   UNL     1      -7.747  -9.696   8.965  0.00  0.00    +0.004 C 
ATOM      9  C   UNL     1      -8.433 -10.985   8.486  0.00  0.00    +0.019 C 
ATOM     10  C   UNL     1      -9.709  -9.345  10.507  0.00  0.00    +0.085 C 
ATOM     13  C   UNL     1      -9.387 -11.536   9.545  0.00  0.00    +0.081 C 
ATOM     33  H   UNL     1     -10.949 -10.274   9.173  0.00  0.00    +0.122 HD
ENDROOT
BRANCH   7  11
ATOM     11  C   UNL     1      -9.613  -8.016   8.356  0.00  0.00    +0.064 C 
BRANCH  11  21
ATOM      1  O   UNL     1      -9.567  -4.436   8.723  0.00  0.00    -0.359 OA
ATOM      5  N   UNL     1      -9.006  -5.636   8.307  0.00  0.00    -0.083 NA
ATOM     21  C   UNL     1      -9.892  -6.572   8.657  0.00  0.00    +0.084 A 
ATOM     22  C   UNL     1     -10.767  -4.681   9.307  0.00  0.00    +0.138 A 
ATOM     23  C   UNL     1     -11.022  -6.027   9.290  0.00  0.00    +0.071 A 
BRANCH  22  19
ATOM     19  C   UNL     1     -11.503  -3.514   9.808  0.00  0.00    +0.080 C 
BRANCH  19  12
ATOM     12  C   UNL     1     -12.684  -3.886  10.702  0.00  0.00    -0.004 C 
ATOM     15  C   UNL     1     -12.384  -3.540  12.167  0.00  0.00    +0.004 C 
ATOM     16  C   UNL     1     -13.966  -3.187  10.228  0.00  0.00    +0.004 C 
ATOM     17  C   UNL     1     -13.571  -3.853  13.075  0.00  0.00    +0.000 C 
ATOM     18  C   UNL     1     -15.150  -3.501  11.139  0.00  0.00    +0.000 C 
ATOM     20  C   UNL     1     -14.845  -3.164  12.595  0.00  0.00    +0.000 C 
ENDBRANCH  19  12
ENDBRANCH  22  19
ENDBRANCH  11  21
ENDBRANCH   7  11
BRANCH   8  14
ATOM     14  C   UNL     1      -6.823  -9.138   7.884  0.00  0.00    +0.099 C 
BRANCH  14  24
ATOM      2  O   UNL     1      -4.840 -10.447   7.427  0.00  0.00    -0.276 OA
ATOM      6  N   UNL     1      -4.781  -8.829   9.096  0.00  0.00    -0.311 N 
ATOM     24  C   UNL     1      -5.384  -9.563   8.084  0.00  0.00    +0.214 C 
ATOM     34  H   UNL     1      -5.318  -8.122   9.589  0.00  0.00    +0.149 HD
BRANCH   6  25
ATOM     25  C   UNL     1      -3.409  -9.027   9.502  0.00  0.00    +0.139 C 
BRANCH  25  26
ATOM     26  C   UNL     1      -3.310  -9.634  10.872  0.00  0.00    -0.030 A 
ATOM     27  C   UNL     1      -4.470  -9.935  11.587  0.00  0.00    +0.009 A 
ATOM     28  C   UNL     1      -2.059  -9.898  11.429  0.00  0.00    +0.009 A 
ATOM     29  C   UNL     1      -4.378 -10.500  12.859  0.00  0.00    +0.046 A 
ATOM     30  C   UNL     1      -1.967 -10.463  12.701  0.00  0.00    +0.046 A 
ATOM     31  C   UNL     1      -3.126 -10.764  13.416  0.00  0.00    +0.120 A 
BRANCH  31   3
ATOM      3  O   UNL     1      -3.037 -11.315  14.657  0.00  0.00    -0.495 OA
ATOM     32  C   UNL     1      -1.804 -11.146  15.355  0.00  0.00    +0.277 C 
ENDBRANCH  31   3
ENDBRANCH  25  26
ENDBRANCH   6  25
ENDBRANCH  14  24
ENDBRANCH   8  14
TORSDOF 9
ENDMDL
MODEL 10
REMARK VINA RESULT:      -6.7     28.182     30.761
REMARK  Name = 26743252
REMARK  10 active torsions:
REMARK  status: ('A' for Active; 'I' for Inactive)
REMARK    1  A    between atoms: O_3  and  C_31
REMARK    2  A    between atoms: O_3  and  C_32
REMARK    3  A    between atoms: N_6  and  C_25
REMARK    4  A    between atoms: C_7  and  C_11
REMARK    5  A    between atoms: C_8  and  C_14
REMARK    6  A    between atoms: C_11  and  C_21
REMARK    7  A    between atoms: C_12  and  C_19
REMARK    8  A    between atoms: C_14  and  C_24
REMARK    9  A    between atoms: C_19  and  C_22
REMARK   10  A    between atoms: C_25  and  C_26
REMARK                            x       y       z     vdW  Elec       q    Type
REMARK                         _______ _______ _______ _____ _____    ______ ____
ROOT
ATOM      4  N   UNL     1      18.839  12.664  20.515  0.00  0.00    -0.316 NA
ATOM      7  C   UNL     1      17.419  10.642  20.860  0.00  0.00    +0.012 C 
ATOM      8  C   UNL     1      18.697   9.781  21.009  0.00  0.00    +0.004 C 
ATOM      9  C   UNL     1      19.886  10.635  21.477  0.00  0.00    +0.019 C 
ATOM     10  C   UNL     1      17.730  11.869  19.983  0.00  0.00    +0.085 C 
ATOM     13  C   UNL     1      20.065  11.871  20.597  0.00  0.00    +0.081 C 
ATOM     33  H   UNL     1      18.596  13.011  21.442  0.00  0.00    +0.122 HD
ENDROOT
BRANCH   7  11
ATOM     11  C   UNL     1      16.801  11.072  22.197  0.00  0.00    +0.064 C 
BRANCH  11  21
ATOM      1  O   UNL     1      13.454   9.762  22.387  0.00  0.00    -0.359 OA
ATOM      5  N   UNL     1      14.835   9.620  22.441  0.00  0.00    -0.083 NA
ATOM     21  C   UNL     1      15.317  10.844  22.212  0.00  0.00    +0.084 A 
ATOM     22  C   UNL     1      13.146  11.058  22.128  0.00  0.00    +0.138 A 
ATOM     23  C   UNL     1      14.298  11.791  22.008  0.00  0.00    +0.071 A 
BRANCH  22  19
ATOM     19  C   UNL     1      11.719  11.388  22.037  0.00  0.00    +0.080 C 
BRANCH  19  12
ATOM     12  C   UNL     1      11.380  12.756  22.625  0.00  0.00    -0.004 C 
ATOM     15  C   UNL     1      10.552  13.582  21.631  0.00  0.00    +0.004 C 
ATOM     16  C   UNL     1      10.636  12.604  23.959  0.00  0.00    +0.004 C 
ATOM     17  C   UNL     1      10.154  14.935  22.215  0.00  0.00    +0.000 C 
ATOM     18  C   UNL     1      10.237  13.958  24.541  0.00  0.00    +0.000 C 
ATOM     20  C   UNL     1       9.423  14.780  23.546  0.00  0.00    +0.000 C 
ENDBRANCH  19  12
ENDBRANCH  22  19
ENDBRANCH  11  21
ENDBRANCH   7  11
BRANCH   8  14
ATOM     14  C   UNL     1      18.508   8.567  21.918  0.00  0.00    +0.099 C 
BRANCH  14  24
ATOM      2  O   UNL     1      18.444   6.700  20.381  0.00  0.00    -0.276 OA
ATOM      6  N   UNL     1      16.531   7.260  21.577  0.00  0.00    -0.311 N 
ATOM     24  C   UNL     1      17.857   7.406  21.197  0.00  0.00    +0.214 C 
ATOM     34  H   UNL     1      16.131   7.901  22.256  0.00  0.00    +0.149 HD
BRANCH   6  25
ATOM     25  C   UNL     1      15.667   6.232  21.044  0.00  0.00    +0.139 C 
BRANCH  25  26
ATOM     26  C   UNL     1      14.739   6.768  19.992  0.00  0.00    -0.030 A 
ATOM     27  C   UNL     1      15.237   7.123  18.738  0.00  0.00    +0.009 A 
ATOM     28  C   UNL     1      13.380   6.910  20.270  0.00  0.00    +0.009 A 
ATOM     29  C   UNL     1      14.374   7.620  17.761  0.00  0.00    +0.046 A 
ATOM     30  C   UNL     1      12.517   7.408  19.293  0.00  0.00    +0.046 A 
ATOM     31  C   UNL     1      13.014   7.763  18.039  0.00  0.00    +0.120 A 
BRANCH  31   3
ATOM      3  O   UNL     1      12.173   8.248  17.086  0.00  0.00    -0.495 OA
ATOM     32  C   UNL     1      12.679   9.273  16.233  0.00  0.00    +0.277 C 
ENDBRANCH  31   3
ENDBRANCH  25  26
ENDBRANCH   6  25
ENDBRANCH  14  24
ENDBRANCH   8  14
TORSDOF 9
ENDMDL
