MODEL 1
REMARK VINA RESULT:      -6.4      0.000      0.000
REMARK  Name = 45783564
REMARK  9 active torsions:
REMARK  status: ('A' for Active; 'I' for Inactive)
REMARK    1  A    between atoms: O_3  and  C_24
REMARK    2  A    between atoms: O_3  and  C_25
REMARK    3  A    between atoms: O_4  and  C_26
REMARK    4  A    between atoms: O_4  and  C_27
REMARK    5  A    between atoms: N_5  and  C_13
REMARK    6  A    between atoms: C_9  and  C_14
REMARK    7  A    between atoms: C_13  and  C_15
REMARK    8  A    between atoms: C_17  and  C_19
REMARK    9  A    between atoms: C_25  and  C_26
REMARK                            x       y       z     vdW  Elec       q    Type
REMARK                         _______ _______ _______ _____ _____    ______ ____
ROOT
ATOM      2  O   UNL     1      15.052   8.930  19.677  0.00  0.00    -0.336 OA
ATOM      6  N   UNL     1      15.784   6.871  19.188  0.00  0.00    -0.190 NA
ATOM      7  N   UNL     1      16.266   8.776  20.360  0.00  0.00    -0.056 NA
ATOM     14  C   UNL     1      14.843   7.764  19.013  0.00  0.00    +0.245 A 
ATOM     17  C   UNL     1      16.635   7.537  20.021  0.00  0.00    +0.204 A 
ENDROOT
BRANCH  17  19
ATOM      8  N   UNL     1      19.647   6.913  22.112  0.00  0.00    -0.221 NA
ATOM     19  C   UNL     1      17.846   6.934  20.500  0.00  0.00    +0.041 A 
ATOM     21  C   UNL     1      18.396   5.828  19.860  0.00  0.00    +0.018 A 
ATOM     22  C   UNL     1      18.504   7.433  21.611  0.00  0.00    +0.126 A 
ATOM     23  C   UNL     1      19.570   5.264  20.346  0.00  0.00    +0.068 A 
ATOM     24  C   UNL     1      20.151   5.838  21.464  0.00  0.00    +0.215 A 
BRANCH  24   3
ATOM      3  O   UNL     1      21.310   5.302  21.962  0.00  0.00    -0.474 OA
BRANCH   3  25
ATOM     25  C   UNL     1      21.858   4.195  21.255  0.00  0.00    +0.258 C 
BRANCH  25  26
ATOM     26  C   UNL     1      23.184   4.606  20.645  0.00  0.00    +0.200 C 
BRANCH  26   4
ATOM      4  O   UNL     1      24.140   3.578  20.877  0.00  0.00    -0.380 OA
ATOM     27  C   UNL     1      24.909   3.310  19.713  0.00  0.00    +0.194 C 
ENDBRANCH  26   4
ENDBRANCH  25  26
ENDBRANCH   3  25
ENDBRANCH  24   3
ENDBRANCH  17  19
BRANCH  14   9
ATOM      5  N   UNL     1      12.517   8.579  18.672  0.00  0.00    -0.287 NA
ATOM      9  C   UNL     1      13.578   7.676  18.185  0.00  0.00    +0.146 C 
ATOM     10  C   UNL     1      13.798   8.087  16.717  0.00  0.00    +0.030 C 
ATOM     11  C   UNL     1      12.777   9.183  16.454  0.00  0.00    +0.017 C 
ATOM     12  C   UNL     1      11.713   8.939  17.504  0.00  0.00    +0.085 C 
BRANCH   5  13
ATOM     13  C   UNL     1      11.709   7.995  19.735  0.00  0.00    +0.127 C 
BRANCH  13  15
ATOM      1  S   UNL     1      10.813   8.392  22.338  0.00  0.00    -0.100 S 
ATOM     15  C   UNL     1      11.507   8.955  20.878  0.00  0.00    +0.004 A 
ATOM     16  C   UNL     1      11.811  10.298  20.933  0.00  0.00    +0.012 A 
ATOM     18  C   UNL     1      11.470  10.872  22.192  0.00  0.00    +0.008 A 
ATOM     20  C   UNL     1      10.919   9.946  23.050  0.00  0.00    +0.045 A 
ENDBRANCH  13  15
ENDBRANCH   5  13
ENDBRANCH  14   9
TORSDOF 8
ENDMDL
MODEL 2
REMARK VINA RESULT:      -6.3      1.972      3.392
REMARK  Name = 45783564
REMARK  9 active torsions:
REMARK  status: ('A' for Active; 'I' for Inactive)
REMARK    1  A    between atoms: O_3  and  C_24
REMARK    2  A    between atoms: O_3  and  C_25
REMARK    3  A    between atoms: O_4  and  C_26
REMARK    4  A    between atoms: O_4  and  C_27
REMARK    5  A    between atoms: N_5  and  C_13
REMARK    6  A    between atoms: C_9  and  C_14
REMARK    7  A    between atoms: C_13  and  C_15
REMARK    8  A    between atoms: C_17  and  C_19
REMARK    9  A    between atoms: C_25  and  C_26
REMARK                            x       y       z     vdW  Elec       q    Type
REMARK                         _______ _______ _______ _____ _____    ______ ____
ROOT
ATOM      2  O   UNL     1      14.421   6.879  19.493  0.00  0.00    -0.336 OA
ATOM      6  N   UNL     1      15.635   7.485  21.275  0.00  0.00    -0.190 NA
ATOM      7  N   UNL     1      15.698   6.340  19.296  0.00  0.00    -0.056 NA
ATOM     14  C   UNL     1      14.470   7.538  20.681  0.00  0.00    +0.245 A 
ATOM     17  C   UNL     1      16.356   6.740  20.388  0.00  0.00    +0.204 A 
ENDROOT
BRANCH  17  19
ATOM      8  N   UNL     1      19.671   5.089  20.047  0.00  0.00    -0.221 NA
ATOM     19  C   UNL     1      17.734   6.416  20.622  0.00  0.00    +0.041 A 
ATOM     21  C   UNL     1      18.465   7.070  21.608  0.00  0.00    +0.018 A 
ATOM     22  C   UNL     1      18.377   5.442  19.876  0.00  0.00    +0.126 A 
ATOM     23  C   UNL     1      19.799   6.735  21.813  0.00  0.00    +0.068 A 
ATOM     24  C   UNL     1      20.350   5.747  21.014  0.00  0.00    +0.215 A 
BRANCH  24   3
ATOM      3  O   UNL     1      21.662   5.398  21.197  0.00  0.00    -0.474 OA
BRANCH   3  25
ATOM     25  C   UNL     1      22.007   4.842  22.460  0.00  0.00    +0.258 C 
BRANCH  25  26
ATOM     26  C   UNL     1      22.274   3.360  22.293  0.00  0.00    +0.200 C 
BRANCH  26   4
ATOM      4  O   UNL     1      22.663   3.107  20.948  0.00  0.00    -0.380 OA
ATOM     27  C   UNL     1      23.649   2.086  20.875  0.00  0.00    +0.194 C 
ENDBRANCH  26   4
ENDBRANCH  25  26
ENDBRANCH   3  25
ENDBRANCH  24   3
ENDBRANCH  17  19
BRANCH  14   9
ATOM      5  N   UNL     1      12.389   8.719  19.998  0.00  0.00    -0.287 NA
ATOM      9  C   UNL     1      13.193   8.217  21.130  0.00  0.00    +0.146 C 
ATOM     10  C   UNL     1      12.249   7.267  21.889  0.00  0.00    +0.030 C 
ATOM     11  C   UNL     1      10.923   7.346  21.147  0.00  0.00    +0.017 C 
ATOM     12  C   UNL     1      10.993   8.681  20.434  0.00  0.00    +0.085 C 
BRANCH   5  13
ATOM     13  C   UNL     1      12.789  10.048  19.554  0.00  0.00    +0.127 C 
BRANCH  13  15
ATOM      1  S   UNL     1      12.432   9.082  16.970  0.00  0.00    -0.100 S 
ATOM     15  C   UNL     1      13.257  10.044  18.122  0.00  0.00    +0.004 A 
ATOM     16  C   UNL     1      14.310  10.734  17.562  0.00  0.00    +0.012 A 
ATOM     18  C   UNL     1      14.440  10.471  16.168  0.00  0.00    +0.008 A 
ATOM     20  C   UNL     1      13.482   9.590  15.716  0.00  0.00    +0.045 A 
ENDBRANCH  13  15
ENDBRANCH   5  13
ENDBRANCH  14   9
TORSDOF 8
ENDMDL
MODEL 3
REMARK VINA RESULT:      -6.2      6.006      7.903
REMARK  Name = 45783564
REMARK  9 active torsions:
REMARK  status: ('A' for Active; 'I' for Inactive)
REMARK    1  A    between atoms: O_3  and  C_24
REMARK    2  A    between atoms: O_3  and  C_25
REMARK    3  A    between atoms: O_4  and  C_26
REMARK    4  A    between atoms: O_4  and  C_27
REMARK    5  A    between atoms: N_5  and  C_13
REMARK    6  A    between atoms: C_9  and  C_14
REMARK    7  A    between atoms: C_13  and  C_15
REMARK    8  A    between atoms: C_17  and  C_19
REMARK    9  A    between atoms: C_25  and  C_26
REMARK                            x       y       z     vdW  Elec       q    Type
REMARK                         _______ _______ _______ _____ _____    ______ ____
ROOT
ATOM      2  O   UNL     1      12.367   7.122  18.637  0.00  0.00    -0.336 OA
ATOM      6  N   UNL     1      13.579   8.957  19.061  0.00  0.00    -0.190 NA
ATOM      7  N   UNL     1      12.833   7.575  17.397  0.00  0.00    -0.056 NA
ATOM     14  C   UNL     1      12.851   7.992  19.562  0.00  0.00    +0.245 A 
ATOM     17  C   UNL     1      13.540   8.660  17.729  0.00  0.00    +0.204 A 
ENDROOT
BRANCH  17  19
ATOM      8  N   UNL     1      15.049   9.728  14.502  0.00  0.00    -0.221 NA
ATOM     19  C   UNL     1      14.216   9.469  16.757  0.00  0.00    +0.041 A 
ATOM     21  C   UNL     1      14.689  10.735  17.084  0.00  0.00    +0.018 A 
ATOM     22  C   UNL     1      14.420   9.016  15.464  0.00  0.00    +0.126 A 
ATOM     23  C   UNL     1      15.341  11.498  16.122  0.00  0.00    +0.068 A 
ATOM     24  C   UNL     1      15.494  10.954  14.857  0.00  0.00    +0.215 A 
BRANCH  24   3
ATOM      3  O   UNL     1      16.134  11.686  13.891  0.00  0.00    -0.474 OA
BRANCH   3  25
ATOM     25  C   UNL     1      15.548  11.686  12.595  0.00  0.00    +0.258 C 
BRANCH  25  26
ATOM     26  C   UNL     1      14.363  12.632  12.588  0.00  0.00    +0.200 C 
BRANCH  26   4
ATOM      4  O   UNL     1      13.192  11.906  12.232  0.00  0.00    -0.380 OA
ATOM     27  C   UNL     1      12.054  12.375  12.941  0.00  0.00    +0.194 C 
ENDBRANCH  26   4
ENDBRANCH  25  26
ENDBRANCH   3  25
ENDBRANCH  24   3
ENDBRANCH  17  19
BRANCH  14   9
ATOM      5  N   UNL     1      11.769   8.843  21.635  0.00  0.00    -0.287 NA
ATOM      9  C   UNL     1      12.484   7.716  21.005  0.00  0.00    +0.146 C 
ATOM     10  C   UNL     1      11.533   6.515  21.157  0.00  0.00    +0.030 C 
ATOM     11  C   UNL     1      10.340   7.049  21.936  0.00  0.00    +0.017 C 
ATOM     12  C   UNL     1      10.897   8.261  22.654  0.00  0.00    +0.085 C 
BRANCH   5  13
ATOM     13  C   UNL     1      12.662   9.853  22.188  0.00  0.00    +0.127 C 
BRANCH  13  15
ATOM      1  S   UNL     1      11.740  11.648  24.102  0.00  0.00    -0.100 S 
ATOM     15  C   UNL     1      11.940  11.142  22.478  0.00  0.00    +0.004 A 
ATOM     16  C   UNL     1      11.382  12.031  21.586  0.00  0.00    +0.012 A 
ATOM     18  C   UNL     1      10.781  13.143  22.245  0.00  0.00    +0.008 A 
ATOM     20  C   UNL     1      10.904  13.061  23.614  0.00  0.00    +0.045 A 
ENDBRANCH  13  15
ENDBRANCH   5  13
ENDBRANCH  14   9
TORSDOF 8
ENDMDL
MODEL 4
REMARK VINA RESULT:      -6.1     29.459     32.994
REMARK  Name = 45783564
REMARK  9 active torsions:
REMARK  status: ('A' for Active; 'I' for Inactive)
REMARK    1  A    between atoms: O_3  and  C_24
REMARK    2  A    between atoms: O_3  and  C_25
REMARK    3  A    between atoms: O_4  and  C_26
REMARK    4  A    between atoms: O_4  and  C_27
REMARK    5  A    between atoms: N_5  and  C_13
REMARK    6  A    between atoms: C_9  and  C_14
REMARK    7  A    between atoms: C_13  and  C_15
REMARK    8  A    between atoms: C_17  and  C_19
REMARK    9  A    between atoms: C_25  and  C_26
REMARK                            x       y       z     vdW  Elec       q    Type
REMARK                         _______ _______ _______ _____ _____    ______ ____
ROOT
ATOM      2  O   UNL     1     -17.118   3.122  21.925  0.00  0.00    -0.336 OA
ATOM      6  N   UNL     1     -16.919   4.205  23.876  0.00  0.00    -0.190 NA
ATOM      7  N   UNL     1     -17.087   2.134  22.917  0.00  0.00    -0.056 NA
ATOM     14  C   UNL     1     -17.014   4.312  22.575  0.00  0.00    +0.245 A 
ATOM     17  C   UNL     1     -16.968   2.851  24.039  0.00  0.00    +0.204 A 
ENDROOT
BRANCH  17  19
ATOM      8  N   UNL     1     -17.336   0.340  26.758  0.00  0.00    -0.221 NA
ATOM     19  C   UNL     1     -16.893   2.245  25.338  0.00  0.00    +0.041 A 
ATOM     21  C   UNL     1     -16.334   2.927  26.414  0.00  0.00    +0.018 A 
ATOM     22  C   UNL     1     -17.376   0.966  25.561  0.00  0.00    +0.126 A 
ATOM     23  C   UNL     1     -16.275   2.316  27.661  0.00  0.00    +0.068 A 
ATOM     24  C   UNL     1     -16.785   1.033  27.780  0.00  0.00    +0.215 A 
BRANCH  24   3
ATOM      3  O   UNL     1     -16.739   0.410  28.999  0.00  0.00    -0.474 OA
BRANCH   3  25
ATOM     25  C   UNL     1     -15.840   0.949  29.961  0.00  0.00    +0.258 C 
BRANCH  25  26
ATOM     26  C   UNL     1     -14.739  -0.058  30.228  0.00  0.00    +0.200 C 
BRANCH  26   4
ATOM      4  O   UNL     1     -13.504   0.632  30.375  0.00  0.00    -0.380 OA
ATOM     27  C   UNL     1     -13.696   2.039  30.410  0.00  0.00    +0.194 C 
ENDBRANCH  26   4
ENDBRANCH  25  26
ENDBRANCH   3  25
ENDBRANCH  24   3
ENDBRANCH  17  19
BRANCH  14   9
ATOM      5  N   UNL     1     -15.688   5.898  21.191  0.00  0.00    -0.287 NA
ATOM      9  C   UNL     1     -17.025   5.555  21.712  0.00  0.00    +0.146 C 
ATOM     10  C   UNL     1     -17.906   5.402  20.459  0.00  0.00    +0.030 C 
ATOM     11  C   UNL     1     -16.993   5.734  19.288  0.00  0.00    +0.017 C 
ATOM     12  C   UNL     1     -15.903   6.580  19.915  0.00  0.00    +0.085 C 
BRANCH   5  13
ATOM     13  C   UNL     1     -14.898   6.701  22.116  0.00  0.00    +0.127 C 
BRANCH  13  15
ATOM      1  S   UNL     1     -13.410   8.865  21.202  0.00  0.00    -0.100 S 
ATOM     15  C   UNL     1     -13.621   7.190  21.486  0.00  0.00    +0.004 A 
ATOM     16  C   UNL     1     -12.531   6.454  21.076  0.00  0.00    +0.012 A 
ATOM     18  C   UNL     1     -11.508   7.276  20.523  0.00  0.00    +0.008 A 
ATOM     20  C   UNL     1     -11.855   8.609  20.531  0.00  0.00    +0.045 A 
ENDBRANCH  13  15
ENDBRANCH   5  13
ENDBRANCH  14   9
TORSDOF 8
ENDMDL
MODEL 5
REMARK VINA RESULT:      -6.0     26.639     30.332
REMARK  Name = 45783564
REMARK  9 active torsions:
REMARK  status: ('A' for Active; 'I' for Inactive)
REMARK    1  A    between atoms: O_3  and  C_24
REMARK    2  A    between atoms: O_3  and  C_25
REMARK    3  A    between atoms: O_4  and  C_26
REMARK    4  A    between atoms: O_4  and  C_27
REMARK    5  A    between atoms: N_5  and  C_13
REMARK    6  A    between atoms: C_9  and  C_14
REMARK    7  A    between atoms: C_13  and  C_15
REMARK    8  A    between atoms: C_17  and  C_19
REMARK    9  A    between atoms: C_25  and  C_26
REMARK                            x       y       z     vdW  Elec       q    Type
REMARK                         _______ _______ _______ _____ _____    ______ ____
ROOT
ATOM      2  O   UNL     1      -5.042 -10.803  17.390  0.00  0.00    -0.336 OA
ATOM      6  N   UNL     1      -5.907 -10.033  15.472  0.00  0.00    -0.190 NA
ATOM      7  N   UNL     1      -6.307 -10.294  17.710  0.00  0.00    -0.056 NA
ATOM     14  C   UNL     1      -4.886 -10.610  16.053  0.00  0.00    +0.245 A 
ATOM     17  C   UNL     1      -6.754  -9.859  16.528  0.00  0.00    +0.204 A 
ENDROOT
BRANCH  17  19
ATOM      8  N   UNL     1      -9.911  -8.710  14.933  0.00  0.00    -0.221 NA
ATOM     19  C   UNL     1      -8.040  -9.243  16.367  0.00  0.00    +0.041 A 
ATOM     21  C   UNL     1      -8.663  -8.599  17.431  0.00  0.00    +0.018 A 
ATOM     22  C   UNL     1      -8.700  -9.270  15.150  0.00  0.00    +0.126 A 
ATOM     23  C   UNL     1      -9.908  -8.011  17.247  0.00  0.00    +0.068 A 
ATOM     24  C   UNL     1     -10.486  -8.093  15.990  0.00  0.00    +0.215 A 
BRANCH  24   3
ATOM      3  O   UNL     1     -11.713  -7.521  15.783  0.00  0.00    -0.474 OA
BRANCH   3  25
ATOM     25  C   UNL     1     -11.755  -6.100  15.723  0.00  0.00    +0.258 C 
BRANCH  25  26
ATOM     26  C   UNL     1     -11.914  -5.670  14.278  0.00  0.00    +0.200 C 
BRANCH  26   4
ATOM      4  O   UNL     1     -13.127  -4.939  14.142  0.00  0.00    -0.380 OA
ATOM     27  C   UNL     1     -14.188  -5.772  13.695  0.00  0.00    +0.194 C 
ENDBRANCH  26   4
ENDBRANCH  25  26
ENDBRANCH   3  25
ENDBRANCH  24   3
ENDBRANCH  17  19
BRANCH  14   9
ATOM      5  N   UNL     1      -3.290 -10.447  14.151  0.00  0.00    -0.287 NA
ATOM      9  C   UNL     1      -3.580 -11.083  15.451  0.00  0.00    +0.146 C 
ATOM     10  C   UNL     1      -2.362 -10.748  16.332  0.00  0.00    +0.030 C 
ATOM     11  C   UNL     1      -1.417  -9.973  15.425  0.00  0.00    +0.017 C 
ATOM     12  C   UNL     1      -1.833 -10.399  14.031  0.00  0.00    +0.085 C 
BRANCH   5  13
ATOM     13  C   UNL     1      -3.910 -11.133  13.025  0.00  0.00    +0.127 C 
BRANCH  13  15
ATOM      1  S   UNL     1      -5.456  -9.240  11.699  0.00  0.00    -0.100 S 
ATOM     15  C   UNL     1      -4.064 -10.227  11.832  0.00  0.00    +0.004 A 
ATOM     16  C   UNL     1      -3.206 -10.060  10.767  0.00  0.00    +0.012 A 
ATOM     18  C   UNL     1      -3.699  -9.107   9.829  0.00  0.00    +0.008 A 
ATOM     20  C   UNL     1      -4.913  -8.583  10.213  0.00  0.00    +0.045 A 
ENDBRANCH  13  15
ENDBRANCH   5  13
ENDBRANCH  14   9
TORSDOF 8
ENDMDL
MODEL 6
REMARK VINA RESULT:      -5.9     26.768     29.515
REMARK  Name = 45783564
REMARK  9 active torsions:
REMARK  status: ('A' for Active; 'I' for Inactive)
REMARK    1  A    between atoms: O_3  and  C_24
REMARK    2  A    between atoms: O_3  and  C_25
REMARK    3  A    between atoms: O_4  and  C_26
REMARK    4  A    between atoms: O_4  and  C_27
REMARK    5  A    between atoms: N_5  and  C_13
REMARK    6  A    between atoms: C_9  and  C_14
REMARK    7  A    between atoms: C_13  and  C_15
REMARK    8  A    between atoms: C_17  and  C_19
REMARK    9  A    between atoms: C_25  and  C_26
REMARK                            x       y       z     vdW  Elec       q    Type
REMARK                         _______ _______ _______ _____ _____    ______ ____
ROOT
ATOM      2  O   UNL     1      -1.815 -10.529  14.421  0.00  0.00    -0.336 OA
ATOM      6  N   UNL     1      -4.019 -10.914  14.321  0.00  0.00    -0.190 NA
ATOM      7  N   UNL     1      -2.263 -10.570  15.747  0.00  0.00    -0.056 NA
ATOM     14  C   UNL     1      -2.911 -10.740  13.646  0.00  0.00    +0.245 A 
ATOM     17  C   UNL     1      -3.572 -10.801  15.606  0.00  0.00    +0.204 A 
ENDROOT
BRANCH  17  19
ATOM      8  N   UNL     1      -6.570 -10.354  17.761  0.00  0.00    -0.221 NA
ATOM     19  C   UNL     1      -4.460 -10.922  16.726  0.00  0.00    +0.041 A 
ATOM     21  C   UNL     1      -4.114 -11.688  17.834  0.00  0.00    +0.018 A 
ATOM     22  C   UNL     1      -5.688 -10.281  16.739  0.00  0.00    +0.126 A 
ATOM     23  C   UNL     1      -4.995 -11.787  18.905  0.00  0.00    +0.068 A 
ATOM     24  C   UNL     1      -6.199 -11.108  18.821  0.00  0.00    +0.215 A 
BRANCH  24   3
ATOM      3  O   UNL     1      -7.084 -11.189  19.864  0.00  0.00    -0.474 OA
BRANCH   3  25
ATOM     25  C   UNL     1      -7.816 -12.402  19.990  0.00  0.00    +0.258 C 
BRANCH  25  26
ATOM     26  C   UNL     1      -9.298 -12.096  19.917  0.00  0.00    +0.200 C 
BRANCH  26   4
ATOM      4  O   UNL     1      -9.497 -10.706  20.147  0.00  0.00    -0.380 OA
ATOM     27  C   UNL     1     -10.878 -10.373  20.159  0.00  0.00    +0.194 C 
ENDBRANCH  26   4
ENDBRANCH  25  26
ENDBRANCH   3  25
ENDBRANCH  24   3
ENDBRANCH  17  19
BRANCH  14   9
ATOM      5  N   UNL     1      -3.773 -10.068  11.411  0.00  0.00    -0.287 NA
ATOM      9  C   UNL     1      -2.688 -10.744  12.149  0.00  0.00    +0.146 C 
ATOM     10  C   UNL     1      -1.408  -9.996  11.736  0.00  0.00    +0.030 C 
ATOM     11  C   UNL     1      -1.864  -8.958  10.721  0.00  0.00    +0.017 C 
ATOM     12  C   UNL     1      -3.169  -9.522  10.196  0.00  0.00    +0.085 C 
BRANCH   5  13
ATOM     13  C   UNL     1      -4.901 -10.943  11.118  0.00  0.00    +0.127 C 
BRANCH  13  15
ATOM      1  S   UNL     1      -6.531 -10.680   8.880  0.00  0.00    -0.100 S 
ATOM     15  C   UNL     1      -6.026 -10.202  10.444  0.00  0.00    +0.004 A 
ATOM     16  C   UNL     1      -6.754  -9.134  10.920  0.00  0.00    +0.012 A 
ATOM     18  C   UNL     1      -7.742  -8.703   9.988  0.00  0.00    +0.008 A 
ATOM     20  C   UNL     1      -7.730  -9.457   8.836  0.00  0.00    +0.045 A 
ENDBRANCH  13  15
ENDBRANCH   5  13
ENDBRANCH  14   9
TORSDOF 8
ENDMDL
MODEL 7
REMARK VINA RESULT:      -5.8      4.352      7.308
REMARK  Name = 45783564
REMARK  9 active torsions:
REMARK  status: ('A' for Active; 'I' for Inactive)
REMARK    1  A    between atoms: O_3  and  C_24
REMARK    2  A    between atoms: O_3  and  C_25
REMARK    3  A    between atoms: O_4  and  C_26
REMARK    4  A    between atoms: O_4  and  C_27
REMARK    5  A    between atoms: N_5  and  C_13
REMARK    6  A    between atoms: C_9  and  C_14
REMARK    7  A    between atoms: C_13  and  C_15
REMARK    8  A    between atoms: C_17  and  C_19
REMARK    9  A    between atoms: C_25  and  C_26
REMARK                            x       y       z     vdW  Elec       q    Type
REMARK                         _______ _______ _______ _____ _____    ______ ____
ROOT
ATOM      2  O   UNL     1      12.520   8.063  16.708  0.00  0.00    -0.336 OA
ATOM      6  N   UNL     1      13.794   9.471  17.896  0.00  0.00    -0.190 NA
ATOM      7  N   UNL     1      13.242   8.817  15.774  0.00  0.00    -0.056 NA
ATOM     14  C   UNL     1      12.905   8.512  17.932  0.00  0.00    +0.245 A 
ATOM     17  C   UNL     1      13.970   9.624  16.551  0.00  0.00    +0.204 A 
ENDROOT
BRANCH  17  19
ATOM      8  N   UNL     1      16.174  11.402  14.141  0.00  0.00    -0.221 NA
ATOM     19  C   UNL     1      14.880  10.596  16.016  0.00  0.00    +0.041 A 
ATOM     21  C   UNL     1      15.351  11.643  16.801  0.00  0.00    +0.018 A 
ATOM     22  C   UNL     1      15.319  10.521  14.705  0.00  0.00    +0.126 A 
ATOM     23  C   UNL     1      16.232  12.570  16.257  0.00  0.00    +0.068 A 
ATOM     24  C   UNL     1      16.610  12.408  14.934  0.00  0.00    +0.215 A 
BRANCH  24   3
ATOM      3  O   UNL     1      17.479  13.307  14.374  0.00  0.00    -0.474 OA
BRANCH   3  25
ATOM     25  C   UNL     1      18.191  12.877  13.221  0.00  0.00    +0.258 C 
BRANCH  25  26
ATOM     26  C   UNL     1      19.675  12.877  13.527  0.00  0.00    +0.200 C 
BRANCH  26   4
ATOM      4  O   UNL     1      19.955  11.846  14.467  0.00  0.00    -0.380 OA
ATOM     27  C   UNL     1      20.578  10.730  13.846  0.00  0.00    +0.194 C 
ENDBRANCH  26   4
ENDBRANCH  25  26
ENDBRANCH   3  25
ENDBRANCH  24   3
ENDBRANCH  17  19
BRANCH  14   9
ATOM      5  N   UNL     1      13.142   7.825  20.312  0.00  0.00    -0.287 NA
ATOM      9  C   UNL     1      12.260   7.845  19.129  0.00  0.00    +0.146 C 
ATOM     10  C   UNL     1      10.988   8.573  19.602  0.00  0.00    +0.030 C 
ATOM     11  C   UNL     1      11.224   8.870  21.075  0.00  0.00    +0.017 C 
ATOM     12  C   UNL     1      12.265   7.846  21.482  0.00  0.00    +0.085 C 
BRANCH   5  13
ATOM     13  C   UNL     1      14.053   6.687  20.330  0.00  0.00    +0.127 C 
BRANCH  13  15
ATOM      1  S   UNL     1      15.805   8.568  21.391  0.00  0.00    -0.100 S 
ATOM     15  C   UNL     1      15.481   7.114  20.547  0.00  0.00    +0.004 A 
ATOM     16  C   UNL     1      16.636   6.479  20.146  0.00  0.00    +0.012 A 
ATOM     18  C   UNL     1      17.803   7.196  20.539  0.00  0.00    +0.008 A 
ATOM     20  C   UNL     1      17.495   8.350  21.224  0.00  0.00    +0.045 A 
ENDBRANCH  13  15
ENDBRANCH   5  13
ENDBRANCH  14   9
TORSDOF 8
ENDMDL
MODEL 8
REMARK VINA RESULT:      -5.7      3.769     10.574
REMARK  Name = 45783564
REMARK  9 active torsions:
REMARK  status: ('A' for Active; 'I' for Inactive)
REMARK    1  A    between atoms: O_3  and  C_24
REMARK    2  A    between atoms: O_3  and  C_25
REMARK    3  A    between atoms: O_4  and  C_26
REMARK    4  A    between atoms: O_4  and  C_27
REMARK    5  A    between atoms: N_5  and  C_13
REMARK    6  A    between atoms: C_9  and  C_14
REMARK    7  A    between atoms: C_13  and  C_15
REMARK    8  A    between atoms: C_17  and  C_19
REMARK    9  A    between atoms: C_25  and  C_26
REMARK                            x       y       z     vdW  Elec       q    Type
REMARK                         _______ _______ _______ _____ _____    ______ ____
ROOT
ATOM      2  O   UNL     1      21.526   4.843  20.443  0.00  0.00    -0.336 OA
ATOM      6  N   UNL     1      20.495   6.726  21.084  0.00  0.00    -0.190 NA
ATOM      7  N   UNL     1      20.180   4.689  20.090  0.00  0.00    -0.056 NA
ATOM     14  C   UNL     1      21.626   6.068  21.022  0.00  0.00    +0.245 A 
ATOM     17  C   UNL     1      19.637   5.839  20.499  0.00  0.00    +0.204 A 
ENDROOT
BRANCH  17  19
ATOM      8  N   UNL     1      16.185   6.967  21.303  0.00  0.00    -0.221 NA
ATOM     19  C   UNL     1      18.242   6.134  20.343  0.00  0.00    +0.041 A 
ATOM     21  C   UNL     1      17.590   5.892  19.138  0.00  0.00    +0.018 A 
ATOM     22  C   UNL     1      17.501   6.667  21.385  0.00  0.00    +0.126 A 
ATOM     23  C   UNL     1      16.238   6.188  19.015  0.00  0.00    +0.068 A 
ATOM     24  C   UNL     1      15.586   6.719  20.116  0.00  0.00    +0.215 A 
BRANCH  24   3
ATOM      3  O   UNL     1      14.252   7.018  20.020  0.00  0.00    -0.474 OA
BRANCH   3  25
ATOM     25  C   UNL     1      13.795   7.510  18.766  0.00  0.00    +0.258 C 
BRANCH  25  26
ATOM     26  C   UNL     1      12.291   7.692  18.825  0.00  0.00    +0.200 C 
BRANCH  26   4
ATOM      4  O   UNL     1      11.979   8.662  19.818  0.00  0.00    -0.380 OA
ATOM     27  C   UNL     1      10.882   8.250  20.621  0.00  0.00    +0.194 C 
ENDBRANCH  26   4
ENDBRANCH  25  26
ENDBRANCH   3  25
ENDBRANCH  24   3
ENDBRANCH  17  19
BRANCH  14   9
ATOM      5  N   UNL     1      23.971   5.367  21.469  0.00  0.00    -0.287 NA
ATOM      9  C   UNL     1      23.003   6.480  21.498  0.00  0.00    +0.146 C 
ATOM     10  C   UNL     1      23.635   7.572  20.615  0.00  0.00    +0.030 C 
ATOM     11  C   UNL     1      24.980   7.005  20.184  0.00  0.00    +0.017 C 
ATOM     12  C   UNL     1      25.286   5.967  21.246  0.00  0.00    +0.085 C 
BRANCH   5  13
ATOM     13  C   UNL     1      23.940   4.546  22.673  0.00  0.00    +0.127 C 
BRANCH  13  15
ATOM      1  S   UNL     1      25.350   2.266  23.410  0.00  0.00    -0.100 S 
ATOM     15  C   UNL     1      24.271   3.107  22.381  0.00  0.00    +0.004 A 
ATOM     16  C   UNL     1      23.813   2.314  21.351  0.00  0.00    +0.012 A 
ATOM     18  C   UNL     1      24.356   0.998  21.408  0.00  0.00    +0.008 A 
ATOM     20  C   UNL     1      25.206   0.835  22.479  0.00  0.00    +0.045 A 
ENDBRANCH  13  15
ENDBRANCH   5  13
ENDBRANCH  14   9
TORSDOF 8
ENDMDL
MODEL 9
REMARK VINA RESULT:      -5.7      3.994     10.822
REMARK  Name = 45783564
REMARK  9 active torsions:
REMARK  status: ('A' for Active; 'I' for Inactive)
REMARK    1  A    between atoms: O_3  and  C_24
REMARK    2  A    between atoms: O_3  and  C_25
REMARK    3  A    between atoms: O_4  and  C_26
REMARK    4  A    between atoms: O_4  and  C_27
REMARK    5  A    between atoms: N_5  and  C_13
REMARK    6  A    between atoms: C_9  and  C_14
REMARK    7  A    between atoms: C_13  and  C_15
REMARK    8  A    between atoms: C_17  and  C_19
REMARK    9  A    between atoms: C_25  and  C_26
REMARK                            x       y       z     vdW  Elec       q    Type
REMARK                         _______ _______ _______ _____ _____    ______ ____
ROOT
ATOM      2  O   UNL     1      21.953   6.014  21.096  0.00  0.00    -0.336 OA
ATOM      6  N   UNL     1      20.340   4.524  20.654  0.00  0.00    -0.190 NA
ATOM      7  N   UNL     1      20.802   6.760  20.812  0.00  0.00    -0.056 NA
ATOM     14  C   UNL     1      21.594   4.708  20.981  0.00  0.00    +0.245 A 
ATOM     17  C   UNL     1      19.895   5.811  20.561  0.00  0.00    +0.204 A 
ENDROOT
BRANCH  17  19
ATOM      8  N   UNL     1      16.677   5.820  18.696  0.00  0.00    -0.221 NA
ATOM     19  C   UNL     1      18.536   6.115  20.213  0.00  0.00    +0.041 A 
ATOM     21  C   UNL     1      17.767   6.962  21.003  0.00  0.00    +0.018 A 
ATOM     22  C   UNL     1      17.950   5.575  19.080  0.00  0.00    +0.126 A 
ATOM     23  C   UNL     1      16.454   7.238  20.642  0.00  0.00    +0.068 A 
ATOM     24  C   UNL     1      15.960   6.648  19.490  0.00  0.00    +0.215 A 
BRANCH  24   3
ATOM      3  O   UNL     1      14.668   6.906  19.112  0.00  0.00    -0.474 OA
BRANCH   3  25
ATOM     25  C   UNL     1      13.683   6.878  20.137  0.00  0.00    +0.258 C 
BRANCH  25  26
ATOM     26  C   UNL     1      12.560   7.827  19.770  0.00  0.00    +0.200 C 
BRANCH  26   4
ATOM      4  O   UNL     1      11.927   7.361  18.584  0.00  0.00    -0.380 OA
ATOM     27  C   UNL     1      11.718   8.417  17.657  0.00  0.00    +0.194 C 
ENDBRANCH  26   4
ENDBRANCH  25  26
ENDBRANCH   3  25
ENDBRANCH  24   3
ENDBRANCH  17  19
BRANCH  14   9
ATOM      5  N   UNL     1      24.035   4.253  21.137  0.00  0.00    -0.287 NA
ATOM      9  C   UNL     1      22.678   3.685  21.245  0.00  0.00    +0.146 C 
ATOM     10  C   UNL     1      22.610   3.100  22.668  0.00  0.00    +0.030 C 
ATOM     11  C   UNL     1      23.992   3.335  23.260  0.00  0.00    +0.017 C 
ATOM     12  C   UNL     1      24.882   3.476  22.041  0.00  0.00    +0.085 C 
BRANCH   5  13
ATOM     13  C   UNL     1      24.549   4.258  19.773  0.00  0.00    +0.127 C 
BRANCH  13  15
ATOM      1  S   UNL     1      27.052   4.926  18.760  0.00  0.00    -0.100 S 
ATOM     15  C   UNL     1      25.597   5.321  19.572  0.00  0.00    +0.004 A 
ATOM     16  C   UNL     1      25.565   6.641  19.964  0.00  0.00    +0.012 A 
ATOM     18  C   UNL     1      26.751   7.339  19.593  0.00  0.00    +0.008 A 
ATOM     20  C   UNL     1      27.643   6.525  18.931  0.00  0.00    +0.045 A 
ENDBRANCH  13  15
ENDBRANCH   5  13
ENDBRANCH  14   9
TORSDOF 8
ENDMDL
MODEL 10
REMARK VINA RESULT:      -5.7     16.805     20.494
REMARK  Name = 45783564
REMARK  9 active torsions:
REMARK  status: ('A' for Active; 'I' for Inactive)
REMARK    1  A    between atoms: O_3  and  C_24
REMARK    2  A    between atoms: O_3  and  C_25
REMARK    3  A    between atoms: O_4  and  C_26
REMARK    4  A    between atoms: O_4  and  C_27
REMARK    5  A    between atoms: N_5  and  C_13
REMARK    6  A    between atoms: C_9  and  C_14
REMARK    7  A    between atoms: C_13  and  C_15
REMARK    8  A    between atoms: C_17  and  C_19
REMARK    9  A    between atoms: C_25  and  C_26
REMARK                            x       y       z     vdW  Elec       q    Type
REMARK                         _______ _______ _______ _____ _____    ______ ____
ROOT
ATOM      2  O   UNL     1      11.159   6.995  -0.803  0.00  0.00    -0.336 OA
ATOM      6  N   UNL     1      10.419   5.150   0.229  0.00  0.00    -0.190 NA
ATOM      7  N   UNL     1      10.937   7.357   0.532  0.00  0.00    -0.056 NA
ATOM     14  C   UNL     1      10.829   5.680  -0.895  0.00  0.00    +0.245 A 
ATOM     17  C   UNL     1      10.502   6.217   1.075  0.00  0.00    +0.204 A 
ENDROOT
BRANCH  17  19
ATOM      8  N   UNL     1       8.905   6.982   4.346  0.00  0.00    -0.221 NA
ATOM     19  C   UNL     1      10.139   6.110   2.459  0.00  0.00    +0.041 A 
ATOM     21  C   UNL     1      10.637   5.081   3.252  0.00  0.00    +0.018 A 
ATOM     22  C   UNL     1       9.285   7.026   3.049  0.00  0.00    +0.126 A 
ATOM     23  C   UNL     1      10.269   5.002   4.590  0.00  0.00    +0.068 A 
ATOM     24  C   UNL     1       9.408   5.968   5.085  0.00  0.00    +0.215 A 
BRANCH  24   3
ATOM      3  O   UNL     1       9.031   5.912   6.401  0.00  0.00    -0.474 OA
BRANCH   3  25
ATOM     25  C   UNL     1       9.759   5.022   7.238  0.00  0.00    +0.258 C 
BRANCH  25  26
ATOM     26  C   UNL     1      10.453   5.820   8.325  0.00  0.00    +0.200 C 
BRANCH  26   4
ATOM      4  O   UNL     1      10.446   5.065   9.531  0.00  0.00    -0.380 OA
ATOM     27  C   UNL     1       9.134   4.639   9.870  0.00  0.00    +0.194 C 
ENDBRANCH  26   4
ENDBRANCH  25  26
ENDBRANCH   3  25
ENDBRANCH  24   3
ENDBRANCH  17  19
BRANCH  14   9
ATOM      5  N   UNL     1      11.584   3.692  -2.188  0.00  0.00    -0.287 NA
ATOM      9  C   UNL     1      10.986   5.039  -2.258  0.00  0.00    +0.146 C 
ATOM     10  C   UNL     1       9.640   4.833  -2.977  0.00  0.00    +0.030 C 
ATOM     11  C   UNL     1       9.597   3.352  -3.323  0.00  0.00    +0.017 C 
ATOM     12  C   UNL     1      11.056   2.945  -3.330  0.00  0.00    +0.085 C 
BRANCH   5  13
ATOM     13  C   UNL     1      13.041   3.709  -2.169  0.00  0.00    +0.127 C 
BRANCH  13  15
ATOM      1  S   UNL     1      14.952   4.724  -0.422  0.00  0.00    -0.100 S 
ATOM     15  C   UNL     1      13.584   3.753  -0.765  0.00  0.00    +0.004 A 
ATOM     16  C   UNL     1      13.124   3.091   0.352  0.00  0.00    +0.012 A 
ATOM     18  C   UNL     1      13.905   3.387   1.507  0.00  0.00    +0.008 A 
ATOM     20  C   UNL     1      14.931   4.262   1.228  0.00  0.00    +0.045 A 
ENDBRANCH  13  15
ENDBRANCH   5  13
ENDBRANCH  14   9
TORSDOF 8
ENDMDL
