MODEL 1
REMARK VINA RESULT:      -7.6      0.000      0.000
REMARK  Name = 51137309
REMARK  4 active torsions:
REMARK  status: ('A' for Active; 'I' for Inactive)
REMARK    1  A    between atoms: N_4  and  C_12
REMARK    2  A    between atoms: C_8  and  C_13
REMARK    3  A    between atoms: C_12  and  C_14
REMARK    4  A    between atoms: C_17  and  C_21
REMARK                            x       y       z     vdW  Elec       q    Type
REMARK                         _______ _______ _______ _____ _____    ______ ____
ROOT
ATOM      4  N   UNL     1      16.789   6.730  20.181  0.00  0.00    -0.297 NA
ATOM      8  C   UNL     1      18.879   6.412  21.196  0.00  0.00    +0.092 C 
ATOM      9  C   UNL     1      18.013   5.944  20.018  0.00  0.00    +0.097 C 
ATOM     10  C   UNL     1      18.354   7.819  21.530  0.00  0.00    +0.029 C 
ATOM     11  C   UNL     1      17.249   8.079  20.514  0.00  0.00    +0.085 C 
ENDROOT
BRANCH   8  13
ATOM      1  O   UNL     1      20.932   5.104  20.926  0.00  0.00    -0.420 OA
ATOM      5  N   UNL     1      21.205   7.304  20.620  0.00  0.00    -0.112 NA
ATOM      6  N   UNL     1      22.431   6.692  20.440  0.00  0.00    -0.107 NA
ATOM     13  C   UNL     1      20.360   6.339  20.903  0.00  0.00    +0.222 A 
ATOM     17  C   UNL     1      22.225   5.410  20.628  0.00  0.00    +0.248 A 
BRANCH  17  21
ATOM      7  N   UNL     1      24.904   2.142  20.449  0.00  0.00    -0.263 NA
ATOM     21  C   UNL     1      23.133   4.302  20.568  0.00  0.00    +0.041 A 
ATOM     23  C   UNL     1      22.799   3.091  21.163  0.00  0.00    +0.033 A 
ATOM     24  C   UNL     1      24.353   4.434  19.913  0.00  0.00    +0.033 A 
ATOM     25  C   UNL     1      23.710   2.051  21.076  0.00  0.00    +0.111 A 
ATOM     26  C   UNL     1      25.195   3.335  19.882  0.00  0.00    +0.111 A 
ENDBRANCH  17  21
ENDBRANCH   8  13
BRANCH   4  12
ATOM     12  C   UNL     1      15.953   6.708  18.991  0.00  0.00    +0.119 C 
BRANCH  12  14
ATOM      2  O   UNL     1      11.870   6.758  21.789  0.00  0.00    -0.453 OA
ATOM      3  O   UNL     1      10.679   8.163  20.236  0.00  0.00    -0.453 OA
ATOM     14  C   UNL     1      14.536   7.117  19.292  0.00  0.00    -0.030 A 
ATOM     15  C   UNL     1      13.923   6.680  20.470  0.00  0.00    +0.054 A 
ATOM     16  C   UNL     1      13.840   7.937  18.385  0.00  0.00    +0.009 A 
ATOM     18  C   UNL     1      12.624   7.083  20.703  0.00  0.00    +0.167 A 
ATOM     19  C   UNL     1      12.526   8.330  18.646  0.00  0.00    +0.050 A 
ATOM     20  C   UNL     1      11.944   7.886  19.816  0.00  0.00    +0.166 A 
ATOM     22  C   UNL     1      10.640   7.446  21.485  0.00  0.00    +0.466 C 
ENDBRANCH  12  14
ENDBRANCH   4  12
TORSDOF 4
ENDMDL
MODEL 2
REMARK VINA RESULT:      -7.3      1.836      2.664
REMARK  Name = 51137309
REMARK  4 active torsions:
REMARK  status: ('A' for Active; 'I' for Inactive)
REMARK    1  A    between atoms: N_4  and  C_12
REMARK    2  A    between atoms: C_8  and  C_13
REMARK    3  A    between atoms: C_12  and  C_14
REMARK    4  A    between atoms: C_17  and  C_21
REMARK                            x       y       z     vdW  Elec       q    Type
REMARK                         _______ _______ _______ _____ _____    ______ ____
ROOT
ATOM      4  N   UNL     1      17.122   7.605  20.553  0.00  0.00    -0.297 NA
ATOM      8  C   UNL     1      19.317   6.820  20.811  0.00  0.00    +0.092 C 
ATOM      9  C   UNL     1      18.227   7.642  21.513  0.00  0.00    +0.097 C 
ATOM     10  C   UNL     1      18.549   5.895  19.851  0.00  0.00    +0.029 C 
ATOM     11  C   UNL     1      17.079   6.220  20.081  0.00  0.00    +0.085 C 
ENDROOT
BRANCH   8  13
ATOM      1  O   UNL     1      20.939   5.051  21.296  0.00  0.00    -0.420 OA
ATOM      5  N   UNL     1      20.468   6.361  23.047  0.00  0.00    -0.112 NA
ATOM      6  N   UNL     1      21.388   5.415  23.457  0.00  0.00    -0.107 NA
ATOM     13  C   UNL     1      20.235   6.110  21.780  0.00  0.00    +0.222 A 
ATOM     17  C   UNL     1      21.633   4.672  22.403  0.00  0.00    +0.248 A 
BRANCH  17  21
ATOM      7  N   UNL     1      24.205   1.348  21.928  0.00  0.00    -0.263 NA
ATOM     21  C   UNL     1      22.505   3.544  22.242  0.00  0.00    +0.041 A 
ATOM     23  C   UNL     1      22.989   3.211  20.982  0.00  0.00    +0.033 A 
ATOM     24  C   UNL     1      22.869   2.780  23.345  0.00  0.00    +0.033 A 
ATOM     25  C   UNL     1      23.830   2.114  20.879  0.00  0.00    +0.111 A 
ATOM     26  C   UNL     1      23.714   1.702  23.137  0.00  0.00    +0.111 A 
ENDBRANCH  17  21
ENDBRANCH   8  13
BRANCH   4  12
ATOM     12  C   UNL     1      15.861   8.029  21.142  0.00  0.00    +0.119 C 
BRANCH  12  14
ATOM      2  O   UNL     1      13.387   9.504  17.117  0.00  0.00    -0.453 OA
ATOM      3  O   UNL     1      11.685   7.822  17.400  0.00  0.00    -0.453 OA
ATOM     14  C   UNL     1      14.725   7.945  20.157  0.00  0.00    -0.030 A 
ATOM     15  C   UNL     1      14.668   8.841  19.087  0.00  0.00    +0.054 A 
ATOM     16  C   UNL     1      13.731   6.964  20.323  0.00  0.00    +0.009 A 
ATOM     18  C   UNL     1      13.609   8.724  18.210  0.00  0.00    +0.167 A 
ATOM     19  C   UNL     1      12.670   6.867  19.421  0.00  0.00    +0.050 A 
ATOM     20  C   UNL     1      12.637   7.763  18.372  0.00  0.00    +0.166 A 
ATOM     22  C   UNL     1      12.167   8.926  16.609  0.00  0.00    +0.466 C 
ENDBRANCH  12  14
ENDBRANCH   4  12
TORSDOF 4
ENDMDL
MODEL 3
REMARK VINA RESULT:      -7.0     27.275     30.140
REMARK  Name = 51137309
REMARK  4 active torsions:
REMARK  status: ('A' for Active; 'I' for Inactive)
REMARK    1  A    between atoms: N_4  and  C_12
REMARK    2  A    between atoms: C_8  and  C_13
REMARK    3  A    between atoms: C_12  and  C_14
REMARK    4  A    between atoms: C_17  and  C_21
REMARK                            x       y       z     vdW  Elec       q    Type
REMARK                         _______ _______ _______ _____ _____    ______ ____
ROOT
ATOM      4  N   UNL     1      -2.254 -11.024  13.813  0.00  0.00    -0.297 NA
ATOM      8  C   UNL     1      -3.263 -10.294  15.800  0.00  0.00    +0.092 C 
ATOM      9  C   UNL     1      -3.579 -10.890  14.421  0.00  0.00    +0.097 C 
ATOM     10  C   UNL     1      -1.813 -10.724  16.086  0.00  0.00    +0.029 C 
ATOM     11  C   UNL     1      -1.402 -11.555  14.878  0.00  0.00    +0.085 C 
ENDROOT
BRANCH   8  13
ATOM      1  O   UNL     1      -5.514 -10.165  16.754  0.00  0.00    -0.420 OA
ATOM      5  N   UNL     1      -4.118 -11.495  17.888  0.00  0.00    -0.112 NA
ATOM      6  N   UNL     1      -5.342 -11.514  18.531  0.00  0.00    -0.107 NA
ATOM     13  C   UNL     1      -4.265 -10.695  16.858  0.00  0.00    +0.222 A 
ATOM     17  C   UNL     1      -6.125 -10.724  17.834  0.00  0.00    +0.248 A 
BRANCH  17  21
ATOM      7  N   UNL     1     -10.179  -9.669  18.418  0.00  0.00    -0.263 NA
ATOM     21  C   UNL     1      -7.500 -10.367  18.032  0.00  0.00    +0.041 A 
ATOM     23  C   UNL     1      -8.266 -11.037  18.978  0.00  0.00    +0.033 A 
ATOM     24  C   UNL     1      -8.072  -9.347  17.278  0.00  0.00    +0.033 A 
ATOM     25  C   UNL     1      -9.589 -10.653  19.133  0.00  0.00    +0.111 A 
ATOM     26  C   UNL     1      -9.403  -9.040  17.507  0.00  0.00    +0.111 A 
ENDBRANCH  17  21
ENDBRANCH   8  13
BRANCH   4  12
ATOM     12  C   UNL     1      -2.268 -11.880  12.636  0.00  0.00    +0.119 C 
BRANCH  12  14
ATOM      2  O   UNL     1      -5.331 -11.746   8.751  0.00  0.00    -0.453 OA
ATOM      3  O   UNL     1      -4.745  -9.471   8.217  0.00  0.00    -0.453 OA
ATOM     14  C   UNL     1      -2.913 -11.203  11.456  0.00  0.00    -0.030 A 
ATOM     15  C   UNL     1      -3.846 -11.898  10.682  0.00  0.00    +0.054 A 
ATOM     16  C   UNL     1      -2.570  -9.875  11.144  0.00  0.00    +0.009 A 
ATOM     18  C   UNL     1      -4.410 -11.233   9.613  0.00  0.00    +0.167 A 
ATOM     19  C   UNL     1      -3.157  -9.226  10.056  0.00  0.00    +0.050 A 
ATOM     20  C   UNL     1      -4.076  -9.934   9.307  0.00  0.00    +0.166 A 
ATOM     22  C   UNL     1      -5.538 -10.623   7.870  0.00  0.00    +0.466 C 
ENDBRANCH  12  14
ENDBRANCH   4  12
TORSDOF 4
ENDMDL
MODEL 4
REMARK VINA RESULT:      -6.9     17.711     20.551
REMARK  Name = 51137309
REMARK  4 active torsions:
REMARK  status: ('A' for Active; 'I' for Inactive)
REMARK    1  A    between atoms: N_4  and  C_12
REMARK    2  A    between atoms: C_8  and  C_13
REMARK    3  A    between atoms: C_12  and  C_14
REMARK    4  A    between atoms: C_17  and  C_21
REMARK                            x       y       z     vdW  Elec       q    Type
REMARK                         _______ _______ _______ _____ _____    ______ ____
ROOT
ATOM      4  N   UNL     1      11.006   5.641   3.646  0.00  0.00    -0.297 NA
ATOM      8  C   UNL     1      12.263   4.363   2.134  0.00  0.00    +0.092 C 
ATOM      9  C   UNL     1      10.837   4.571   2.662  0.00  0.00    +0.097 C 
ATOM     10  C   UNL     1      12.969   5.708   2.382  0.00  0.00    +0.029 C 
ATOM     11  C   UNL     1      11.906   6.603   3.005  0.00  0.00    +0.085 C 
ENDROOT
BRANCH   8  13
ATOM      1  O   UNL     1      11.211   4.170  -0.069  0.00  0.00    -0.420 OA
ATOM      5  N   UNL     1      13.231   3.219   0.063  0.00  0.00    -0.112 NA
ATOM      6  N   UNL     1      12.757   3.037  -1.223  0.00  0.00    -0.107 NA
ATOM     13  C   UNL     1      12.296   3.884   0.700  0.00  0.00    +0.222 A 
ATOM     17  C   UNL     1      11.575   3.607  -1.254  0.00  0.00    +0.248 A 
BRANCH  17  21
ATOM      7  N   UNL     1       8.779   3.963  -4.407  0.00  0.00    -0.263 NA
ATOM     21  C   UNL     1      10.628   3.728  -2.323  0.00  0.00    +0.041 A 
ATOM     23  C   UNL     1      10.505   2.714  -3.265  0.00  0.00    +0.033 A 
ATOM     24  C   UNL     1       9.827   4.861  -2.422  0.00  0.00    +0.033 A 
ATOM     25  C   UNL     1       9.574   2.877  -4.278  0.00  0.00    +0.111 A 
ATOM     26  C   UNL     1       8.927   4.930  -3.473  0.00  0.00    +0.111 A 
ENDBRANCH  17  21
ENDBRANCH   8  13
BRANCH   4  12
ATOM     12  C   UNL     1       9.740   6.243   4.035  0.00  0.00    +0.119 C 
BRANCH  12  14
ATOM      2  O   UNL     1       9.943   3.961   8.422  0.00  0.00    -0.453 OA
ATOM      3  O   UNL     1       8.963   5.835   9.576  0.00  0.00    -0.453 OA
ATOM     14  C   UNL     1       9.516   6.168   5.522  0.00  0.00    -0.030 A 
ATOM     15  C   UNL     1       9.880   5.013   6.221  0.00  0.00    +0.054 A 
ATOM     16  C   UNL     1       8.943   7.261   6.195  0.00  0.00    +0.009 A 
ATOM     18  C   UNL     1       9.656   4.993   7.582  0.00  0.00    +0.167 A 
ATOM     19  C   UNL     1       8.728   7.214   7.574  0.00  0.00    +0.050 A 
ATOM     20  C   UNL     1       9.096   6.063   8.241  0.00  0.00    +0.166 A 
ATOM     22  C   UNL     1       9.501   4.503   9.684  0.00  0.00    +0.466 C 
ENDBRANCH  12  14
ENDBRANCH   4  12
TORSDOF 4
ENDMDL
MODEL 5
REMARK VINA RESULT:      -6.9      2.864      9.933
REMARK  Name = 51137309
REMARK  4 active torsions:
REMARK  status: ('A' for Active; 'I' for Inactive)
REMARK    1  A    between atoms: N_4  and  C_12
REMARK    2  A    between atoms: C_8  and  C_13
REMARK    3  A    between atoms: C_12  and  C_14
REMARK    4  A    between atoms: C_17  and  C_21
REMARK                            x       y       z     vdW  Elec       q    Type
REMARK                         _______ _______ _______ _____ _____    ______ ____
ROOT
ATOM      4  N   UNL     1      18.415   6.494  20.786  0.00  0.00    -0.297 NA
ATOM      8  C   UNL     1      16.160   7.093  20.552  0.00  0.00    +0.092 C 
ATOM      9  C   UNL     1      17.519   7.628  21.023  0.00  0.00    +0.097 C 
ATOM     10  C   UNL     1      16.507   5.987  19.540  0.00  0.00    +0.029 C 
ATOM     11  C   UNL     1      18.028   5.976  19.473  0.00  0.00    +0.085 C 
ENDROOT
BRANCH   8  13
ATOM      1  O   UNL     1      14.451   7.852  18.970  0.00  0.00    -0.420 OA
ATOM      5  N   UNL     1      15.109   9.420  20.424  0.00  0.00    -0.112 NA
ATOM      6  N   UNL     1      14.151   9.978  19.597  0.00  0.00    -0.107 NA
ATOM     13  C   UNL     1      15.252   8.179  20.020  0.00  0.00    +0.222 A 
ATOM     17  C   UNL     1      13.797   9.027  18.765  0.00  0.00    +0.248 A 
BRANCH  17  21
ATOM      7  N   UNL     1      10.984   9.050  15.606  0.00  0.00    -0.263 NA
ATOM     21  C   UNL     1      12.843   9.036  17.694  0.00  0.00    +0.041 A 
ATOM     23  C   UNL     1      13.200   9.532  16.445  0.00  0.00    +0.033 A 
ATOM     24  C   UNL     1      11.558   8.546  17.900  0.00  0.00    +0.033 A 
ATOM     25  C   UNL     1      12.243   9.516  15.443  0.00  0.00    +0.111 A 
ATOM     26  C   UNL     1      10.674   8.575  16.834  0.00  0.00    +0.111 A 
ENDBRANCH  17  21
ENDBRANCH   8  13
BRANCH   4  12
ATOM     12  C   UNL     1      19.818   6.876  20.839  0.00  0.00    +0.119 C 
BRANCH  12  14
ATOM      2  O   UNL     1      22.749   4.814  24.254  0.00  0.00    -0.453 OA
ATOM      3  O   UNL     1      23.057   2.811  22.951  0.00  0.00    -0.453 OA
ATOM     14  C   UNL     1      20.682   5.765  21.375  0.00  0.00    -0.030 A 
ATOM     15  C   UNL     1      21.296   5.904  22.623  0.00  0.00    +0.054 A 
ATOM     16  C   UNL     1      20.863   4.596  20.614  0.00  0.00    +0.009 A 
ATOM     18  C   UNL     1      22.076   4.858  23.071  0.00  0.00    +0.167 A 
ATOM     19  C   UNL     1      21.658   3.552  21.093  0.00  0.00    +0.050 A 
ATOM     20  C   UNL     1      22.252   3.713  22.328  0.00  0.00    +0.166 A 
ATOM     22  C   UNL     1      23.368   3.514  24.171  0.00  0.00    +0.466 C 
ENDBRANCH  12  14
ENDBRANCH   4  12
TORSDOF 4
ENDMDL
MODEL 6
REMARK VINA RESULT:      -6.7     32.066     34.971
REMARK  Name = 51137309
REMARK  4 active torsions:
REMARK  status: ('A' for Active; 'I' for Inactive)
REMARK    1  A    between atoms: N_4  and  C_12
REMARK    2  A    between atoms: C_8  and  C_13
REMARK    3  A    between atoms: C_12  and  C_14
REMARK    4  A    between atoms: C_17  and  C_21
REMARK                            x       y       z     vdW  Elec       q    Type
REMARK                         _______ _______ _______ _____ _____    ______ ____
ROOT
ATOM      4  N   UNL     1     -16.350   1.975  28.627  0.00  0.00    -0.297 NA
ATOM      8  C   UNL     1     -16.951   3.007  26.609  0.00  0.00    +0.092 C 
ATOM      9  C   UNL     1     -15.777   2.823  27.580  0.00  0.00    +0.097 C 
ATOM     10  C   UNL     1     -17.848   1.779  26.847  0.00  0.00    +0.029 C 
ATOM     11  C   UNL     1     -17.125   0.962  27.909  0.00  0.00    +0.085 C 
ENDROOT
BRANCH   8  13
ATOM      1  O   UNL     1     -15.880   4.372  24.881  0.00  0.00    -0.420 OA
ATOM      5  N   UNL     1     -16.629   2.396  24.148  0.00  0.00    -0.112 NA
ATOM      6  N   UNL     1     -16.053   3.057  23.079  0.00  0.00    -0.107 NA
ATOM     13  C   UNL     1     -16.506   3.200  25.177  0.00  0.00    +0.222 A 
ATOM     17  C   UNL     1     -15.631   4.206  23.553  0.00  0.00    +0.248 A 
BRANCH  17  21
ATOM      7  N   UNL     1     -13.648   7.407  21.627  0.00  0.00    -0.263 NA
ATOM     21  C   UNL     1     -14.958   5.291  22.901  0.00  0.00    +0.041 A 
ATOM     23  C   UNL     1     -13.792   5.058  22.181  0.00  0.00    +0.033 A 
ATOM     24  C   UNL     1     -15.469   6.582  22.985  0.00  0.00    +0.033 A 
ATOM     25  C   UNL     1     -13.181   6.139  21.567  0.00  0.00    +0.111 A 
ATOM     26  C   UNL     1     -14.783   7.595  22.336  0.00  0.00    +0.111 A 
ENDBRANCH  17  21
ENDBRANCH   8  13
BRANCH   4  12
ATOM     12  C   UNL     1     -15.332   1.388  29.485  0.00  0.00    +0.119 C 
BRANCH  12  14
ATOM      2  O   UNL     1     -16.303   4.390  33.298  0.00  0.00    -0.453 OA
ATOM      3  O   UNL     1     -13.971   4.869  33.669  0.00  0.00    -0.453 OA
ATOM     14  C   UNL     1     -14.931   2.319  30.598  0.00  0.00    -0.030 A 
ATOM     15  C   UNL     1     -15.913   2.896  31.408  0.00  0.00    +0.054 A 
ATOM     16  C   UNL     1     -13.569   2.598  30.815  0.00  0.00    +0.009 A 
ATOM     18  C   UNL     1     -15.495   3.740  32.416  0.00  0.00    +0.167 A 
ATOM     19  C   UNL     1     -13.174   3.457  31.843  0.00  0.00    +0.050 A 
ATOM     20  C   UNL     1     -14.163   4.013  32.629  0.00  0.00    +0.166 A 
ATOM     22  C   UNL     1     -15.330   5.103  34.089  0.00  0.00    +0.466 C 
ENDBRANCH  12  14
ENDBRANCH   4  12
TORSDOF 4
ENDMDL
MODEL 7
REMARK VINA RESULT:      -6.7     27.088     31.212
REMARK  Name = 51137309
REMARK  4 active torsions:
REMARK  status: ('A' for Active; 'I' for Inactive)
REMARK    1  A    between atoms: N_4  and  C_12
REMARK    2  A    between atoms: C_8  and  C_13
REMARK    3  A    between atoms: C_12  and  C_14
REMARK    4  A    between atoms: C_17  and  C_21
REMARK                            x       y       z     vdW  Elec       q    Type
REMARK                         _______ _______ _______ _____ _____    ______ ____
ROOT
ATOM      4  N   UNL     1      -4.856 -11.106  17.863  0.00  0.00    -0.297 NA
ATOM      8  C   UNL     1      -6.799  -9.864  18.288  0.00  0.00    +0.092 C 
ATOM      9  C   UNL     1      -6.040 -10.594  17.171  0.00  0.00    +0.097 C 
ATOM     10  C   UNL     1      -6.327 -10.542  19.586  0.00  0.00    +0.029 C 
ATOM     11  C   UNL     1      -5.359 -11.627  19.135  0.00  0.00    +0.085 C 
ENDROOT
BRANCH   8  13
ATOM      1  O   UNL     1      -8.829  -8.779  17.452  0.00  0.00    -0.420 OA
ATOM      5  N   UNL     1      -9.187 -10.766  18.414  0.00  0.00    -0.112 NA
ATOM      6  N   UNL     1     -10.406 -10.270  17.991  0.00  0.00    -0.107 NA
ATOM     13  C   UNL     1      -8.296  -9.863  18.079  0.00  0.00    +0.222 A 
ATOM     17  C   UNL     1     -10.149  -9.109  17.436  0.00  0.00    +0.248 A 
BRANCH  17  21
ATOM      7  N   UNL     1     -12.740  -6.293  15.635  0.00  0.00    -0.263 NA
ATOM     21  C   UNL     1     -11.027  -8.154  16.826  0.00  0.00    +0.041 A 
ATOM     23  C   UNL     1     -10.534  -6.928  16.394  0.00  0.00    +0.033 A 
ATOM     24  C   UNL     1     -12.377  -8.450  16.664  0.00  0.00    +0.033 A 
ATOM     25  C   UNL     1     -11.423  -6.040  15.809  0.00  0.00    +0.111 A 
ATOM     26  C   UNL     1     -13.183  -7.495  16.069  0.00  0.00    +0.111 A 
ENDBRANCH  17  21
ENDBRANCH   8  13
BRANCH   4  12
ATOM     12  C   UNL     1      -4.155 -12.120  17.088  0.00  0.00    +0.119 C 
BRANCH  12  14
ATOM      2  O   UNL     1      -3.483 -11.260  12.260  0.00  0.00    -0.453 OA
ATOM      3  O   UNL     1      -1.501  -9.946  12.649  0.00  0.00    -0.453 OA
ATOM     14  C   UNL     1      -3.417 -11.522  15.920  0.00  0.00    -0.030 A 
ATOM     15  C   UNL     1      -3.888 -11.732  14.621  0.00  0.00    +0.054 A 
ATOM     16  C   UNL     1      -2.260 -10.756  16.146  0.00  0.00    +0.009 A 
ATOM     18  C   UNL     1      -3.178 -11.163  13.584  0.00  0.00    +0.167 A 
ATOM     19  C   UNL     1      -1.561 -10.190  15.078  0.00  0.00    +0.050 A 
ATOM     20  C   UNL     1      -2.047 -10.412  13.805  0.00  0.00    +0.166 A 
ATOM     22  C   UNL     1      -2.416 -10.486  11.675  0.00  0.00    +0.466 C 
ENDBRANCH  12  14
ENDBRANCH   4  12
TORSDOF 4
ENDMDL
MODEL 8
REMARK VINA RESULT:      -6.7     30.872     34.619
REMARK  Name = 51137309
REMARK  4 active torsions:
REMARK  status: ('A' for Active; 'I' for Inactive)
REMARK    1  A    between atoms: N_4  and  C_12
REMARK    2  A    between atoms: C_8  and  C_13
REMARK    3  A    between atoms: C_12  and  C_14
REMARK    4  A    between atoms: C_17  and  C_21
REMARK                            x       y       z     vdW  Elec       q    Type
REMARK                         _______ _______ _______ _____ _____    ______ ____
ROOT
ATOM      4  N   UNL     1     -16.922   2.655  27.002  0.00  0.00    -0.297 NA
ATOM      8  C   UNL     1     -16.465   4.289  25.383  0.00  0.00    +0.092 C 
ATOM      9  C   UNL     1     -15.825   3.127  26.156  0.00  0.00    +0.097 C 
ATOM     10  C   UNL     1     -17.971   3.975  25.387  0.00  0.00    +0.029 C 
ATOM     11  C   UNL     1     -18.097   2.651  26.128  0.00  0.00    +0.085 C 
ENDROOT
BRANCH   8  13
ATOM      1  O   UNL     1     -15.105   5.606  23.830  0.00  0.00    -0.420 OA
ATOM      5  N   UNL     1     -15.948   3.733  22.942  0.00  0.00    -0.112 NA
ATOM      6  N   UNL     1     -15.209   4.374  21.965  0.00  0.00    -0.107 NA
ATOM     13  C   UNL     1     -15.860   4.488  24.012  0.00  0.00    +0.222 A 
ATOM     17  C   UNL     1     -14.737   5.462  22.528  0.00  0.00    +0.248 A 
BRANCH  17  21
ATOM      7  N   UNL     1     -12.287   8.527  20.949  0.00  0.00    -0.263 NA
ATOM     21  C   UNL     1     -13.907   6.501  21.992  0.00  0.00    +0.041 A 
ATOM     23  C   UNL     1     -14.282   7.833  22.125  0.00  0.00    +0.033 A 
ATOM     24  C   UNL     1     -12.722   6.181  21.337  0.00  0.00    +0.033 A 
ATOM     25  C   UNL     1     -13.444   8.800  21.592  0.00  0.00    +0.111 A 
ATOM     26  C   UNL     1     -11.955   7.221  20.839  0.00  0.00    +0.111 A 
ENDBRANCH  17  21
ENDBRANCH   8  13
BRANCH   4  12
ATOM     12  C   UNL     1     -16.656   1.345  27.577  0.00  0.00    +0.119 C 
BRANCH  12  14
ATOM      2  O   UNL     1     -16.009   3.605  31.933  0.00  0.00    -0.453 OA
ATOM      3  O   UNL     1     -14.590   1.846  32.769  0.00  0.00    -0.453 OA
ATOM     14  C   UNL     1     -16.083   1.447  28.966  0.00  0.00    -0.030 A 
ATOM     15  C   UNL     1     -16.380   2.559  29.758  0.00  0.00    +0.054 A 
ATOM     16  C   UNL     1     -15.254   0.421  29.453  0.00  0.00    +0.009 A 
ATOM     18  C   UNL     1     -15.833   2.606  31.024  0.00  0.00    +0.167 A 
ATOM     19  C   UNL     1     -14.714   0.494  30.739  0.00  0.00    +0.050 A 
ATOM     20  C   UNL     1     -15.023   1.602  31.502  0.00  0.00    +0.166 A 
ATOM     22  C   UNL     1     -15.218   3.115  33.035  0.00  0.00    +0.466 C 
ENDBRANCH  12  14
ENDBRANCH   4  12
TORSDOF 4
ENDMDL
MODEL 9
REMARK VINA RESULT:      -6.7     29.698     33.470
REMARK  Name = 51137309
REMARK  4 active torsions:
REMARK  status: ('A' for Active; 'I' for Inactive)
REMARK    1  A    between atoms: N_4  and  C_12
REMARK    2  A    between atoms: C_8  and  C_13
REMARK    3  A    between atoms: C_12  and  C_14
REMARK    4  A    between atoms: C_17  and  C_21
REMARK                            x       y       z     vdW  Elec       q    Type
REMARK                         _______ _______ _______ _____ _____    ______ ____
ROOT
ATOM      4  N   UNL     1     -14.129   6.354  21.666  0.00  0.00    -0.297 NA
ATOM      8  C   UNL     1     -15.863   4.976  22.437  0.00  0.00    +0.092 C 
ATOM      9  C   UNL     1     -14.437   4.938  21.871  0.00  0.00    +0.097 C 
ATOM     10  C   UNL     1     -15.990   6.370  23.077  0.00  0.00    +0.029 C 
ATOM     11  C   UNL     1     -14.632   7.026  22.865  0.00  0.00    +0.085 C 
ENDROOT
BRANCH   8  13
ATOM      1  O   UNL     1     -16.127   4.081  24.701  0.00  0.00    -0.420 OA
ATOM      5  N   UNL     1     -16.452   2.574  23.081  0.00  0.00    -0.112 NA
ATOM      6  N   UNL     1     -16.631   1.940  24.296  0.00  0.00    -0.107 NA
ATOM     13  C   UNL     1     -16.159   3.821  23.366  0.00  0.00    +0.222 A 
ATOM     17  C   UNL     1     -16.430   2.857  25.213  0.00  0.00    +0.248 A 
BRANCH  17  21
ATOM      7  N   UNL     1     -16.582   2.603  29.432  0.00  0.00    -0.263 NA
ATOM     21  C   UNL     1     -16.482   2.771  26.643  0.00  0.00    +0.041 A 
ATOM     23  C   UNL     1     -16.537   1.530  27.266  0.00  0.00    +0.033 A 
ATOM     24  C   UNL     1     -16.477   3.929  27.414  0.00  0.00    +0.033 A 
ATOM     25  C   UNL     1     -16.584   1.499  28.651  0.00  0.00    +0.111 A 
ATOM     26  C   UNL     1     -16.528   3.792  28.791  0.00  0.00    +0.111 A 
ENDBRANCH  17  21
ENDBRANCH   8  13
BRANCH   4  12
ATOM     12  C   UNL     1     -12.709   6.588  21.454  0.00  0.00    +0.119 C 
BRANCH  12  14
ATOM      2  O   UNL     1      -9.818   9.205  18.405  0.00  0.00    -0.453 OA
ATOM      3  O   UNL     1     -11.620   9.617  16.859  0.00  0.00    -0.453 OA
ATOM     14  C   UNL     1     -12.452   7.398  20.211  0.00  0.00    -0.030 A 
ATOM     15  C   UNL     1     -11.173   7.903  19.963  0.00  0.00    +0.054 A 
ATOM     16  C   UNL     1     -13.504   7.640  19.309  0.00  0.00    +0.009 A 
ATOM     18  C   UNL     1     -10.987   8.637  18.810  0.00  0.00    +0.167 A 
ATOM     19  C   UNL     1     -13.288   8.386  18.149  0.00  0.00    +0.050 A 
ATOM     20  C   UNL     1     -12.016   8.873  17.927  0.00  0.00    +0.166 A 
ATOM     22  C   UNL     1     -10.227   9.824  17.168  0.00  0.00    +0.466 C 
ENDBRANCH  12  14
ENDBRANCH   4  12
TORSDOF 4
ENDMDL
MODEL 10
REMARK VINA RESULT:      -6.6     27.658     29.574
REMARK  Name = 51137309
REMARK  4 active torsions:
REMARK  status: ('A' for Active; 'I' for Inactive)
REMARK    1  A    between atoms: N_4  and  C_12
REMARK    2  A    between atoms: C_8  and  C_13
REMARK    3  A    between atoms: C_12  and  C_14
REMARK    4  A    between atoms: C_17  and  C_21
REMARK                            x       y       z     vdW  Elec       q    Type
REMARK                         _______ _______ _______ _____ _____    ______ ____
ROOT
ATOM      4  N   UNL     1      -2.929 -10.408  10.869  0.00  0.00    -0.297 NA
ATOM      8  C   UNL     1      -2.405 -11.437  12.910  0.00  0.00    +0.092 C 
ATOM      9  C   UNL     1      -2.172 -10.156  12.097  0.00  0.00    +0.097 C 
ATOM     10  C   UNL     1      -3.732 -12.002  12.374  0.00  0.00    +0.029 C 
ATOM     11  C   UNL     1      -4.188 -11.005  11.317  0.00  0.00    +0.085 C 
ENDROOT
BRANCH   8  13
ATOM      1  O   UNL     1      -3.557 -11.284  15.066  0.00  0.00    -0.420 OA
ATOM      5  N   UNL     1      -1.352 -10.923  15.182  0.00  0.00    -0.112 NA
ATOM      6  N   UNL     1      -1.872 -10.807  16.458  0.00  0.00    -0.107 NA
ATOM     13  C   UNL     1      -2.371 -11.201  14.403  0.00  0.00    +0.222 A 
ATOM     17  C   UNL     1      -3.161 -11.025  16.341  0.00  0.00    +0.248 A 
BRANCH  17  21
ATOM      7  N   UNL     1      -6.216 -11.054  19.266  0.00  0.00    -0.263 NA
ATOM     21  C   UNL     1      -4.197 -11.034  17.334  0.00  0.00    +0.041 A 
ATOM     23  C   UNL     1      -5.371 -10.320  17.124  0.00  0.00    +0.033 A 
ATOM     24  C   UNL     1      -4.032 -11.759  18.509  0.00  0.00    +0.033 A 
ATOM     25  C   UNL     1      -6.342 -10.362  18.112  0.00  0.00    +0.111 A 
ATOM     26  C   UNL     1      -5.061 -11.737  19.435  0.00  0.00    +0.111 A 
ENDBRANCH  17  21
ENDBRANCH   8  13
BRANCH   4  12
ATOM     12  C   UNL     1      -3.137  -9.198  10.087  0.00  0.00    +0.119 C 
BRANCH  12  14
ATOM      2  O   UNL     1      -7.796  -7.823   9.139  0.00  0.00    -0.453 OA
ATOM      3  O   UNL     1      -7.971  -9.298   7.242  0.00  0.00    -0.453 OA
ATOM     14  C   UNL     1      -4.420  -9.251   9.302  0.00  0.00    -0.030 A 
ATOM     15  C   UNL     1      -5.497  -8.444   9.677  0.00  0.00    +0.054 A 
ATOM     16  C   UNL     1      -4.522 -10.113   8.195  0.00  0.00    +0.009 A 
ATOM     18  C   UNL     1      -6.651  -8.528   8.925  0.00  0.00    +0.167 A 
ATOM     19  C   UNL     1      -5.702 -10.177   7.450  0.00  0.00    +0.050 A 
ATOM     20  C   UNL     1      -6.751  -9.370   7.841  0.00  0.00    +0.166 A 
ATOM     22  C   UNL     1      -8.627  -8.317   8.069  0.00  0.00    +0.466 C 
ENDBRANCH  12  14
ENDBRANCH   4  12
TORSDOF 4
ENDMDL
