MODEL 1
REMARK VINA RESULT:      -6.8      0.000      0.000
REMARK  Name = 40780092
REMARK  7 active torsions:
REMARK  status: ('A' for Active; 'I' for Inactive)
REMARK    1  A    between atoms: N_3  and  C_24
REMARK    2  A    between atoms: N_4  and  C_16
REMARK    3  A    between atoms: N_6  and  C_27
REMARK    4  A    between atoms: C_9  and  C_15
REMARK    5  A    between atoms: C_10  and  C_16
REMARK    6  A    between atoms: C_18  and  C_19
REMARK    7  A    between atoms: C_30  and  C_33
REMARK                            x       y       z     vdW  Elec       q    Type
REMARK                         _______ _______ _______ _____ _____    ______ ____
ROOT
ATOM      2  N   UNL     1      -5.701 -10.333  17.793  0.00  0.00    -0.297 NA
ATOM      8  C   UNL     1      -4.870 -12.424  16.483  0.00  0.00    +0.002 C 
ATOM      9  C   UNL     1      -3.900 -11.229  16.270  0.00  0.00    +0.055 C 
ATOM     10  C   UNL     1      -6.813 -10.903  16.987  0.00  0.00    +0.074 C 
ATOM     11  C   UNL     1      -6.292 -12.012  16.048  0.00  0.00    +0.024 C 
ATOM     12  C   UNL     1      -4.564  -9.976  16.909  0.00  0.00    +0.094 C 
ATOM     13  C   UNL     1      -4.920 -12.692  18.002  0.00  0.00    +0.019 C 
ATOM     14  C   UNL     1      -5.243 -11.380  18.738  0.00  0.00    +0.085 C 
ENDROOT
BRANCH   9  15
ATOM      3  N   UNL     1      -2.136 -10.491  14.601  0.00  0.00    -0.271 N 
ATOM      5  N   UNL     1      -1.882 -10.318  13.292  0.00  0.00    -0.176 NA
ATOM     15  C   UNL     1      -3.391 -10.958  14.862  0.00  0.00    +0.044 A 
ATOM     17  C   UNL     1      -4.001 -11.099  13.639  0.00  0.00    +0.048 A 
ATOM     18  C   UNL     1      -3.025 -10.692  12.710  0.00  0.00    +0.066 A 
ATOM     24  C   UNL     1      -1.108 -10.182  15.566  0.00  0.00    +0.172 C 
BRANCH  18  19
ATOM     19  C   UNL     1      -3.151 -10.643  11.198  0.00  0.00    +0.040 C 
ATOM     20  C   UNL     1      -3.806  -9.335  10.721  0.00  0.00    +0.010 C 
ATOM     21  C   UNL     1      -3.901 -11.868  10.646  0.00  0.00    +0.010 C 
ATOM     22  C   UNL     1      -3.920  -9.290   9.198  0.00  0.00    +0.001 C 
ATOM     23  C   UNL     1      -4.015 -11.813   9.124  0.00  0.00    +0.001 C 
ATOM     25  C   UNL     1      -4.656 -10.511   8.653  0.00  0.00    +0.000 C 
ENDBRANCH  18  19
ENDBRANCH   9  15
BRANCH  10  16
ATOM     16  C   UNL     1      -7.589  -9.829  16.223  0.00  0.00    +0.124 C 
BRANCH  16   4
ATOM      1  O   UNL     1      -8.997 -10.309  13.774  0.00  0.00    -0.253 OA
ATOM      4  N   UNL     1      -7.077  -9.673  14.897  0.00  0.00    -0.298 N 
ATOM      6  N   UNL     1      -7.067  -9.691  12.589  0.00  0.00    -0.269 N 
ATOM     26  C   UNL     1      -7.829  -9.929  13.737  0.00  0.00    +0.304 C 
ATOM     34  H   UNL     1      -6.115  -9.365  14.788  0.00  0.00    +0.150 HD
ATOM     35  H   UNL     1      -6.111  -9.379  12.734  0.00  0.00    +0.156 HD
BRANCH   6  27
ATOM     27  C   UNL     1      -7.464  -9.832  11.238  0.00  0.00    +0.036 A 
ATOM     28  C   UNL     1      -7.544  -8.710  10.414  0.00  0.00    +0.042 A 
ATOM     29  C   UNL     1      -7.776 -11.095  10.733  0.00  0.00    +0.023 A 
ATOM     30  C   UNL     1      -7.935  -8.850   9.082  0.00  0.00    +0.054 A 
ATOM     31  C   UNL     1      -8.167 -11.234   9.400  0.00  0.00    +0.003 A 
ATOM     32  C   UNL     1      -8.247 -10.112   8.576  0.00  0.00    +0.019 A 
BRANCH  30  33
ATOM      7  N   UNL     1      -8.085  -6.767   7.551  0.00  0.00    -0.191 NA
ATOM     33  C   UNL     1      -8.017  -7.700   8.237  0.00  0.00    +0.099 C 
ENDBRANCH  30  33
ENDBRANCH   6  27
ENDBRANCH  16   4
ENDBRANCH  10  16
TORSDOF 6
ENDMDL
MODEL 2
REMARK VINA RESULT:      -6.7      1.830      6.943
REMARK  Name = 40780092
REMARK  7 active torsions:
REMARK  status: ('A' for Active; 'I' for Inactive)
REMARK    1  A    between atoms: N_3  and  C_24
REMARK    2  A    between atoms: N_4  and  C_16
REMARK    3  A    between atoms: N_6  and  C_27
REMARK    4  A    between atoms: C_9  and  C_15
REMARK    5  A    between atoms: C_10  and  C_16
REMARK    6  A    between atoms: C_18  and  C_19
REMARK    7  A    between atoms: C_30  and  C_33
REMARK                            x       y       z     vdW  Elec       q    Type
REMARK                         _______ _______ _______ _____ _____    ______ ____
ROOT
ATOM      2  N   UNL     1      -5.934 -10.721   9.604  0.00  0.00    -0.297 NA
ATOM      8  C   UNL     1      -4.306  -8.974  10.642  0.00  0.00    +0.002 C 
ATOM      9  C   UNL     1      -3.960 -10.403  11.143  0.00  0.00    +0.055 C 
ATOM     10  C   UNL     1      -6.705  -9.592  10.189  0.00  0.00    +0.074 C 
ATOM     11  C   UNL     1      -5.775  -8.653  10.986  0.00  0.00    +0.024 C 
ATOM     12  C   UNL     1      -5.088 -11.352  10.648  0.00  0.00    +0.094 C 
ATOM     13  C   UNL     1      -4.198  -9.003   9.102  0.00  0.00    +0.019 C 
ATOM     14  C   UNL     1      -5.042 -10.168   8.557  0.00  0.00    +0.085 C 
ENDROOT
BRANCH   9  15
ATOM      3  N   UNL     1      -2.416 -10.393  13.158  0.00  0.00    -0.271 N 
ATOM      5  N   UNL     1      -2.356 -10.612  14.483  0.00  0.00    -0.176 NA
ATOM     15  C   UNL     1      -3.655 -10.592  12.622  0.00  0.00    +0.044 A 
ATOM     17  C   UNL     1      -4.461 -10.968  13.669  0.00  0.00    +0.048 A 
ATOM     18  C   UNL     1      -3.608 -10.962  14.789  0.00  0.00    +0.066 A 
ATOM     24  C   UNL     1      -1.222  -9.987  12.455  0.00  0.00    +0.172 C 
BRANCH  18  19
ATOM     19  C   UNL     1      -3.965 -11.300  16.225  0.00  0.00    +0.040 C 
ATOM     20  C   UNL     1      -4.602 -12.696  16.343  0.00  0.00    +0.010 C 
ATOM     21  C   UNL     1      -4.870 -10.227  16.857  0.00  0.00    +0.010 C 
ATOM     22  C   UNL     1      -4.950 -13.031  17.792  0.00  0.00    +0.001 C 
ATOM     23  C   UNL     1      -5.216 -10.572  18.304  0.00  0.00    +0.001 C 
ATOM     25  C   UNL     1      -5.839 -11.960  18.420  0.00  0.00    +0.000 C 
ENDBRANCH  18  19
ENDBRANCH   9  15
BRANCH  10  16
ATOM     16  C   UNL     1      -7.890 -10.069  11.030  0.00  0.00    +0.124 C 
BRANCH  16   4
ATOM      1  O   UNL     1      -9.889 -10.260  13.074  0.00  0.00    -0.253 OA
ATOM      4  N   UNL     1      -7.785  -9.596  12.376  0.00  0.00    -0.298 N 
ATOM      6  N   UNL     1      -8.424  -9.172  14.552  0.00  0.00    -0.269 N 
ATOM     26  C   UNL     1      -8.812  -9.726  13.328  0.00  0.00    +0.304 C 
ATOM     34  H   UNL     1      -6.923  -9.139  12.657  0.00  0.00    +0.150 HD
ATOM     35  H   UNL     1      -7.494  -8.766  14.594  0.00  0.00    +0.156 HD
BRANCH   6  27
ATOM     27  C   UNL     1      -9.173  -9.106  15.751  0.00  0.00    +0.036 A 
ATOM     28  C   UNL     1      -8.871  -9.962  16.811  0.00  0.00    +0.042 A 
ATOM     29  C   UNL     1     -10.214  -8.186  15.872  0.00  0.00    +0.023 A 
ATOM     30  C   UNL     1      -9.609  -9.896  17.993  0.00  0.00    +0.054 A 
ATOM     31  C   UNL     1     -10.952  -8.121  17.054  0.00  0.00    +0.003 A 
ATOM     32  C   UNL     1     -10.650  -8.975  18.114  0.00  0.00    +0.019 A 
BRANCH  30  33
ATOM      7  N   UNL     1      -9.048 -11.483  19.959  0.00  0.00    -0.191 NA
ATOM     33  C   UNL     1      -9.299 -10.772  19.078  0.00  0.00    +0.099 C 
ENDBRANCH  30  33
ENDBRANCH   6  27
ENDBRANCH  16   4
ENDBRANCH  10  16
TORSDOF 6
ENDMDL
MODEL 3
REMARK VINA RESULT:      -6.6      2.846      3.823
REMARK  Name = 40780092
REMARK  7 active torsions:
REMARK  status: ('A' for Active; 'I' for Inactive)
REMARK    1  A    between atoms: N_3  and  C_24
REMARK    2  A    between atoms: N_4  and  C_16
REMARK    3  A    between atoms: N_6  and  C_27
REMARK    4  A    between atoms: C_9  and  C_15
REMARK    5  A    between atoms: C_10  and  C_16
REMARK    6  A    between atoms: C_18  and  C_19
REMARK    7  A    between atoms: C_30  and  C_33
REMARK                            x       y       z     vdW  Elec       q    Type
REMARK                         _______ _______ _______ _____ _____    ______ ____
ROOT
ATOM      2  N   UNL     1      -6.343 -10.597  17.564  0.00  0.00    -0.297 NA
ATOM      8  C   UNL     1      -4.177 -11.999  17.210  0.00  0.00    +0.002 C 
ATOM      9  C   UNL     1      -4.077 -10.645  16.455  0.00  0.00    +0.055 C 
ATOM     10  C   UNL     1      -6.695 -11.978  17.142  0.00  0.00    +0.074 C 
ATOM     11  C   UNL     1      -5.430 -12.761  16.728  0.00  0.00    +0.024 C 
ATOM     12  C   UNL     1      -5.472  -9.961  16.545  0.00  0.00    +0.094 C 
ATOM     13  C   UNL     1      -4.396 -11.663  18.700  0.00  0.00    +0.019 C 
ATOM     14  C   UNL     1      -5.581 -10.690  18.832  0.00  0.00    +0.085 C 
ENDROOT
BRANCH   9  15
ATOM      3  N   UNL     1      -2.194 -10.632  14.753  0.00  0.00    -0.271 N 
ATOM      5  N   UNL     1      -1.917 -10.643  13.438  0.00  0.00    -0.176 NA
ATOM     15  C   UNL     1      -3.529 -10.652  15.035  0.00  0.00    +0.044 A 
ATOM     17  C   UNL     1      -4.169 -10.676  13.820  0.00  0.00    +0.048 A 
ATOM     18  C   UNL     1      -3.127 -10.671  12.874  0.00  0.00    +0.066 A 
ATOM     24  C   UNL     1      -1.107 -10.601  15.703  0.00  0.00    +0.172 C 
BRANCH  18  19
ATOM     19  C   UNL     1      -3.252 -10.691  11.361  0.00  0.00    +0.040 C 
ATOM     20  C   UNL     1      -3.943  -9.424  10.826  0.00  0.00    +0.010 C 
ATOM     21  C   UNL     1      -3.968 -11.959  10.863  0.00  0.00    +0.010 C 
ATOM     22  C   UNL     1      -4.056  -9.448   9.303  0.00  0.00    +0.001 C 
ATOM     23  C   UNL     1      -4.081 -11.974   9.339  0.00  0.00    +0.001 C 
ATOM     25  C   UNL     1      -4.757 -10.712   8.812  0.00  0.00    +0.000 C 
ENDBRANCH  18  19
ENDBRANCH   9  15
BRANCH  10  16
ATOM     16  C   UNL     1      -7.761 -11.999  16.044  0.00  0.00    +0.124 C 
BRANCH  16   4
ATOM      1  O   UNL     1      -8.544  -9.633  14.632  0.00  0.00    -0.253 OA
ATOM      4  N   UNL     1      -8.848 -11.129  16.371  0.00  0.00    -0.298 N 
ATOM      6  N   UNL     1     -10.280  -9.329  16.184  0.00  0.00    -0.269 N 
ATOM     26  C   UNL     1      -9.174  -9.980  15.628  0.00  0.00    +0.304 C 
ATOM     34  H   UNL     1      -9.412 -11.351  17.185  0.00  0.00    +0.150 HD
ATOM     35  H   UNL     1     -10.687  -9.750  17.014  0.00  0.00    +0.156 HD
BRANCH   6  27
ATOM     27  C   UNL     1     -10.909  -8.146  15.729  0.00  0.00    +0.036 A 
ATOM     28  C   UNL     1     -11.661  -8.163  14.554  0.00  0.00    +0.042 A 
ATOM     29  C   UNL     1     -10.777  -6.963  16.457  0.00  0.00    +0.023 A 
ATOM     30  C   UNL     1     -12.282  -6.996  14.107  0.00  0.00    +0.054 A 
ATOM     31  C   UNL     1     -11.398  -5.797  16.008  0.00  0.00    +0.003 A 
ATOM     32  C   UNL     1     -12.150  -5.813  14.834  0.00  0.00    +0.019 A 
BRANCH  30  33
ATOM      7  N   UNL     1     -13.676  -7.028  11.925  0.00  0.00    -0.191 NA
ATOM     33  C   UNL     1     -13.052  -7.013  12.903  0.00  0.00    +0.099 C 
ENDBRANCH  30  33
ENDBRANCH   6  27
ENDBRANCH  16   4
ENDBRANCH  10  16
TORSDOF 6
ENDMDL
MODEL 4
REMARK VINA RESULT:      -6.5      4.943      8.364
REMARK  Name = 40780092
REMARK  7 active torsions:
REMARK  status: ('A' for Active; 'I' for Inactive)
REMARK    1  A    between atoms: N_3  and  C_24
REMARK    2  A    between atoms: N_4  and  C_16
REMARK    3  A    between atoms: N_6  and  C_27
REMARK    4  A    between atoms: C_9  and  C_15
REMARK    5  A    between atoms: C_10  and  C_16
REMARK    6  A    between atoms: C_18  and  C_19
REMARK    7  A    between atoms: C_30  and  C_33
REMARK                            x       y       z     vdW  Elec       q    Type
REMARK                         _______ _______ _______ _____ _____    ______ ____
ROOT
ATOM      2  N   UNL     1      -5.686 -12.168  17.370  0.00  0.00    -0.297 NA
ATOM      8  C   UNL     1      -6.332 -11.151  19.679  0.00  0.00    +0.002 C 
ATOM      9  C   UNL     1      -7.330 -12.273  19.281  0.00  0.00    +0.055 C 
ATOM     10  C   UNL     1      -5.726 -10.685  17.279  0.00  0.00    +0.074 C 
ATOM     11  C   UNL     1      -6.305 -10.075  18.573  0.00  0.00    +0.024 C 
ATOM     12  C   UNL     1      -7.003 -12.686  17.817  0.00  0.00    +0.094 C 
ATOM     13  C   UNL     1      -4.930 -11.796  19.717  0.00  0.00    +0.019 C 
ATOM     14  C   UNL     1      -4.674 -12.533  18.391  0.00  0.00    +0.085 C 
ENDROOT
BRANCH   9  15
ATOM      3  N   UNL     1      -9.628 -12.879  20.172  0.00  0.00    -0.271 N 
ATOM      5  N   UNL     1     -10.908 -12.473  20.246  0.00  0.00    -0.176 NA
ATOM     15  C   UNL     1      -8.816 -12.021  19.490  0.00  0.00    +0.044 A 
ATOM     17  C   UNL     1      -9.621 -10.981  19.090  0.00  0.00    +0.048 A 
ATOM     18  C   UNL     1     -10.896 -11.314  19.583  0.00  0.00    +0.066 A 
ATOM     24  C   UNL     1      -9.247 -14.127  20.791  0.00  0.00    +0.172 C 
BRANCH  18  19
ATOM     19  C   UNL     1     -12.180 -10.518  19.437  0.00  0.00    +0.040 C 
ATOM     20  C   UNL     1     -12.699 -10.011  20.794  0.00  0.00    +0.010 C 
ATOM     21  C   UNL     1     -13.268 -11.317  18.696  0.00  0.00    +0.010 C 
ATOM     22  C   UNL     1     -13.985  -9.203  20.635  0.00  0.00    +0.001 C 
ATOM     23  C   UNL     1     -14.553 -10.504  18.546  0.00  0.00    +0.001 C 
ATOM     25  C   UNL     1     -15.058  -9.995  19.892  0.00  0.00    +0.000 C 
ENDBRANCH  18  19
ENDBRANCH   9  15
BRANCH  10  16
ATOM     16  C   UNL     1      -6.473 -10.197  16.036  0.00  0.00    +0.124 C 
BRANCH  16   4
ATOM      1  O   UNL     1      -9.162  -9.924  15.084  0.00  0.00    -0.253 OA
ATOM      4  N   UNL     1      -7.397  -9.158  16.369  0.00  0.00    -0.298 N 
ATOM      6  N   UNL     1      -9.372  -7.965  16.362  0.00  0.00    -0.269 N 
ATOM     26  C   UNL     1      -8.706  -9.088  15.861  0.00  0.00    +0.304 C 
ATOM     34  H   UNL     1      -7.088  -8.428  17.004  0.00  0.00    +0.150 HD
ATOM     35  H   UNL     1      -8.849  -7.371  16.998  0.00  0.00    +0.156 HD
BRANCH   6  27
ATOM     27  C   UNL     1     -10.697  -7.549  16.089  0.00  0.00    +0.036 A 
ATOM     28  C   UNL     1     -10.929  -6.486  15.216  0.00  0.00    +0.042 A 
ATOM     29  C   UNL     1     -11.771  -8.204  16.693  0.00  0.00    +0.023 A 
ATOM     30  C   UNL     1     -12.235  -6.076  14.947  0.00  0.00    +0.054 A 
ATOM     31  C   UNL     1     -13.077  -7.794  16.423  0.00  0.00    +0.003 A 
ATOM     32  C   UNL     1     -13.309  -6.731  15.551  0.00  0.00    +0.019 A 
BRANCH  30  33
ATOM      7  N   UNL     1     -12.664  -4.103  13.327  0.00  0.00    -0.191 NA
ATOM     33  C   UNL     1     -12.472  -4.987  14.053  0.00  0.00    +0.099 C 
ENDBRANCH  30  33
ENDBRANCH   6  27
ENDBRANCH  16   4
ENDBRANCH  10  16
TORSDOF 6
ENDMDL
MODEL 5
REMARK VINA RESULT:      -6.3     26.517     30.038
REMARK  Name = 40780092
REMARK  7 active torsions:
REMARK  status: ('A' for Active; 'I' for Inactive)
REMARK    1  A    between atoms: N_3  and  C_24
REMARK    2  A    between atoms: N_4  and  C_16
REMARK    3  A    between atoms: N_6  and  C_27
REMARK    4  A    between atoms: C_9  and  C_15
REMARK    5  A    between atoms: C_10  and  C_16
REMARK    6  A    between atoms: C_18  and  C_19
REMARK    7  A    between atoms: C_30  and  C_33
REMARK                            x       y       z     vdW  Elec       q    Type
REMARK                         _______ _______ _______ _____ _____    ______ ____
ROOT
ATOM      2  N   UNL     1      13.343   7.758  21.192  0.00  0.00    -0.297 NA
ATOM      8  C   UNL     1      11.303   8.843  19.992  0.00  0.00    +0.002 C 
ATOM      9  C   UNL     1      12.297   8.258  18.951  0.00  0.00    +0.055 C 
ATOM     10  C   UNL     1      13.109   9.125  21.724  0.00  0.00    +0.074 C 
ATOM     11  C   UNL     1      12.041   9.861  20.887  0.00  0.00    +0.024 C 
ATOM     12  C   UNL     1      13.571   7.815  19.727  0.00  0.00    +0.094 C 
ATOM     13  C   UNL     1      10.868   7.673  20.899  0.00  0.00    +0.019 C 
ATOM     14  C   UNL     1      12.119   6.959  21.440  0.00  0.00    +0.085 C 
ENDROOT
BRANCH   9  15
ATOM      3  N   UNL     1      11.828   9.157  16.624  0.00  0.00    -0.271 N 
ATOM      5  N   UNL     1      12.301   9.954  15.650  0.00  0.00    -0.176 NA
ATOM     15  C   UNL     1      12.631   9.096  17.725  0.00  0.00    +0.044 A 
ATOM     17  C   UNL     1      13.705   9.908  17.452  0.00  0.00    +0.048 A 
ATOM     18  C   UNL     1      13.447  10.410  16.162  0.00  0.00    +0.066 A 
ATOM     24  C   UNL     1      10.573   8.471  16.427  0.00  0.00    +0.172 C 
BRANCH  18  19
ATOM     19  C   UNL     1      14.306  11.364  15.353  0.00  0.00    +0.040 C 
ATOM     20  C   UNL     1      13.534  11.962  14.164  0.00  0.00    +0.010 C 
ATOM     21  C   UNL     1      15.613  10.700  14.883  0.00  0.00    +0.010 C 
ATOM     22  C   UNL     1      14.403  12.928  13.361  0.00  0.00    +0.001 C 
ATOM     23  C   UNL     1      16.474  11.671  14.077  0.00  0.00    +0.001 C 
ATOM     25  C   UNL     1      15.703  12.269  12.905  0.00  0.00    +0.000 C 
ENDBRANCH  18  19
ENDBRANCH   9  15
BRANCH  10  16
ATOM     16  C   UNL     1      14.402   9.937  21.837  0.00  0.00    +0.124 C 
BRANCH  16   4
ATOM      1  O   UNL     1      16.789   9.466  20.325  0.00  0.00    -0.253 OA
ATOM      4  N   UNL     1      15.499   9.100  22.211  0.00  0.00    -0.298 N 
ATOM      6  N   UNL     1      17.544   8.046  22.036  0.00  0.00    -0.269 N 
ATOM     26  C   UNL     1      16.644   8.916  21.415  0.00  0.00    +0.304 C 
ATOM     34  H   UNL     1      15.447   8.609  23.098  0.00  0.00    +0.150 HD
ATOM     35  H   UNL     1      17.269   7.675  22.941  0.00  0.00    +0.156 HD
BRANCH   6  27
ATOM     27  C   UNL     1      18.804   7.613  21.557  0.00  0.00    +0.036 A 
ATOM     28  C   UNL     1      19.910   8.458  21.640  0.00  0.00    +0.042 A 
ATOM     29  C   UNL     1      18.938   6.340  21.002  0.00  0.00    +0.023 A 
ATOM     30  C   UNL     1      21.152   8.031  21.169  0.00  0.00    +0.054 A 
ATOM     31  C   UNL     1      20.180   5.914  20.530  0.00  0.00    +0.003 A 
ATOM     32  C   UNL     1      21.286   6.758  20.613  0.00  0.00    +0.019 A 
BRANCH  30  33
ATOM      7  N   UNL     1      23.205   9.600  21.322  0.00  0.00    -0.191 NA
ATOM     33  C   UNL     1      22.285   8.897  21.254  0.00  0.00    +0.099 C 
ENDBRANCH  30  33
ENDBRANCH   6  27
ENDBRANCH  16   4
ENDBRANCH  10  16
TORSDOF 6
ENDMDL
MODEL 6
REMARK VINA RESULT:      -6.3     24.021     27.118
REMARK  Name = 40780092
REMARK  7 active torsions:
REMARK  status: ('A' for Active; 'I' for Inactive)
REMARK    1  A    between atoms: N_3  and  C_24
REMARK    2  A    between atoms: N_4  and  C_16
REMARK    3  A    between atoms: N_6  and  C_27
REMARK    4  A    between atoms: C_9  and  C_15
REMARK    5  A    between atoms: C_10  and  C_16
REMARK    6  A    between atoms: C_18  and  C_19
REMARK    7  A    between atoms: C_30  and  C_33
REMARK                            x       y       z     vdW  Elec       q    Type
REMARK                         _______ _______ _______ _____ _____    ______ ____
ROOT
ATOM      2  N   UNL     1      13.842   5.169  -0.820  0.00  0.00    -0.297 NA
ATOM      8  C   UNL     1      12.138   3.540   0.286  0.00  0.00    +0.002 C 
ATOM      9  C   UNL     1      11.532   4.965   0.174  0.00  0.00    +0.055 C 
ATOM     10  C   UNL     1      14.498   4.421   0.285  0.00  0.00    +0.074 C 
ATOM     11  C   UNL     1      13.458   3.607   1.083  0.00  0.00    +0.024 C 
ATOM     12  C   UNL     1      12.668   5.915  -0.302  0.00  0.00    +0.094 C 
ATOM     13  C   UNL     1      12.498   3.095  -1.148  0.00  0.00    +0.019 C 
ATOM     14  C   UNL     1      13.361   4.181  -1.814  0.00  0.00    +0.085 C 
ENDROOT
BRANCH   9  15
ATOM      3  N   UNL     1      10.026   6.659   1.318  0.00  0.00    -0.271 N 
ATOM      5  N   UNL     1       9.442   6.981   2.485  0.00  0.00    -0.176 NA
ATOM     15  C   UNL     1      10.780   5.523   1.374  0.00  0.00    +0.044 A 
ATOM     17  C   UNL     1      10.682   5.071   2.668  0.00  0.00    +0.048 A 
ATOM     18  C   UNL     1       9.846   6.008   3.305  0.00  0.00    +0.066 A 
ATOM     24  C   UNL     1       9.814   7.503   0.166  0.00  0.00    +0.172 C 
BRANCH  18  19
ATOM     19  C   UNL     1       9.393   6.007   4.754  0.00  0.00    +0.040 C 
ATOM     20  C   UNL     1       8.827   7.374   5.177  0.00  0.00    +0.010 C 
ATOM     21  C   UNL     1      10.517   5.558   5.705  0.00  0.00    +0.010 C 
ATOM     22  C   UNL     1       8.365   7.361   6.633  0.00  0.00    +0.001 C 
ATOM     23  C   UNL     1      10.048   5.552   7.159  0.00  0.00    +0.001 C 
ATOM     25  C   UNL     1       9.479   6.906   7.573  0.00  0.00    +0.000 C 
ENDBRANCH  18  19
ENDBRANCH   9  15
BRANCH  10  16
ATOM     16  C   UNL     1      15.327   5.331   1.193  0.00  0.00    +0.124 C 
BRANCH  16   4
ATOM      1  O   UNL     1      14.385   7.827   2.238  0.00  0.00    -0.253 OA
ATOM      4  N   UNL     1      14.669   5.540   2.446  0.00  0.00    -0.298 N 
ATOM      6  N   UNL     1      13.628   6.694   4.151  0.00  0.00    -0.269 N 
ATOM     26  C   UNL     1      14.233   6.799   2.895  0.00  0.00    +0.304 C 
ATOM     34  H   UNL     1      14.513   4.735   3.045  0.00  0.00    +0.150 HD
ATOM     35  H   UNL     1      13.584   5.765   4.559  0.00  0.00    +0.156 HD
BRANCH   6  27
ATOM     27  C   UNL     1      13.064   7.731   4.932  0.00  0.00    +0.036 A 
ATOM     28  C   UNL     1      12.180   8.640   4.351  0.00  0.00    +0.042 A 
ATOM     29  C   UNL     1      13.393   7.843   6.283  0.00  0.00    +0.023 A 
ATOM     30  C   UNL     1      11.624   9.662   5.121  0.00  0.00    +0.054 A 
ATOM     31  C   UNL     1      12.836   8.865   7.053  0.00  0.00    +0.003 A 
ATOM     32  C   UNL     1      11.952   9.774   6.472  0.00  0.00    +0.019 A 
BRANCH  30  33
ATOM      7  N   UNL     1       9.984  11.349   4.041  0.00  0.00    -0.191 NA
ATOM     33  C   UNL     1      10.718  10.594   4.525  0.00  0.00    +0.099 C 
ENDBRANCH  30  33
ENDBRANCH   6  27
ENDBRANCH  16   4
ENDBRANCH  10  16
TORSDOF 6
ENDMDL
MODEL 7
REMARK VINA RESULT:      -6.1     24.309     27.497
REMARK  Name = 40780092
REMARK  7 active torsions:
REMARK  status: ('A' for Active; 'I' for Inactive)
REMARK    1  A    between atoms: N_3  and  C_24
REMARK    2  A    between atoms: N_4  and  C_16
REMARK    3  A    between atoms: N_6  and  C_27
REMARK    4  A    between atoms: C_9  and  C_15
REMARK    5  A    between atoms: C_10  and  C_16
REMARK    6  A    between atoms: C_18  and  C_19
REMARK    7  A    between atoms: C_30  and  C_33
REMARK                            x       y       z     vdW  Elec       q    Type
REMARK                         _______ _______ _______ _____ _____    ______ ____
ROOT
ATOM      2  N   UNL     1      14.914   3.953  -0.526  0.00  0.00    -0.297 NA
ATOM      8  C   UNL     1      14.064   6.397  -0.821  0.00  0.00    +0.002 C 
ATOM      9  C   UNL     1      15.243   6.350   0.190  0.00  0.00    +0.055 C 
ATOM     10  C   UNL     1      13.436   3.999  -0.370  0.00  0.00    +0.074 C 
ATOM     11  C   UNL     1      12.938   5.460  -0.335  0.00  0.00    +0.024 C 
ATOM     12  C   UNL     1      15.558   4.851   0.464  0.00  0.00    +0.094 C 
ATOM     13  C   UNL     1      14.593   5.818  -2.150  0.00  0.00    +0.019 C 
ATOM     14  C   UNL     1      15.243   4.448  -1.884  0.00  0.00    +0.085 C 
ENDROOT
BRANCH   9  15
ATOM      3  N   UNL     1      16.143   7.914   1.975  0.00  0.00    -0.271 N 
ATOM      5  N   UNL     1      15.834   8.552   3.117  0.00  0.00    -0.176 NA
ATOM     15  C   UNL     1      15.124   7.158   1.473  0.00  0.00    +0.044 A 
ATOM     17  C   UNL     1      14.076   7.312   2.349  0.00  0.00    +0.048 A 
ATOM     18  C   UNL     1      14.571   8.180   3.340  0.00  0.00    +0.066 A 
ATOM     24  C   UNL     1      17.461   8.078   1.409  0.00  0.00    +0.172 C 
BRANCH  18  19
ATOM     19  C   UNL     1      13.839   8.698   4.565  0.00  0.00    +0.040 C 
ATOM     20  C   UNL     1      13.898   7.699   5.733  0.00  0.00    +0.010 C 
ATOM     21  C   UNL     1      12.383   9.081   4.242  0.00  0.00    +0.010 C 
ATOM     22  C   UNL     1      13.167   8.232   6.964  0.00  0.00    +0.001 C 
ATOM     23  C   UNL     1      11.658   9.609   5.478  0.00  0.00    +0.001 C 
ATOM     25  C   UNL     1      11.727   8.620   6.638  0.00  0.00    +0.000 C 
ENDBRANCH  18  19
ENDBRANCH   9  15
BRANCH  10  16
ATOM     16  C   UNL     1      12.952   3.204   0.844  0.00  0.00    +0.124 C 
BRANCH  16   4
ATOM      1  O   UNL     1      10.457   3.833   2.104  0.00  0.00    -0.253 OA
ATOM      4  N   UNL     1      12.756   4.061   1.972  0.00  0.00    -0.298 N 
ATOM      6  N   UNL     1      11.615   5.195   3.626  0.00  0.00    -0.269 N 
ATOM     26  C   UNL     1      11.496   4.324   2.539  0.00  0.00    +0.304 C 
ATOM     34  H   UNL     1      13.571   4.506   2.383  0.00  0.00    +0.150 HD
ATOM     35  H   UNL     1      12.553   5.512   3.856  0.00  0.00    +0.156 HD
BRANCH   6  27
ATOM     27  C   UNL     1      10.582   5.696   4.453  0.00  0.00    +0.036 A 
ATOM     28  C   UNL     1      10.512   5.311   5.792  0.00  0.00    +0.042 A 
ATOM     29  C   UNL     1       9.634   6.575   3.929  0.00  0.00    +0.023 A 
ATOM     30  C   UNL     1       9.495   5.806   6.608  0.00  0.00    +0.054 A 
ATOM     31  C   UNL     1       8.616   7.069   4.745  0.00  0.00    +0.003 A 
ATOM     32  C   UNL     1       8.546   6.685   6.084  0.00  0.00    +0.019 A 
BRANCH  30  33
ATOM      7  N   UNL     1       9.366   5.091   9.093  0.00  0.00    -0.191 NA
ATOM     33  C   UNL     1       9.423   5.412   7.980  0.00  0.00    +0.099 C 
ENDBRANCH  30  33
ENDBRANCH   6  27
ENDBRANCH  16   4
ENDBRANCH  10  16
TORSDOF 6
ENDMDL
MODEL 8
REMARK VINA RESULT:      -6.0      4.164      6.678
REMARK  Name = 40780092
REMARK  7 active torsions:
REMARK  status: ('A' for Active; 'I' for Inactive)
REMARK    1  A    between atoms: N_3  and  C_24
REMARK    2  A    between atoms: N_4  and  C_16
REMARK    3  A    between atoms: N_6  and  C_27
REMARK    4  A    between atoms: C_9  and  C_15
REMARK    5  A    between atoms: C_10  and  C_16
REMARK    6  A    between atoms: C_18  and  C_19
REMARK    7  A    between atoms: C_30  and  C_33
REMARK                            x       y       z     vdW  Elec       q    Type
REMARK                         _______ _______ _______ _____ _____    ______ ____
ROOT
ATOM      2  N   UNL     1      -5.299 -10.736  18.375  0.00  0.00    -0.297 NA
ATOM      8  C   UNL     1      -5.008 -12.653  16.637  0.00  0.00    +0.002 C 
ATOM      9  C   UNL     1      -4.039 -11.481  16.320  0.00  0.00    +0.055 C 
ATOM     10  C   UNL     1      -6.624 -11.139  17.837  0.00  0.00    +0.074 C 
ATOM     11  C   UNL     1      -6.458 -12.125  16.661  0.00  0.00    +0.024 C 
ATOM     12  C   UNL     1      -4.411 -10.304  17.267  0.00  0.00    +0.094 C 
ATOM     13  C   UNL     1      -4.677 -13.131  18.067  0.00  0.00    +0.019 C 
ATOM     14  C   UNL     1      -4.691 -11.923  19.021  0.00  0.00    +0.085 C 
ENDROOT
BRANCH   9  15
ATOM      3  N   UNL     1      -2.699 -10.738  14.296  0.00  0.00    -0.271 N 
ATOM      5  N   UNL     1      -2.793 -10.364  13.008  0.00  0.00    -0.176 NA
ATOM     15  C   UNL     1      -3.900 -11.035  14.872  0.00  0.00    +0.044 A 
ATOM     17  C   UNL     1      -4.844 -10.841  13.893  0.00  0.00    +0.048 A 
ATOM     18  C   UNL     1      -4.105 -10.429  12.768  0.00  0.00    +0.066 A 
ATOM     24  C   UNL     1      -1.400 -10.789  14.924  0.00  0.00    +0.172 C 
BRANCH  18  19
ATOM     19  C   UNL     1      -4.636 -10.075  11.391  0.00  0.00    +0.040 C 
ATOM     20  C   UNL     1      -5.130 -11.318  10.630  0.00  0.00    +0.010 C 
ATOM     21  C   UNL     1      -3.601  -9.296  10.560  0.00  0.00    +0.010 C 
ATOM     22  C   UNL     1      -5.672 -10.950   9.250  0.00  0.00    +0.001 C 
ATOM     23  C   UNL     1      -4.149  -8.937   9.180  0.00  0.00    +0.001 C 
ATOM     25  C   UNL     1      -4.646 -10.170   8.432  0.00  0.00    +0.000 C 
ENDBRANCH  18  19
ENDBRANCH   9  15
BRANCH  10  16
ATOM     16  C   UNL     1      -7.489  -9.936  17.453  0.00  0.00    +0.124 C 
BRANCH  16   4
ATOM      1  O   UNL     1      -9.913 -11.400  17.887  0.00  0.00    -0.253 OA
ATOM      4  N   UNL     1      -8.477  -9.677  18.454  0.00  0.00    -0.298 N 
ATOM      6  N   UNL     1     -10.422  -9.953  19.665  0.00  0.00    -0.269 N 
ATOM     26  C   UNL     1      -9.648 -10.441  18.608  0.00  0.00    +0.304 C 
ATOM     34  H   UNL     1      -8.327  -8.896  19.085  0.00  0.00    +0.150 HD
ATOM     35  H   UNL     1     -10.057  -9.146  20.163  0.00  0.00    +0.156 HD
BRANCH   6  27
ATOM     27  C   UNL     1     -11.663 -10.448  20.132  0.00  0.00    +0.036 A 
ATOM     28  C   UNL     1     -12.758  -9.591  20.242  0.00  0.00    +0.042 A 
ATOM     29  C   UNL     1     -11.790 -11.792  20.483  0.00  0.00    +0.023 A 
ATOM     30  C   UNL     1     -13.982 -10.079  20.701  0.00  0.00    +0.054 A 
ATOM     31  C   UNL     1     -13.014 -12.279  20.942  0.00  0.00    +0.003 A 
ATOM     32  C   UNL     1     -14.109 -11.423  21.051  0.00  0.00    +0.019 A 
BRANCH  30  33
ATOM      7  N   UNL     1     -16.015  -8.490  20.905  0.00  0.00    -0.191 NA
ATOM     33  C   UNL     1     -15.104  -9.201  20.813  0.00  0.00    +0.099 C 
ENDBRANCH  30  33
ENDBRANCH   6  27
ENDBRANCH  16   4
ENDBRANCH  10  16
TORSDOF 6
ENDMDL
MODEL 9
REMARK VINA RESULT:      -6.0     25.658     28.445
REMARK  Name = 40780092
REMARK  7 active torsions:
REMARK  status: ('A' for Active; 'I' for Inactive)
REMARK    1  A    between atoms: N_3  and  C_24
REMARK    2  A    between atoms: N_4  and  C_16
REMARK    3  A    between atoms: N_6  and  C_27
REMARK    4  A    between atoms: C_9  and  C_15
REMARK    5  A    between atoms: C_10  and  C_16
REMARK    6  A    between atoms: C_18  and  C_19
REMARK    7  A    between atoms: C_30  and  C_33
REMARK                            x       y       z     vdW  Elec       q    Type
REMARK                         _______ _______ _______ _____ _____    ______ ____
ROOT
ATOM      2  N   UNL     1      17.270  10.818   4.768  0.00  0.00    -0.297 NA
ATOM      8  C   UNL     1      18.337   8.474   4.380  0.00  0.00    +0.002 C 
ATOM      9  C   UNL     1      17.642   8.976   3.084  0.00  0.00    +0.055 C 
ATOM     10  C   UNL     1      16.860   9.887   5.852  0.00  0.00    +0.074 C 
ATOM     11  C   UNL     1      17.311   8.445   5.532  0.00  0.00    +0.024 C 
ATOM     12  C   UNL     1      16.863  10.272   3.449  0.00  0.00    +0.094 C 
ATOM     13  C   UNL     1      19.404   9.527   4.750  0.00  0.00    +0.019 C 
ATOM     14  C   UNL     1      18.749  10.919   4.791  0.00  0.00    +0.085 C 
ENDROOT
BRANCH   9  15
ATOM      3  N   UNL     1      17.122   7.544   1.053  0.00  0.00    -0.271 N 
ATOM      5  N   UNL     1      16.235   6.679   0.532  0.00  0.00    -0.176 NA
ATOM     15  C   UNL     1      16.788   7.991   2.299  0.00  0.00    +0.044 A 
ATOM     17  C   UNL     1      15.601   7.376   2.613  0.00  0.00    +0.048 A 
ATOM     18  C   UNL     1      15.310   6.580   1.489  0.00  0.00    +0.066 A 
ATOM     24  C   UNL     1      18.290   7.907   0.286  0.00  0.00    +0.172 C 
BRANCH  18  19
ATOM     19  C   UNL     1      14.108   5.675   1.284  0.00  0.00    +0.040 C 
ATOM     20  C   UNL     1      12.893   6.142   2.104  0.00  0.00    +0.010 C 
ATOM     21  C   UNL     1      14.442   4.203   1.584  0.00  0.00    +0.010 C 
ATOM     22  C   UNL     1      11.686   5.232   1.883  0.00  0.00    +0.001 C 
ATOM     23  C   UNL     1      13.229   3.300   1.365  0.00  0.00    +0.001 C 
ATOM     25  C   UNL     1      12.023   3.771   2.173  0.00  0.00    +0.000 C 
ENDBRANCH  18  19
ENDBRANCH   9  15
BRANCH  10  16
ATOM     16  C   UNL     1      15.361   9.962   6.150  0.00  0.00    +0.124 C 
BRANCH  16   4
ATOM      1  O   UNL     1      12.576   9.321   6.351  0.00  0.00    -0.253 OA
ATOM      4  N   UNL     1      14.788   8.653   6.220  0.00  0.00    -0.298 N 
ATOM      6  N   UNL     1      13.143   7.042   6.369  0.00  0.00    -0.269 N 
ATOM     26  C   UNL     1      13.406   8.414   6.318  0.00  0.00    +0.304 C 
ATOM     34  H   UNL     1      15.414   7.854   6.201  0.00  0.00    +0.150 HD
ATOM     35  H   UNL     1      13.948   6.422   6.331  0.00  0.00    +0.156 HD
BRANCH   6  27
ATOM     27  C   UNL     1      11.885   6.402   6.469  0.00  0.00    +0.036 A 
ATOM     28  C   UNL     1      11.379   6.048   7.720  0.00  0.00    +0.042 A 
ATOM     29  C   UNL     1      11.150   6.127   5.315  0.00  0.00    +0.023 A 
ATOM     30  C   UNL     1      10.138   5.419   7.818  0.00  0.00    +0.054 A 
ATOM     31  C   UNL     1       9.909   5.497   5.414  0.00  0.00    +0.003 A 
ATOM     32  C   UNL     1       9.403   5.143   6.664  0.00  0.00    +0.019 A 
BRANCH  30  33
ATOM      7  N   UNL     1       9.200   4.760  10.139  0.00  0.00    -0.191 NA
ATOM     33  C   UNL     1       9.620   5.056   9.100  0.00  0.00    +0.099 C 
ENDBRANCH  30  33
ENDBRANCH   6  27
ENDBRANCH  16   4
ENDBRANCH  10  16
TORSDOF 6
ENDMDL
MODEL 10
REMARK VINA RESULT:      -5.9     30.581     32.855
REMARK  Name = 40780092
REMARK  7 active torsions:
REMARK  status: ('A' for Active; 'I' for Inactive)
REMARK    1  A    between atoms: N_3  and  C_24
REMARK    2  A    between atoms: N_4  and  C_16
REMARK    3  A    between atoms: N_6  and  C_27
REMARK    4  A    between atoms: C_9  and  C_15
REMARK    5  A    between atoms: C_10  and  C_16
REMARK    6  A    between atoms: C_18  and  C_19
REMARK    7  A    between atoms: C_30  and  C_33
REMARK                            x       y       z     vdW  Elec       q    Type
REMARK                         _______ _______ _______ _____ _____    ______ ____
ROOT
ATOM      2  N   UNL     1      -9.524  10.539  36.653  0.00  0.00    -0.297 NA
ATOM      8  C   UNL     1      -9.296   8.146  37.653  0.00  0.00    +0.002 C 
ATOM      9  C   UNL     1      -9.191   9.215  38.774  0.00  0.00    +0.055 C 
ATOM     10  C   UNL     1      -8.517   9.761  35.885  0.00  0.00    +0.074 C 
ATOM     11  C   UNL     1      -8.217   8.418  36.584  0.00  0.00    +0.024 C 
ATOM     12  C   UNL     1      -9.132  10.607  38.082  0.00  0.00    +0.094 C 
ATOM     13  C   UNL     1     -10.668   8.347  36.973  0.00  0.00    +0.019 C 
ATOM     14  C   UNL     1     -10.818   9.821  36.561  0.00  0.00    +0.085 C 
ENDROOT
BRANCH   9  15
ATOM      3  N   UNL     1      -8.340   8.514  41.061  0.00  0.00    -0.271 N 
ATOM      5  N   UNL     1      -7.249   8.453  41.843  0.00  0.00    -0.176 NA
ATOM     15  C   UNL     1      -8.105   9.048  39.828  0.00  0.00    +0.044 A 
ATOM     17  C   UNL     1      -6.767   9.360  39.802  0.00  0.00    +0.048 A 
ATOM     18  C   UNL     1      -6.292   8.971  41.068  0.00  0.00    +0.066 A 
ATOM     24  C   UNL     1      -9.602   8.032  41.571  0.00  0.00    +0.172 C 
BRANCH  18  19
ATOM     19  C   UNL     1      -4.873   9.082  41.597  0.00  0.00    +0.040 C 
ATOM     20  C   UNL     1      -3.892   9.554  40.510  0.00  0.00    +0.010 C 
ATOM     21  C   UNL     1      -4.395   7.766  42.236  0.00  0.00    +0.010 C 
ATOM     22  C   UNL     1      -2.470   9.673  41.053  0.00  0.00    +0.001 C 
ATOM     23  C   UNL     1      -2.970   7.892  42.773  0.00  0.00    +0.001 C 
ATOM     25  C   UNL     1      -2.002   8.369  41.695  0.00  0.00    +0.000 C 
ENDBRANCH  18  19
ENDBRANCH   9  15
BRANCH  10  16
ATOM     16  C   UNL     1      -7.240  10.562  35.619  0.00  0.00    +0.124 C 
BRANCH  16   4
ATOM      1  O   UNL     1      -4.895  10.830  37.243  0.00  0.00    -0.253 OA
ATOM      4  N   UNL     1      -6.093   9.708  35.612  0.00  0.00    -0.298 N 
ATOM      6  N   UNL     1      -4.012   8.914  36.213  0.00  0.00    -0.269 N 
ATOM     26  C   UNL     1      -4.974   9.902  36.441  0.00  0.00    +0.304 C 
ATOM     34  H   UNL     1      -6.085   8.921  34.970  0.00  0.00    +0.150 HD
ATOM     35  H   UNL     1      -4.234   8.215  35.509  0.00  0.00    +0.156 HD
BRANCH   6  27
ATOM     27  C   UNL     1      -2.754   8.764  36.845  0.00  0.00    +0.036 A 
ATOM     28  C   UNL     1      -2.491   7.632  37.616  0.00  0.00    +0.042 A 
ATOM     29  C   UNL     1      -1.778   9.750  36.696  0.00  0.00    +0.023 A 
ATOM     30  C   UNL     1      -1.251   7.484  38.239  0.00  0.00    +0.054 A 
ATOM     31  C   UNL     1      -0.538   9.602  37.319  0.00  0.00    +0.003 A 
ATOM     32  C   UNL     1      -0.275   8.470  38.090  0.00  0.00    +0.019 A 
BRANCH  30  33
ATOM      7  N   UNL     1      -0.764   5.383  39.669  0.00  0.00    -0.191 NA
ATOM     33  C   UNL     1      -0.982   6.325  39.029  0.00  0.00    +0.099 C 
ENDBRANCH  30  33
ENDBRANCH   6  27
ENDBRANCH  16   4
ENDBRANCH  10  16
TORSDOF 6
ENDMDL
