MODEL 1
REMARK VINA RESULT:      -7.0      0.000      0.000
REMARK  Name = 75536888
REMARK  5 active torsions:
REMARK  status: ('A' for Active; 'I' for Inactive)
REMARK    1  A    between atoms: S_1  and  C_18
REMARK    2  A    between atoms: S_1  and  C_21
REMARK    3  A    between atoms: O_3  and  C_8
REMARK    4  A    between atoms: O_3  and  C_14
REMARK    5  A    between atoms: C_13  and  C_15
REMARK                            x       y       z     vdW  Elec       q    Type
REMARK                         _______ _______ _______ _____ _____    ______ ____
ROOT
ATOM      3  O   UNL     1      15.094   6.348  19.101  0.00  0.00    -0.485 OA
ENDROOT
BRANCH   3   8
ATOM      2  O   UNL     1      13.737   9.765  19.194  0.00  0.00    -0.375 OA
ATOM      4  O   UNL     1      11.502   5.779  21.662  0.00  0.00    -0.276 OA
ATOM      7  N   UNL     1      11.854   7.620  20.270  0.00  0.00    -0.296 N 
ATOM      8  C   UNL     1      14.226   7.380  19.567  0.00  0.00    +0.216 C 
ATOM      9  C   UNL     1      12.787   6.887  19.412  0.00  0.00    +0.154 C 
ATOM     10  C   UNL     1      14.515   8.651  18.775  0.00  0.00    +0.206 C 
ATOM     11  C   UNL     1      11.561   9.028  19.968  0.00  0.00    +0.136 C 
ATOM     12  C   UNL     1      12.362   9.665  18.840  0.00  0.00    +0.179 C 
ATOM     13  C   UNL     1      11.285   6.959  21.369  0.00  0.00    +0.213 C 
ATOM     15  C   UNL     1      10.355   7.775  22.234  0.00  0.00    +0.109 C 
ENDBRANCH   3   8
BRANCH   3  14
ATOM     14  C   UNL     1      16.349   6.315  19.643  0.00  0.00    +0.121 A 
ATOM     16  C   UNL     1      17.378   5.651  18.978  0.00  0.00    +0.047 A 
ATOM     17  C   UNL     1      16.599   6.945  20.862  0.00  0.00    +0.047 A 
ATOM     18  C   UNL     1      18.909   6.248  20.749  0.00  0.00    +0.088 A 
ATOM     19  C   UNL     1      18.659   5.617  19.530  0.00  0.00    +0.030 A 
ATOM     20  C   UNL     1      17.878   6.912  21.415  0.00  0.00    +0.030 A 
BRANCH  18   1
ATOM      1  S   UNL     1      20.512   6.209  21.439  0.00  0.00    -0.006 S 
ATOM      5  O   UNL     1      21.240   7.395  21.009  0.00  0.00    -0.170 OA
ATOM      6  O   UNL     1      20.383   5.917  22.859  0.00  0.00    -0.170 OA
ATOM     21  C   UNL     1      21.294   4.812  20.663  0.00  0.00    +0.200 C 
ENDBRANCH  18   1
ENDBRANCH   3  14
TORSDOF 3
ENDMDL
MODEL 2
REMARK VINA RESULT:      -6.4      2.168      3.776
REMARK  Name = 75536888
REMARK  5 active torsions:
REMARK  status: ('A' for Active; 'I' for Inactive)
REMARK    1  A    between atoms: S_1  and  C_18
REMARK    2  A    between atoms: S_1  and  C_21
REMARK    3  A    between atoms: O_3  and  C_8
REMARK    4  A    between atoms: O_3  and  C_14
REMARK    5  A    between atoms: C_13  and  C_15
REMARK                            x       y       z     vdW  Elec       q    Type
REMARK                         _______ _______ _______ _____ _____    ______ ____
ROOT
ATOM      3  O   UNL     1      14.400   7.967  20.340  0.00  0.00    -0.485 OA
ENDROOT
BRANCH   3   8
ATOM      2  O   UNL     1      12.161   7.208  17.522  0.00  0.00    -0.375 OA
ATOM      4  O   UNL     1      15.362  11.298  17.556  0.00  0.00    -0.276 OA
ATOM      7  N   UNL     1      13.445   9.974  17.418  0.00  0.00    -0.296 N 
ATOM      8  C   UNL     1      13.893   8.124  19.016  0.00  0.00    +0.216 C 
ATOM      9  C   UNL     1      13.515   9.594  18.830  0.00  0.00    +0.154 C 
ATOM     10  C   UNL     1      12.715   7.173  18.831  0.00  0.00    +0.206 C 
ATOM     11  C   UNL     1      12.359   9.437  16.587  0.00  0.00    +0.136 C 
ATOM     12  C   UNL     1      11.446   8.406  17.239  0.00  0.00    +0.179 C 
ATOM     13  C   UNL     1      14.432  10.824  16.897  0.00  0.00    +0.213 C 
ATOM     15  C   UNL     1      14.323  11.156  15.428  0.00  0.00    +0.109 C 
ENDBRANCH   3   8
BRANCH   3  14
ATOM     14  C   UNL     1      15.708   7.586  20.452  0.00  0.00    +0.121 A 
ATOM     16  C   UNL     1      16.567   8.281  21.301  0.00  0.00    +0.047 A 
ATOM     17  C   UNL     1      16.184   6.500  19.715  0.00  0.00    +0.047 A 
ATOM     18  C   UNL     1      18.377   6.807  20.679  0.00  0.00    +0.088 A 
ATOM     19  C   UNL     1      17.902   7.892  21.416  0.00  0.00    +0.030 A 
ATOM     20  C   UNL     1      17.518   6.111  19.828  0.00  0.00    +0.030 A 
BRANCH  18   1
ATOM      1  S   UNL     1      20.047   6.318  20.825  0.00  0.00    -0.006 S 
ATOM      5  O   UNL     1      20.186   4.958  20.322  0.00  0.00    -0.170 OA
ATOM      6  O   UNL     1      20.876   7.379  20.272  0.00  0.00    -0.170 OA
ATOM     21  C   UNL     1      20.339   6.254  22.578  0.00  0.00    +0.200 C 
ENDBRANCH  18   1
ENDBRANCH   3  14
TORSDOF 3
ENDMDL
MODEL 3
REMARK VINA RESULT:      -6.1      4.698      6.620
REMARK  Name = 75536888
REMARK  5 active torsions:
REMARK  status: ('A' for Active; 'I' for Inactive)
REMARK    1  A    between atoms: S_1  and  C_18
REMARK    2  A    between atoms: S_1  and  C_21
REMARK    3  A    between atoms: O_3  and  C_8
REMARK    4  A    between atoms: O_3  and  C_14
REMARK    5  A    between atoms: C_13  and  C_15
REMARK                            x       y       z     vdW  Elec       q    Type
REMARK                         _______ _______ _______ _____ _____    ______ ____
ROOT
ATOM      3  O   UNL     1      14.449   8.395  19.109  0.00  0.00    -0.485 OA
ENDROOT
BRANCH   3   8
ATOM      2  O   UNL     1      11.399   6.664  20.220  0.00  0.00    -0.375 OA
ATOM      4  O   UNL     1      13.008  11.147  22.291  0.00  0.00    -0.276 OA
ATOM      7  N   UNL     1      12.310   8.933  22.044  0.00  0.00    -0.296 N 
ATOM      8  C   UNL     1      13.223   8.273  19.829  0.00  0.00    +0.216 C 
ATOM      9  C   UNL     1      13.515   8.557  21.303  0.00  0.00    +0.154 C 
ATOM     10  C   UNL     1      12.655   6.878  19.588  0.00  0.00    +0.206 C 
ATOM     11  C   UNL     1      11.279   7.916  22.293  0.00  0.00    +0.136 C 
ATOM     12  C   UNL     1      11.488   6.558  21.637  0.00  0.00    +0.179 C 
ATOM     13  C   UNL     1      12.169  10.260  22.478  0.00  0.00    +0.213 C 
ATOM     15  C   UNL     1      10.893  10.593  23.211  0.00  0.00    +0.109 C 
ENDBRANCH   3   8
BRANCH   3  14
ATOM     14  C   UNL     1      14.415   9.151  17.971  0.00  0.00    +0.121 A 
ATOM     16  C   UNL     1      14.686  10.517  18.032  0.00  0.00    +0.047 A 
ATOM     17  C   UNL     1      14.109   8.555  16.746  0.00  0.00    +0.047 A 
ATOM     18  C   UNL     1      14.347  10.693  15.647  0.00  0.00    +0.088 A 
ATOM     19  C   UNL     1      14.652  11.289  16.870  0.00  0.00    +0.030 A 
ATOM     20  C   UNL     1      14.075   9.326  15.585  0.00  0.00    +0.030 A 
BRANCH  18   1
ATOM      1  S   UNL     1      14.308  11.658  14.192  0.00  0.00    -0.006 S 
ATOM      5  O   UNL     1      15.370  11.211  13.301  0.00  0.00    -0.170 OA
ATOM      6  O   UNL     1      12.933  11.695  13.715  0.00  0.00    -0.170 OA
ATOM     21  C   UNL     1      14.743  13.295  14.734  0.00  0.00    +0.200 C 
ENDBRANCH  18   1
ENDBRANCH   3  14
TORSDOF 3
ENDMDL
MODEL 4
REMARK VINA RESULT:      -5.8      3.899      6.841
REMARK  Name = 75536888
REMARK  5 active torsions:
REMARK  status: ('A' for Active; 'I' for Inactive)
REMARK    1  A    between atoms: S_1  and  C_18
REMARK    2  A    between atoms: S_1  and  C_21
REMARK    3  A    between atoms: O_3  and  C_8
REMARK    4  A    between atoms: O_3  and  C_14
REMARK    5  A    between atoms: C_13  and  C_15
REMARK                            x       y       z     vdW  Elec       q    Type
REMARK                         _______ _______ _______ _____ _____    ______ ____
ROOT
ATOM      3  O   UNL     1      11.676   8.544  17.661  0.00  0.00    -0.485 OA
ENDROOT
BRANCH   3   8
ATOM      2  O   UNL     1      11.298   8.514  21.319  0.00  0.00    -0.375 OA
ATOM      4  O   UNL     1      15.513   6.673  18.908  0.00  0.00    -0.276 OA
ATOM      7  N   UNL     1      13.623   6.843  20.268  0.00  0.00    -0.296 N 
ATOM      8  C   UNL     1      12.126   8.372  19.004  0.00  0.00    +0.216 C 
ATOM      9  C   UNL     1      12.719   6.968  19.123  0.00  0.00    +0.154 C 
ATOM     10  C   UNL     1      10.949   8.609  19.944  0.00  0.00    +0.206 C 
ATOM     11  C   UNL     1      13.065   6.883  21.626  0.00  0.00    +0.136 C 
ATOM     12  C   UNL     1      11.577   7.184  21.745  0.00  0.00    +0.179 C 
ATOM     13  C   UNL     1      15.000   6.710  20.030  0.00  0.00    +0.213 C 
ATOM     15  C   UNL     1      15.884   6.616  21.250  0.00  0.00    +0.109 C 
ENDBRANCH   3   8
BRANCH   3  14
ATOM     14  C   UNL     1      12.446   9.335  16.855  0.00  0.00    +0.121 A 
ATOM     16  C   UNL     1      12.024   9.633  15.560  0.00  0.00    +0.047 A 
ATOM     17  C   UNL     1      13.656   9.844  17.329  0.00  0.00    +0.047 A 
ATOM     18  C   UNL     1      14.020  10.950  15.212  0.00  0.00    +0.088 A 
ATOM     19  C   UNL     1      12.811  10.441  14.738  0.00  0.00    +0.030 A 
ATOM     20  C   UNL     1      14.443  10.651  16.507  0.00  0.00    +0.030 A 
BRANCH  18   1
ATOM      1  S   UNL     1      15.002  11.964  14.184  0.00  0.00    -0.006 S 
ATOM      5  O   UNL     1      15.361  11.215  12.988  0.00  0.00    -0.170 OA
ATOM      6  O   UNL     1      14.338  13.252  14.057  0.00  0.00    -0.170 OA
ATOM     21  C   UNL     1      16.501  12.211  15.109  0.00  0.00    +0.200 C 
ENDBRANCH  18   1
ENDBRANCH   3  14
TORSDOF 3
ENDMDL
MODEL 5
REMARK VINA RESULT:      -5.8      5.342      7.299
REMARK  Name = 75536888
REMARK  5 active torsions:
REMARK  status: ('A' for Active; 'I' for Inactive)
REMARK    1  A    between atoms: S_1  and  C_18
REMARK    2  A    between atoms: S_1  and  C_21
REMARK    3  A    between atoms: O_3  and  C_8
REMARK    4  A    between atoms: O_3  and  C_14
REMARK    5  A    between atoms: C_13  and  C_15
REMARK                            x       y       z     vdW  Elec       q    Type
REMARK                         _______ _______ _______ _____ _____    ______ ____
ROOT
ATOM      3  O   UNL     1      14.303   9.918  20.314  0.00  0.00    -0.485 OA
ENDROOT
BRANCH   3   8
ATOM      2  O   UNL     1      14.721  11.703  17.125  0.00  0.00    -0.375 OA
ATOM      4  O   UNL     1      11.064   8.093  17.875  0.00  0.00    -0.276 OA
ATOM      7  N   UNL     1      12.869   9.283  16.995  0.00  0.00    -0.296 N 
ATOM      8  C   UNL     1      13.926  10.310  18.995  0.00  0.00    +0.216 C 
ATOM      9  C   UNL     1      13.700   9.040  18.175  0.00  0.00    +0.154 C 
ATOM     10  C   UNL     1      15.019  11.208  18.424  0.00  0.00    +0.206 C 
ATOM     11  C   UNL     1      13.416  10.077  15.887  0.00  0.00    +0.136 C 
ATOM     12  C   UNL     1      14.785  10.707  16.109  0.00  0.00    +0.179 C 
ATOM     13  C   UNL     1      11.565   8.764  16.968  0.00  0.00    +0.213 C 
ATOM     15  C   UNL     1      10.747   9.072  15.738  0.00  0.00    +0.109 C 
ENDBRANCH   3   8
BRANCH   3  14
ATOM     14  C   UNL     1      13.555  10.426  21.340  0.00  0.00    +0.121 A 
ATOM     16  C   UNL     1      14.176  10.849  22.514  0.00  0.00    +0.047 A 
ATOM     17  C   UNL     1      12.168  10.519  21.211  0.00  0.00    +0.047 A 
ATOM     18  C   UNL     1      12.027  11.461  23.431  0.00  0.00    +0.088 A 
ATOM     19  C   UNL     1      13.412  11.367  23.560  0.00  0.00    +0.030 A 
ATOM     20  C   UNL     1      11.404  11.036  22.257  0.00  0.00    +0.030 A 
BRANCH  18   1
ATOM      1  S   UNL     1      11.071  12.112  24.740  0.00  0.00    -0.006 S 
ATOM      5  O   UNL     1       9.951  12.857  24.180  0.00  0.00    -0.170 OA
ATOM      6  O   UNL     1      10.820  11.039  25.690  0.00  0.00    -0.170 OA
ATOM     21  C   UNL     1      12.141  13.297  25.523  0.00  0.00    +0.200 C 
ENDBRANCH  18   1
ENDBRANCH   3  14
TORSDOF 3
ENDMDL
MODEL 6
REMARK VINA RESULT:      -5.8     26.633     28.561
REMARK  Name = 75536888
REMARK  5 active torsions:
REMARK  status: ('A' for Active; 'I' for Inactive)
REMARK    1  A    between atoms: S_1  and  C_18
REMARK    2  A    between atoms: S_1  and  C_21
REMARK    3  A    between atoms: O_3  and  C_8
REMARK    4  A    between atoms: O_3  and  C_14
REMARK    5  A    between atoms: C_13  and  C_15
REMARK                            x       y       z     vdW  Elec       q    Type
REMARK                         _______ _______ _______ _____ _____    ______ ____
ROOT
ATOM      3  O   UNL     1     -11.138   9.890  20.305  0.00  0.00    -0.485 OA
ENDROOT
BRANCH   3   8
ATOM      2  O   UNL     1     -11.576  12.415  17.667  0.00  0.00    -0.375 OA
ATOM      4  O   UNL     1     -10.406   7.458  16.655  0.00  0.00    -0.276 OA
ATOM      7  N   UNL     1     -10.343   9.790  16.722  0.00  0.00    -0.296 N 
ATOM      8  C   UNL     1     -11.278  10.338  18.958  0.00  0.00    +0.216 C 
ATOM      9  C   UNL     1     -10.082   9.816  18.163  0.00  0.00    +0.154 C 
ATOM     10  C   UNL     1     -11.379  11.861  18.962  0.00  0.00    +0.206 C 
ATOM     11  C   UNL     1     -10.459  11.061  15.995  0.00  0.00    +0.136 C 
ATOM     12  C   UNL     1     -10.425  12.333  16.833  0.00  0.00    +0.179 C 
ATOM     13  C   UNL     1     -10.494   8.549  16.085  0.00  0.00    +0.213 C 
ATOM     15  C   UNL     1     -10.791   8.588  14.605  0.00  0.00    +0.109 C 
ENDBRANCH   3   8
BRANCH   3  14
ATOM     14  C   UNL     1     -12.005   8.918  20.719  0.00  0.00    +0.121 A 
ATOM     16  C   UNL     1     -11.684   7.573  20.540  0.00  0.00    +0.047 A 
ATOM     17  C   UNL     1     -13.214   9.272  21.321  0.00  0.00    +0.047 A 
ATOM     18  C   UNL     1     -13.777   6.936  21.564  0.00  0.00    +0.088 A 
ATOM     19  C   UNL     1     -12.570   6.581  20.962  0.00  0.00    +0.030 A 
ATOM     20  C   UNL     1     -14.099   8.281  21.743  0.00  0.00    +0.030 A 
BRANCH  18   1
ATOM      1  S   UNL     1     -14.884   5.694  22.096  0.00  0.00    -0.006 S 
ATOM      5  O   UNL     1     -14.225   4.399  21.994  0.00  0.00    -0.170 OA
ATOM      6  O   UNL     1     -15.453   6.115  23.368  0.00  0.00    -0.170 OA
ATOM     21  C   UNL     1     -16.185   5.711  20.883  0.00  0.00    +0.200 C 
ENDBRANCH  18   1
ENDBRANCH   3  14
TORSDOF 3
ENDMDL
MODEL 7
REMARK VINA RESULT:      -5.8     26.744     28.803
REMARK  Name = 75536888
REMARK  5 active torsions:
REMARK  status: ('A' for Active; 'I' for Inactive)
REMARK    1  A    between atoms: S_1  and  C_18
REMARK    2  A    between atoms: S_1  and  C_21
REMARK    3  A    between atoms: O_3  and  C_8
REMARK    4  A    between atoms: O_3  and  C_14
REMARK    5  A    between atoms: C_13  and  C_15
REMARK                            x       y       z     vdW  Elec       q    Type
REMARK                         _______ _______ _______ _____ _____    ______ ____
ROOT
ATOM      3  O   UNL     1     -10.835   7.904  18.960  0.00  0.00    -0.485 OA
ENDROOT
BRANCH   3   8
ATOM      2  O   UNL     1     -10.603  11.534  18.421  0.00  0.00    -0.375 OA
ATOM      4  O   UNL     1     -11.748   8.188  14.617  0.00  0.00    -0.276 OA
ATOM      7  N   UNL     1     -10.722   9.874  15.864  0.00  0.00    -0.296 N 
ATOM      8  C   UNL     1     -10.988   9.110  18.214  0.00  0.00    +0.216 C 
ATOM      9  C   UNL     1     -10.252   8.935  16.885  0.00  0.00    +0.154 C 
ATOM     10  C   UNL     1     -10.452  10.268  19.050  0.00  0.00    +0.206 C 
ATOM     11  C   UNL     1     -10.417  11.303  16.014  0.00  0.00    +0.136 C 
ATOM     12  C   UNL     1      -9.734  11.724  17.309  0.00  0.00    +0.179 C 
ATOM     13  C   UNL     1     -11.468   9.379  14.783  0.00  0.00    +0.213 C 
ATOM     15  C   UNL     1     -11.949  10.398  13.779  0.00  0.00    +0.109 C 
ENDBRANCH   3   8
BRANCH   3  14
ATOM     14  C   UNL     1     -11.938   7.460  19.636  0.00  0.00    +0.121 A 
ATOM     16  C   UNL     1     -11.787   6.658  20.767  0.00  0.00    +0.047 A 
ATOM     17  C   UNL     1     -13.214   7.809  19.194  0.00  0.00    +0.047 A 
ATOM     18  C   UNL     1     -14.188   6.556  21.014  0.00  0.00    +0.088 A 
ATOM     19  C   UNL     1     -12.913   6.206  21.457  0.00  0.00    +0.030 A 
ATOM     20  C   UNL     1     -14.339   7.357  19.883  0.00  0.00    +0.030 A 
BRANCH  18   1
ATOM      1  S   UNL     1     -15.597   5.992  21.880  0.00  0.00    -0.006 S 
ATOM      5  O   UNL     1     -16.440   7.135  22.202  0.00  0.00    -0.170 OA
ATOM      6  O   UNL     1     -16.155   4.867  21.144  0.00  0.00    -0.170 OA
ATOM     21  C   UNL     1     -14.953   5.373  23.418  0.00  0.00    +0.200 C 
ENDBRANCH  18   1
ENDBRANCH   3  14
TORSDOF 3
ENDMDL
MODEL 8
REMARK VINA RESULT:      -5.6     26.365     28.373
REMARK  Name = 75536888
REMARK  5 active torsions:
REMARK  status: ('A' for Active; 'I' for Inactive)
REMARK    1  A    between atoms: S_1  and  C_18
REMARK    2  A    between atoms: S_1  and  C_21
REMARK    3  A    between atoms: O_3  and  C_8
REMARK    4  A    between atoms: O_3  and  C_14
REMARK    5  A    between atoms: C_13  and  C_15
REMARK                            x       y       z     vdW  Elec       q    Type
REMARK                         _______ _______ _______ _____ _____    ______ ____
ROOT
ATOM      3  O   UNL     1      -4.737 -10.511  17.488  0.00  0.00    -0.485 OA
ENDROOT
BRANCH   3   8
ATOM      2  O   UNL     1      -7.011 -13.121  18.733  0.00  0.00    -0.375 OA
ATOM      4  O   UNL     1      -8.683  -8.521  16.998  0.00  0.00    -0.276 OA
ATOM      7  N   UNL     1      -8.304 -10.384  18.350  0.00  0.00    -0.296 N 
ATOM      8  C   UNL     1      -6.011 -11.109  17.722  0.00  0.00    +0.216 C 
ATOM      9  C   UNL     1      -6.874 -10.096  18.475  0.00  0.00    +0.154 C 
ATOM     10  C   UNL     1      -5.803 -12.411  18.490  0.00  0.00    +0.206 C 
ATOM     11  C   UNL     1      -8.854 -11.571  19.020  0.00  0.00    +0.136 C 
ATOM     12  C   UNL     1      -7.853 -12.498  19.698  0.00  0.00    +0.179 C 
ATOM     13  C   UNL     1      -9.101  -9.527  17.577  0.00  0.00    +0.213 C 
ATOM     15  C   UNL     1     -10.561  -9.893  17.463  0.00  0.00    +0.109 C 
ENDBRANCH   3   8
BRANCH   3  14
ATOM     14  C   UNL     1      -4.267 -10.556  16.205  0.00  0.00    +0.121 A 
ATOM     16  C   UNL     1      -2.900 -10.682  15.967  0.00  0.00    +0.047 A 
ATOM     17  C   UNL     1      -5.158 -10.475  15.133  0.00  0.00    +0.047 A 
ATOM     18  C   UNL     1      -3.310 -10.647  13.587  0.00  0.00    +0.088 A 
ATOM     19  C   UNL     1      -2.420 -10.727  14.657  0.00  0.00    +0.030 A 
ATOM     20  C   UNL     1      -4.679 -10.521  13.824  0.00  0.00    +0.030 A 
BRANCH  18   1
ATOM      1  S   UNL     1      -2.711 -10.708  11.947  0.00  0.00    -0.006 S 
ATOM      5  O   UNL     1      -1.436 -10.005  11.885  0.00  0.00    -0.170 OA
ATOM      6  O   UNL     1      -2.798 -12.086  11.488  0.00  0.00    -0.170 OA
ATOM     21  C   UNL     1      -3.879  -9.746  11.013  0.00  0.00    +0.200 C 
ENDBRANCH  18   1
ENDBRANCH   3  14
TORSDOF 3
ENDMDL
MODEL 9
REMARK VINA RESULT:      -5.5     16.796     18.674
REMARK  Name = 75536888
REMARK  5 active torsions:
REMARK  status: ('A' for Active; 'I' for Inactive)
REMARK    1  A    between atoms: S_1  and  C_18
REMARK    2  A    between atoms: S_1  and  C_21
REMARK    3  A    between atoms: O_3  and  C_8
REMARK    4  A    between atoms: O_3  and  C_14
REMARK    5  A    between atoms: C_13  and  C_15
REMARK                            x       y       z     vdW  Elec       q    Type
REMARK                         _______ _______ _______ _____ _____    ______ ____
ROOT
ATOM      3  O   UNL     1      10.170   6.280   2.103  0.00  0.00    -0.485 OA
ENDROOT
BRANCH   3   8
ATOM      2  O   UNL     1      10.606   3.779  -0.559  0.00  0.00    -0.375 OA
ATOM      4  O   UNL     1      14.538   5.490   2.371  0.00  0.00    -0.276 OA
ATOM      7  N   UNL     1      13.207   4.940   0.535  0.00  0.00    -0.296 N 
ATOM      8  C   UNL     1      10.890   5.298   1.360  0.00  0.00    +0.216 C 
ATOM      9  C   UNL     1      12.192   5.938   0.876  0.00  0.00    +0.154 C 
ATOM     10  C   UNL     1      10.004   4.805   0.221  0.00  0.00    +0.206 C 
ATOM     11  C   UNL     1      13.008   4.097  -0.652  0.00  0.00    +0.136 C 
ATOM     12  C   UNL     1      11.676   4.241  -1.377  0.00  0.00    +0.179 C 
ATOM     13  C   UNL     1      14.330   4.806   1.365  0.00  0.00    +0.213 C 
ATOM     15  C   UNL     1      15.326   3.740   0.978  0.00  0.00    +0.109 C 
ENDBRANCH   3   8
BRANCH   3  14
ATOM     14  C   UNL     1      10.165   6.136   3.462  0.00  0.00    +0.121 A 
ATOM     16  C   UNL     1      10.165   4.862   4.029  0.00  0.00    +0.047 A 
ATOM     17  C   UNL     1      10.160   7.264   4.283  0.00  0.00    +0.047 A 
ATOM     18  C   UNL     1      10.156   5.843   6.236  0.00  0.00    +0.088 A 
ATOM     19  C   UNL     1      10.161   4.715   5.416  0.00  0.00    +0.030 A 
ATOM     20  C   UNL     1      10.156   7.118   5.670  0.00  0.00    +0.030 A 
BRANCH  18   1
ATOM      1  S   UNL     1      10.154   5.659   7.973  0.00  0.00    -0.006 S 
ATOM      5  O   UNL     1      11.514   5.828   8.467  0.00  0.00    -0.170 OA
ATOM      6  O   UNL     1       9.083   6.485   8.510  0.00  0.00    -0.170 OA
ATOM     21  C   UNL     1       9.715   3.955   8.237  0.00  0.00    +0.200 C 
ENDBRANCH  18   1
ENDBRANCH   3  14
TORSDOF 3
ENDMDL
MODEL 10
REMARK VINA RESULT:      -5.5     26.017     28.860
REMARK  Name = 75536888
REMARK  5 active torsions:
REMARK  status: ('A' for Active; 'I' for Inactive)
REMARK    1  A    between atoms: S_1  and  C_18
REMARK    2  A    between atoms: S_1  and  C_21
REMARK    3  A    between atoms: O_3  and  C_8
REMARK    4  A    between atoms: O_3  and  C_14
REMARK    5  A    between atoms: C_13  and  C_15
REMARK                            x       y       z     vdW  Elec       q    Type
REMARK                         _______ _______ _______ _____ _____    ______ ____
ROOT
ATOM      3  O   UNL     1      -3.764 -11.237  17.376  0.00  0.00    -0.485 OA
ENDROOT
BRANCH   3   8
ATOM      2  O   UNL     1      -1.512 -10.125  14.689  0.00  0.00    -0.375 OA
ATOM      4  O   UNL     1      -6.659 -10.476  14.087  0.00  0.00    -0.276 OA
ATOM      7  N   UNL     1      -4.360 -10.745  13.787  0.00  0.00    -0.296 N 
ATOM      8  C   UNL     1      -3.454 -10.679  16.100  0.00  0.00    +0.216 C 
ATOM      9  C   UNL     1      -4.207 -11.485  15.041  0.00  0.00    +0.154 C 
ATOM     10  C   UNL     1      -1.940 -10.708  15.913  0.00  0.00    +0.206 C 
ATOM     11  C   UNL     1      -3.173 -10.489  12.960  0.00  0.00    +0.136 C 
ATOM     12  C   UNL     1      -1.830 -10.909  13.544  0.00  0.00    +0.179 C 
ATOM     13  C   UNL     1      -5.635 -10.286  13.425  0.00  0.00    +0.213 C 
ATOM     15  C   UNL     1      -5.724  -9.504  12.136  0.00  0.00    +0.109 C 
ENDBRANCH   3   8
BRANCH   3  14
ATOM     14  C   UNL     1      -5.079 -11.215  17.750  0.00  0.00    +0.121 A 
ATOM     16  C   UNL     1      -5.645 -12.322  18.379  0.00  0.00    +0.047 A 
ATOM     17  C   UNL     1      -5.856 -10.082  17.500  0.00  0.00    +0.047 A 
ATOM     18  C   UNL     1      -7.762 -11.167  18.510  0.00  0.00    +0.088 A 
ATOM     19  C   UNL     1      -6.987 -12.299  18.760  0.00  0.00    +0.030 A 
ATOM     20  C   UNL     1      -7.197 -10.059  17.880  0.00  0.00    +0.030 A 
BRANCH  18   1
ATOM      1  S   UNL     1      -9.441 -11.137  18.990  0.00  0.00    -0.006 S 
ATOM      5  O   UNL     1     -10.087 -12.356  18.524  0.00  0.00    -0.170 OA
ATOM      6  O   UNL     1      -9.498 -10.784  20.401  0.00  0.00    -0.170 OA
ATOM     21  C   UNL     1     -10.143  -9.792  18.062  0.00  0.00    +0.200 C 
ENDBRANCH  18   1
ENDBRANCH   3  14
TORSDOF 3
ENDMDL
