MODEL 1
REMARK VINA RESULT:      -7.1      0.000      0.000
REMARK  Name = 26743344
REMARK  9 active torsions:
REMARK  status: ('A' for Active; 'I' for Inactive)
REMARK    1  A    between atoms: O_4  and  C_29
REMARK    2  A    between atoms: O_4  and  C_36
REMARK    3  A    between atoms: N_7  and  C_25
REMARK    4  A    between atoms: N_9  and  C_26
REMARK    5  A    between atoms: C_10  and  C_14
REMARK    6  A    between atoms: C_11  and  C_15
REMARK    7  A    between atoms: C_14  and  C_17
REMARK    8  A    between atoms: C_15  and  C_18
REMARK    9  A    between atoms: C_24  and  C_26
REMARK                            x       y       z     vdW  Elec       q    Type
REMARK                         _______ _______ _______ _____ _____    ______ ____
ROOT
ATOM      5  N   UNL     1      10.941   6.955  20.829  0.00  0.00    -0.316 NA
ATOM     10  C   UNL     1      13.281   8.748  20.960  0.00  0.00    +0.004 C 
ATOM     11  C   UNL     1      12.879   7.990  19.672  0.00  0.00    +0.012 C 
ATOM     12  C   UNL     1      12.038   8.918  21.849  0.00  0.00    +0.019 C 
ATOM     13  C   UNL     1      12.111   6.695  19.990  0.00  0.00    +0.085 C 
ATOM     16  C   UNL     1      11.306   7.598  22.089  0.00  0.00    +0.081 C 
ATOM     37  H   UNL     1      10.464   6.074  21.025  0.00  0.00    +0.122 HD
ENDROOT
BRANCH  10  14
ATOM     14  C   UNL     1      14.424   8.089  21.740  0.00  0.00    +0.100 C 
BRANCH  14  17
ATOM      1  O   UNL     1      15.459  10.135  22.338  0.00  0.00    -0.276 OA
ATOM      6  N   UNL     1      16.803   8.561  21.290  0.00  0.00    -0.298 N 
ATOM      7  N   UNL     1      19.356   7.364  21.423  0.00  0.00    -0.324 N 
ATOM     17  C   UNL     1      15.603   9.025  21.819  0.00  0.00    +0.216 C 
ATOM     19  C   UNL     1      17.015   7.253  20.666  0.00  0.00    +0.126 C 
ATOM     20  C   UNL     1      17.992   9.410  21.301  0.00  0.00    +0.126 C 
ATOM     21  C   UNL     1      18.163   6.509  21.349  0.00  0.00    +0.124 C 
ATOM     22  C   UNL     1      19.155   8.704  21.996  0.00  0.00    +0.124 C 
BRANCH   7  25
ATOM     25  C   UNL     1      20.619   6.778  21.568  0.00  0.00    +0.072 A 
ATOM     29  C   UNL     1      21.030   6.274  22.801  0.00  0.00    +0.141 A 
ATOM     30  C   UNL     1      21.469   6.702  20.464  0.00  0.00    +0.027 A 
ATOM     33  C   UNL     1      22.290   5.691  22.931  0.00  0.00    +0.047 A 
ATOM     34  C   UNL     1      22.730   6.120  20.595  0.00  0.00    +0.002 A 
ATOM     35  C   UNL     1      23.140   5.614  21.828  0.00  0.00    +0.004 A 
BRANCH  29   4
ATOM      4  O   UNL     1      20.214   6.338  23.891  0.00  0.00    -0.493 OA
ATOM     36  C   UNL     1      20.664   7.129  24.989  0.00  0.00    +0.277 C 
ENDBRANCH  29   4
ENDBRANCH   7  25
ENDBRANCH  14  17
ENDBRANCH  10  14
BRANCH  11  15
ATOM     15  C   UNL     1      14.066   7.699  18.753  0.00  0.00    +0.064 C 
BRANCH  15  18
ATOM      2  O   UNL     1      13.543   8.827  15.374  0.00  0.00    -0.358 OA
ATOM      8  N   UNL     1      13.518   7.851  16.362  0.00  0.00    -0.083 NA
ATOM     18  C   UNL     1      13.960   8.462  17.465  0.00  0.00    +0.084 A 
ATOM     23  C   UNL     1      14.277   9.813  17.235  0.00  0.00    +0.072 A 
ATOM     24  C   UNL     1      13.997   9.991  15.905  0.00  0.00    +0.151 A 
BRANCH  24  26
ATOM     26  C   UNL     1      14.087  11.136  14.993  0.00  0.00    +0.161 C 
BRANCH  26   9
ATOM      3  O   UNL     1      17.342  13.724  14.423  0.00  0.00    -0.377 OA
ATOM      9  N   UNL     1      15.242  11.993  15.256  0.00  0.00    -0.291 NA
ATOM     27  C   UNL     1      16.439  11.478  14.576  0.00  0.00    +0.113 C 
ATOM     28  C   UNL     1      14.977  13.374  14.830  0.00  0.00    +0.113 C 
ATOM     31  C   UNL     1      17.627  12.393  14.856  0.00  0.00    +0.175 C 
ATOM     32  C   UNL     1      16.198  14.244  15.103  0.00  0.00    +0.175 C 
ENDBRANCH  26   9
ENDBRANCH  24  26
ENDBRANCH  15  18
ENDBRANCH  11  15
TORSDOF 8
ENDMDL
MODEL 2
REMARK VINA RESULT:      -6.9      3.984      8.743
REMARK  Name = 26743344
REMARK  9 active torsions:
REMARK  status: ('A' for Active; 'I' for Inactive)
REMARK    1  A    between atoms: O_4  and  C_29
REMARK    2  A    between atoms: O_4  and  C_36
REMARK    3  A    between atoms: N_7  and  C_25
REMARK    4  A    between atoms: N_9  and  C_26
REMARK    5  A    between atoms: C_10  and  C_14
REMARK    6  A    between atoms: C_11  and  C_15
REMARK    7  A    between atoms: C_14  and  C_17
REMARK    8  A    between atoms: C_15  and  C_18
REMARK    9  A    between atoms: C_24  and  C_26
REMARK                            x       y       z     vdW  Elec       q    Type
REMARK                         _______ _______ _______ _____ _____    ______ ____
ROOT
ATOM      5  N   UNL     1      12.001   6.985  17.632  0.00  0.00    -0.316 NA
ATOM     10  C   UNL     1      13.881   8.906  18.848  0.00  0.00    +0.004 C 
ATOM     11  C   UNL     1      13.984   7.379  19.073  0.00  0.00    +0.012 C 
ATOM     12  C   UNL     1      13.149   9.169  17.521  0.00  0.00    +0.019 C 
ATOM     13  C   UNL     1      12.617   6.690  18.926  0.00  0.00    +0.085 C 
ATOM     16  C   UNL     1      11.819   8.420  17.430  0.00  0.00    +0.081 C 
ATOM     37  H   UNL     1      11.095   6.519  17.575  0.00  0.00    +0.122 HD
ENDROOT
BRANCH  10  14
ATOM     14  C   UNL     1      13.211   9.664  20.000  0.00  0.00    +0.100 C 
BRANCH  14  17
ATOM      1  O   UNL     1      15.039  11.160  19.807  0.00  0.00    -0.276 OA
ATOM      6  N   UNL     1      13.920  11.146  21.840  0.00  0.00    -0.298 N 
ATOM      7  N   UNL     1      12.874  12.861  23.823  0.00  0.00    -0.324 N 
ATOM     17  C   UNL     1      14.143  10.723  20.533  0.00  0.00    +0.216 C 
ATOM     19  C   UNL     1      12.869  10.652  22.733  0.00  0.00    +0.126 C 
ATOM     20  C   UNL     1      14.788  12.151  22.448  0.00  0.00    +0.126 C 
ATOM     21  C   UNL     1      12.018  11.809  23.256  0.00  0.00    +0.124 C 
ATOM     22  C   UNL     1      13.970  13.334  22.963  0.00  0.00    +0.124 C 
BRANCH   7  25
ATOM     25  C   UNL     1      12.338  13.764  24.749  0.00  0.00    +0.072 A 
ATOM     29  C   UNL     1      12.777  13.768  26.072  0.00  0.00    +0.141 A 
ATOM     30  C   UNL     1      11.357  14.666  24.336  0.00  0.00    +0.027 A 
ATOM     33  C   UNL     1      12.236  14.674  26.984  0.00  0.00    +0.047 A 
ATOM     34  C   UNL     1      10.815  15.572  25.249  0.00  0.00    +0.002 A 
ATOM     35  C   UNL     1      11.255  15.576  26.572  0.00  0.00    +0.004 A 
BRANCH  29   4
ATOM      4  O   UNL     1      13.736  12.896  26.494  0.00  0.00    -0.493 OA
ATOM     36  C   UNL     1      15.003  13.448  26.845  0.00  0.00    +0.277 C 
ENDBRANCH  29   4
ENDBRANCH   7  25
ENDBRANCH  14  17
ENDBRANCH  10  14
BRANCH  11  15
ATOM     15  C   UNL     1      14.628   7.013  20.411  0.00  0.00    +0.064 C 
BRANCH  15  18
ATOM      2  O   UNL     1      17.974   6.110  19.436  0.00  0.00    -0.358 OA
ATOM      8  N   UNL     1      16.594   6.073  19.276  0.00  0.00    -0.083 NA
ATOM     18  C   UNL     1      16.110   6.823  20.270  0.00  0.00    +0.084 A 
ATOM     23  C   UNL     1      17.129   7.356  21.081  0.00  0.00    +0.072 A 
ATOM     24  C   UNL     1      18.280   6.877  20.513  0.00  0.00    +0.151 A 
BRANCH  24  26
ATOM     26  C   UNL     1      19.706   7.025  20.828  0.00  0.00    +0.161 C 
BRANCH  26   9
ATOM      3  O   UNL     1      22.492   4.145  22.074  0.00  0.00    -0.377 OA
ATOM      9  N   UNL     1      20.289   5.829  21.433  0.00  0.00    -0.291 NA
ATOM     27  C   UNL     1      20.942   4.996  20.414  0.00  0.00    +0.113 C 
ATOM     28  C   UNL     1      21.255   6.191  22.480  0.00  0.00    +0.113 C 
ATOM     31  C   UNL     1      21.554   3.761  21.069  0.00  0.00    +0.175 C 
ATOM     32  C   UNL     1      21.859   4.930  23.086  0.00  0.00    +0.175 C 
ENDBRANCH  26   9
ENDBRANCH  24  26
ENDBRANCH  15  18
ENDBRANCH  11  15
TORSDOF 8
ENDMDL
MODEL 3
REMARK VINA RESULT:      -6.8     27.260     30.999
REMARK  Name = 26743344
REMARK  9 active torsions:
REMARK  status: ('A' for Active; 'I' for Inactive)
REMARK    1  A    between atoms: O_4  and  C_29
REMARK    2  A    between atoms: O_4  and  C_36
REMARK    3  A    between atoms: N_7  and  C_25
REMARK    4  A    between atoms: N_9  and  C_26
REMARK    5  A    between atoms: C_10  and  C_14
REMARK    6  A    between atoms: C_11  and  C_15
REMARK    7  A    between atoms: C_14  and  C_17
REMARK    8  A    between atoms: C_15  and  C_18
REMARK    9  A    between atoms: C_24  and  C_26
REMARK                            x       y       z     vdW  Elec       q    Type
REMARK                         _______ _______ _______ _____ _____    ______ ____
ROOT
ATOM      5  N   UNL     1     -10.543 -10.638  14.694  0.00  0.00    -0.316 NA
ATOM     10  C   UNL     1      -9.623  -9.796  17.368  0.00  0.00    +0.004 C 
ATOM     11  C   UNL     1     -10.743  -9.056  16.598  0.00  0.00    +0.012 C 
ATOM     12  C   UNL     1      -9.547 -11.249  16.870  0.00  0.00    +0.019 C 
ATOM     13  C   UNL     1     -10.594  -9.226  15.077  0.00  0.00    +0.085 C 
ATOM     16  C   UNL     1      -9.441 -11.340  15.348  0.00  0.00    +0.081 C 
ATOM     37  H   UNL     1     -10.436 -10.710  13.682  0.00  0.00    +0.122 HD
ENDROOT
BRANCH  10  14
ATOM     14  C   UNL     1      -8.251  -9.117  17.279  0.00  0.00    +0.100 C 
BRANCH  14  17
ATOM      1  O   UNL     1      -7.472 -10.346  19.151  0.00  0.00    -0.276 OA
ATOM      6  N   UNL     1      -6.026 -10.182  17.343  0.00  0.00    -0.298 N 
ATOM      7  N   UNL     1      -4.261 -11.707  15.753  0.00  0.00    -0.324 N 
ATOM     17  C   UNL     1      -7.220  -9.936  18.014  0.00  0.00    +0.216 C 
ATOM     19  C   UNL     1      -5.689  -9.714  15.997  0.00  0.00    +0.126 C 
ATOM     20  C   UNL     1      -4.961 -10.947  17.987  0.00  0.00    +0.126 C 
ATOM     21  C   UNL     1      -5.294 -10.889  15.101  0.00  0.00    +0.124 C 
ATOM     22  C   UNL     1      -4.556 -12.142  17.127  0.00  0.00    +0.124 C 
BRANCH   7  25
ATOM     25  C   UNL     1      -3.434 -12.525  14.975  0.00  0.00    +0.072 A 
ATOM     29  C   UNL     1      -2.252 -12.026  14.430  0.00  0.00    +0.141 A 
ATOM     30  C   UNL     1      -3.802 -13.851  14.747  0.00  0.00    +0.027 A 
ATOM     33  C   UNL     1      -1.436 -12.853  13.658  0.00  0.00    +0.047 A 
ATOM     34  C   UNL     1      -2.986 -14.678  13.974  0.00  0.00    +0.002 A 
ATOM     35  C   UNL     1      -1.804 -14.179  13.430  0.00  0.00    +0.004 A 
BRANCH  29   4
ATOM      4  O   UNL     1      -1.874 -10.733  14.642  0.00  0.00    -0.493 OA
ATOM     36  C   UNL     1      -0.990 -10.489  15.734  0.00  0.00    +0.277 C 
ENDBRANCH  29   4
ENDBRANCH   7  25
ENDBRANCH  14  17
ENDBRANCH  10  14
BRANCH  11  15
ATOM     15  C   UNL     1     -10.845  -7.576  16.966  0.00  0.00    +0.064 C 
BRANCH  15  18
ATOM      2  O   UNL     1     -13.640  -6.267  15.112  0.00  0.00    -0.358 OA
ATOM      8  N   UNL     1     -13.085  -7.101  16.075  0.00  0.00    -0.083 NA
ATOM     18  C   UNL     1     -11.774  -6.845  16.041  0.00  0.00    +0.084 A 
ATOM     23  C   UNL     1     -11.446  -5.868  15.084  0.00  0.00    +0.072 A 
ATOM     24  C   UNL     1     -12.654  -5.538  14.529  0.00  0.00    +0.151 A 
BRANCH  24  26
ATOM     26  C   UNL     1     -13.067  -4.598  13.480  0.00  0.00    +0.161 C 
BRANCH  26   9
ATOM      3  O   UNL     1     -11.988  -4.807   9.430  0.00  0.00    -0.377 OA
ATOM      9  N   UNL     1     -12.269  -4.709  12.260  0.00  0.00    -0.291 NA
ATOM     27  C   UNL     1     -12.658  -5.899  11.490  0.00  0.00    +0.113 C 
ATOM     28  C   UNL     1     -12.413  -3.504  11.431  0.00  0.00    +0.113 C 
ATOM     31  C   UNL     1     -11.822  -5.987  10.217  0.00  0.00    +0.175 C 
ATOM     32  C   UNL     1     -11.583  -3.648  10.160  0.00  0.00    +0.175 C 
ENDBRANCH  26   9
ENDBRANCH  24  26
ENDBRANCH  15  18
ENDBRANCH  11  15
TORSDOF 8
ENDMDL
MODEL 4
REMARK VINA RESULT:      -6.7      3.541      7.774
REMARK  Name = 26743344
REMARK  9 active torsions:
REMARK  status: ('A' for Active; 'I' for Inactive)
REMARK    1  A    between atoms: O_4  and  C_29
REMARK    2  A    between atoms: O_4  and  C_36
REMARK    3  A    between atoms: N_7  and  C_25
REMARK    4  A    between atoms: N_9  and  C_26
REMARK    5  A    between atoms: C_10  and  C_14
REMARK    6  A    between atoms: C_11  and  C_15
REMARK    7  A    between atoms: C_14  and  C_17
REMARK    8  A    between atoms: C_15  and  C_18
REMARK    9  A    between atoms: C_24  and  C_26
REMARK                            x       y       z     vdW  Elec       q    Type
REMARK                         _______ _______ _______ _____ _____    ______ ____
ROOT
ATOM      5  N   UNL     1      11.973   7.266  17.498  0.00  0.00    -0.316 NA
ATOM     10  C   UNL     1      14.298   8.825  18.430  0.00  0.00    +0.004 C 
ATOM     11  C   UNL     1      14.078   7.342  18.812  0.00  0.00    +0.012 C 
ATOM     12  C   UNL     1      13.561   9.117  17.112  0.00  0.00    +0.019 C 
ATOM     13  C   UNL     1      12.587   6.965  18.791  0.00  0.00    +0.085 C 
ATOM     16  C   UNL     1      12.098   8.680  17.152  0.00  0.00    +0.081 C 
ATOM     37  H   UNL     1      10.986   7.010  17.525  0.00  0.00    +0.122 HD
ENDROOT
BRANCH  10  14
ATOM     14  C   UNL     1      13.881   9.819  19.520  0.00  0.00    +0.100 C 
BRANCH  14  17
ATOM      1  O   UNL     1      15.971  10.931  19.400  0.00  0.00    -0.276 OA
ATOM      6  N   UNL     1      15.167  10.459  21.526  0.00  0.00    -0.298 N 
ATOM      7  N   UNL     1      14.840  11.593  24.090  0.00  0.00    -0.324 N 
ATOM     17  C   UNL     1      15.102  10.454  20.135  0.00  0.00    +0.216 C 
ATOM     19  C   UNL     1      14.159   9.903  22.431  0.00  0.00    +0.126 C 
ATOM     20  C   UNL     1      16.325  11.031  22.208  0.00  0.00    +0.126 C 
ATOM     21  C   UNL     1      13.689  10.962  23.430  0.00  0.00    +0.124 C 
ATOM     22  C   UNL     1      15.891  12.110  23.199  0.00  0.00    +0.124 C 
BRANCH   7  25
ATOM     25  C   UNL     1      14.667  12.226  25.326  0.00  0.00    +0.072 A 
ATOM     29  C   UNL     1      13.936  13.409  25.422  0.00  0.00    +0.141 A 
ATOM     30  C   UNL     1      15.234  11.661  26.469  0.00  0.00    +0.027 A 
ATOM     33  C   UNL     1      13.770  14.028  26.660  0.00  0.00    +0.047 A 
ATOM     34  C   UNL     1      15.068  12.281  27.708  0.00  0.00    +0.002 A 
ATOM     35  C   UNL     1      14.336  13.464  27.804  0.00  0.00    +0.004 A 
BRANCH  29   4
ATOM      4  O   UNL     1      13.374  13.976  24.317  0.00  0.00    -0.493 OA
ATOM     36  C   UNL     1      11.994  14.325  24.401  0.00  0.00    +0.277 C 
ENDBRANCH  29   4
ENDBRANCH   7  25
ENDBRANCH  14  17
ENDBRANCH  10  14
BRANCH  11  15
ATOM     15  C   UNL     1      14.707   6.970  20.155  0.00  0.00    +0.064 C 
BRANCH  15  18
ATOM      2  O   UNL     1      17.876   5.636  19.087  0.00  0.00    -0.358 OA
ATOM      8  N   UNL     1      16.510   5.837  18.929  0.00  0.00    -0.083 NA
ATOM     18  C   UNL     1      16.141   6.558  19.992  0.00  0.00    +0.084 A 
ATOM     23  C   UNL     1      17.222   6.839  20.847  0.00  0.00    +0.072 A 
ATOM     24  C   UNL     1      18.288   6.237  20.232  0.00  0.00    +0.151 A 
BRANCH  24  26
ATOM     26  C   UNL     1      19.715   6.123  20.555  0.00  0.00    +0.161 C 
BRANCH  26   9
ATOM      3  O   UNL     1      21.990   8.037  23.518  0.00  0.00    -0.377 OA
ATOM      9  N   UNL     1      20.087   6.830  21.780  0.00  0.00    -0.291 NA
ATOM     27  C   UNL     1      21.010   6.022  22.588  0.00  0.00    +0.113 C 
ATOM     28  C   UNL     1      20.697   8.130  21.468  0.00  0.00    +0.113 C 
ATOM     31  C   UNL     1      21.392   6.784  23.853  0.00  0.00    +0.175 C 
ATOM     32  C   UNL     1      21.087   8.842  22.759  0.00  0.00    +0.175 C 
ENDBRANCH  26   9
ENDBRANCH  24  26
ENDBRANCH  15  18
ENDBRANCH  11  15
TORSDOF 8
ENDMDL
MODEL 5
REMARK VINA RESULT:      -6.7     28.659     31.801
REMARK  Name = 26743344
REMARK  9 active torsions:
REMARK  status: ('A' for Active; 'I' for Inactive)
REMARK    1  A    between atoms: O_4  and  C_29
REMARK    2  A    between atoms: O_4  and  C_36
REMARK    3  A    between atoms: N_7  and  C_25
REMARK    4  A    between atoms: N_9  and  C_26
REMARK    5  A    between atoms: C_10  and  C_14
REMARK    6  A    between atoms: C_11  and  C_15
REMARK    7  A    between atoms: C_14  and  C_17
REMARK    8  A    between atoms: C_15  and  C_18
REMARK    9  A    between atoms: C_24  and  C_26
REMARK                            x       y       z     vdW  Elec       q    Type
REMARK                         _______ _______ _______ _____ _____    ______ ____
ROOT
ATOM      5  N   UNL     1      -2.611 -14.821  14.839  0.00  0.00    -0.316 NA
ATOM     10  C   UNL     1      -2.278 -12.175  13.576  0.00  0.00    +0.004 C 
ATOM     11  C   UNL     1      -3.292 -12.436  14.715  0.00  0.00    +0.012 C 
ATOM     12  C   UNL     1      -1.150 -13.216  13.662  0.00  0.00    +0.019 C 
ATOM     13  C   UNL     1      -3.749 -13.904  14.745  0.00  0.00    +0.085 C 
ATOM     16  C   UNL     1      -1.680 -14.648  13.728  0.00  0.00    +0.081 C 
ATOM     37  H   UNL     1      -2.953 -15.782  14.848  0.00  0.00    +0.122 HD
ENDROOT
BRANCH  10  14
ATOM     14  C   UNL     1      -2.902 -12.161  12.176  0.00  0.00    +0.100 C 
BRANCH  14  17
ATOM      1  O   UNL     1      -1.703 -10.186  11.650  0.00  0.00    -0.276 OA
ATOM      6  N   UNL     1      -3.909 -10.281  10.937  0.00  0.00    -0.298 N 
ATOM      7  N   UNL     1      -5.561  -9.732   8.715  0.00  0.00    -0.324 N 
ATOM     17  C   UNL     1      -2.777 -10.788  11.568  0.00  0.00    +0.216 C 
ATOM     19  C   UNL     1      -5.200 -10.962  10.818  0.00  0.00    +0.126 C 
ATOM     20  C   UNL     1      -3.887  -8.948  10.340  0.00  0.00    +0.126 C 
ATOM     21  C   UNL     1      -5.629 -11.054   9.353  0.00  0.00    +0.124 C 
ATOM     22  C   UNL     1      -4.290  -9.006   8.868  0.00  0.00    +0.124 C 
BRANCH   7  25
ATOM     25  C   UNL     1      -6.319  -9.479   7.565  0.00  0.00    +0.072 A 
ATOM     29  C   UNL     1      -7.355  -8.546   7.589  0.00  0.00    +0.141 A 
ATOM     30  C   UNL     1      -6.030 -10.172   6.389  0.00  0.00    +0.027 A 
ATOM     33  C   UNL     1      -8.101  -8.303   6.437  0.00  0.00    +0.047 A 
ATOM     34  C   UNL     1      -6.778  -9.929   5.237  0.00  0.00    +0.002 A 
ATOM     35  C   UNL     1      -7.813  -8.995   5.260  0.00  0.00    +0.004 A 
BRANCH  29   4
ATOM      4  O   UNL     1      -7.652  -7.859   8.729  0.00  0.00    -0.493 OA
ATOM     36  C   UNL     1      -8.992  -7.391   8.871  0.00  0.00    +0.277 C 
ENDBRANCH  29   4
ENDBRANCH   7  25
ENDBRANCH  14  17
ENDBRANCH  10  14
BRANCH  11  15
ATOM     15  C   UNL     1      -4.500 -11.499  14.669  0.00  0.00    +0.064 C 
BRANCH  15  18
ATOM      2  O   UNL     1      -4.894 -10.729  18.164  0.00  0.00    -0.358 OA
ATOM      8  N   UNL     1      -4.118 -11.023  17.049  0.00  0.00    -0.083 NA
ATOM     18  C   UNL     1      -4.991 -11.171  16.049  0.00  0.00    +0.084 A 
ATOM     23  C   UNL     1      -6.320 -10.982  16.468  0.00  0.00    +0.072 A 
ATOM     24  C   UNL     1      -6.203 -10.707  17.805  0.00  0.00    +0.151 A 
BRANCH  24  26
ATOM     26  C   UNL     1      -7.169 -10.408  18.869  0.00  0.00    +0.161 C 
BRANCH  26   9
ATOM      3  O   UNL     1      -9.924 -13.077  20.573  0.00  0.00    -0.377 OA
ATOM      9  N   UNL     1      -8.201 -11.433  19.013  0.00  0.00    -0.291 NA
ATOM     27  C   UNL     1      -7.690 -12.586  19.766  0.00  0.00    +0.113 C 
ATOM     28  C   UNL     1      -9.391 -10.885  19.680  0.00  0.00    +0.113 C 
ATOM     31  C   UNL     1      -8.787 -13.635  19.915  0.00  0.00    +0.175 C 
ATOM     32  C   UNL     1     -10.448 -11.974  19.831  0.00  0.00    +0.175 C 
ENDBRANCH  26   9
ENDBRANCH  24  26
ENDBRANCH  15  18
ENDBRANCH  11  15
TORSDOF 8
ENDMDL
MODEL 6
REMARK VINA RESULT:      -6.6     28.270     31.283
REMARK  Name = 26743344
REMARK  9 active torsions:
REMARK  status: ('A' for Active; 'I' for Inactive)
REMARK    1  A    between atoms: O_4  and  C_29
REMARK    2  A    between atoms: O_4  and  C_36
REMARK    3  A    between atoms: N_7  and  C_25
REMARK    4  A    between atoms: N_9  and  C_26
REMARK    5  A    between atoms: C_10  and  C_14
REMARK    6  A    between atoms: C_11  and  C_15
REMARK    7  A    between atoms: C_14  and  C_17
REMARK    8  A    between atoms: C_15  and  C_18
REMARK    9  A    between atoms: C_24  and  C_26
REMARK                            x       y       z     vdW  Elec       q    Type
REMARK                         _______ _______ _______ _____ _____    ______ ____
ROOT
ATOM      5  N   UNL     1      -4.162 -14.060  15.888  0.00  0.00    -0.316 NA
ATOM     10  C   UNL     1      -2.995 -11.841  14.332  0.00  0.00    +0.004 C 
ATOM     11  C   UNL     1      -3.315 -11.726  15.841  0.00  0.00    +0.012 C 
ATOM     12  C   UNL     1      -2.785 -13.322  13.976  0.00  0.00    +0.019 C 
ATOM     13  C   UNL     1      -4.454 -12.673  16.255  0.00  0.00    +0.085 C 
ATOM     16  C   UNL     1      -3.936 -14.207  14.453  0.00  0.00    +0.081 C 
ATOM     37  H   UNL     1      -4.941 -14.655  16.170  0.00  0.00    +0.122 HD
ENDROOT
BRANCH  10  14
ATOM     14  C   UNL     1      -4.052 -11.206  13.419  0.00  0.00    +0.100 C 
BRANCH  14  17
ATOM      1  O   UNL     1      -2.152 -10.281  12.345  0.00  0.00    -0.276 OA
ATOM      6  N   UNL     1      -4.221  -9.744  11.439  0.00  0.00    -0.298 N 
ATOM      7  N   UNL     1      -5.585  -9.506   8.980  0.00  0.00    -0.324 N 
ATOM     17  C   UNL     1      -3.383 -10.371  12.357  0.00  0.00    +0.216 C 
ATOM     19  C   UNL     1      -5.683  -9.825  11.421  0.00  0.00    +0.126 C 
ATOM     20  C   UNL     1      -3.661  -8.896  10.390  0.00  0.00    +0.126 C 
ATOM     21  C   UNL     1      -6.179 -10.309  10.058  0.00  0.00    +0.124 C 
ATOM     22  C   UNL     1      -4.121  -9.366   9.011  0.00  0.00    +0.124 C 
BRANCH   7  25
ATOM     25  C   UNL     1      -6.217  -9.447   7.732  0.00  0.00    +0.072 A 
ATOM     29  C   UNL     1      -7.218  -8.508   7.487  0.00  0.00    +0.141 A 
ATOM     30  C   UNL     1      -5.837 -10.340   6.730  0.00  0.00    +0.027 A 
ATOM     33  C   UNL     1      -7.839  -8.460   6.240  0.00  0.00    +0.047 A 
ATOM     34  C   UNL     1      -6.459 -10.291   5.482  0.00  0.00    +0.002 A 
ATOM     35  C   UNL     1      -7.459  -9.352   5.237  0.00  0.00    +0.004 A 
BRANCH  29   4
ATOM      4  O   UNL     1      -7.603  -7.627   8.454  0.00  0.00    -0.493 OA
ATOM     36  C   UNL     1      -8.966  -7.680   8.871  0.00  0.00    +0.277 C 
ENDBRANCH  29   4
ENDBRANCH   7  25
ENDBRANCH  14  17
ENDBRANCH  10  14
BRANCH  11  15
ATOM     15  C   UNL     1      -3.622 -10.293  16.281  0.00  0.00    +0.064 C 
BRANCH  15  18
ATOM      2  O   UNL     1      -6.442 -10.354  18.518  0.00  0.00    -0.358 OA
ATOM      8  N   UNL     1      -5.100 -10.562  18.225  0.00  0.00    -0.083 NA
ATOM     18  C   UNL     1      -4.964 -10.201  16.946  0.00  0.00    +0.084 A 
ATOM     23  C   UNL     1      -6.176  -9.759  16.385  0.00  0.00    +0.072 A 
ATOM     24  C   UNL     1      -7.072  -9.875  17.414  0.00  0.00    +0.151 A 
BRANCH  24  26
ATOM     26  C   UNL     1      -8.507  -9.596  17.548  0.00  0.00    +0.161 C 
BRANCH  26   9
ATOM      3  O   UNL     1     -11.219  -7.815  14.887  0.00  0.00    -0.377 OA
ATOM      9  N   UNL     1      -9.054  -8.840  16.423  0.00  0.00    -0.291 NA
ATOM     27  C   UNL     1      -9.857  -9.709  15.553  0.00  0.00    +0.113 C 
ATOM     28  C   UNL     1      -9.868  -7.713  16.899  0.00  0.00    +0.113 C 
ATOM     31  C   UNL     1     -10.427  -8.896  14.394  0.00  0.00    +0.175 C 
ATOM     32  C   UNL     1     -10.438  -6.947  15.709  0.00  0.00    +0.175 C 
ENDBRANCH  26   9
ENDBRANCH  24  26
ENDBRANCH  15  18
ENDBRANCH  11  15
TORSDOF 8
ENDMDL
MODEL 7
REMARK VINA RESULT:      -6.6     28.577     31.207
REMARK  Name = 26743344
REMARK  9 active torsions:
REMARK  status: ('A' for Active; 'I' for Inactive)
REMARK    1  A    between atoms: O_4  and  C_29
REMARK    2  A    between atoms: O_4  and  C_36
REMARK    3  A    between atoms: N_7  and  C_25
REMARK    4  A    between atoms: N_9  and  C_26
REMARK    5  A    between atoms: C_10  and  C_14
REMARK    6  A    between atoms: C_11  and  C_15
REMARK    7  A    between atoms: C_14  and  C_17
REMARK    8  A    between atoms: C_15  and  C_18
REMARK    9  A    between atoms: C_24  and  C_26
REMARK                            x       y       z     vdW  Elec       q    Type
REMARK                         _______ _______ _______ _____ _____    ______ ____
ROOT
ATOM      5  N   UNL     1      -6.040 -12.362  18.984  0.00  0.00    -0.316 NA
ATOM     10  C   UNL     1      -4.716 -11.008  16.722  0.00  0.00    +0.004 C 
ATOM     11  C   UNL     1      -6.219 -10.827  17.042  0.00  0.00    +0.012 C 
ATOM     12  C   UNL     1      -3.977 -11.422  18.005  0.00  0.00    +0.019 C 
ATOM     13  C   UNL     1      -6.797 -12.051  17.771  0.00  0.00    +0.085 C 
ATOM     16  C   UNL     1      -4.631 -12.618  18.696  0.00  0.00    +0.081 C 
ATOM     37  H   UNL     1      -6.447 -13.182  19.435  0.00  0.00    +0.122 HD
ENDROOT
BRANCH  10  14
ATOM     14  C   UNL     1      -4.435 -12.000  15.587  0.00  0.00    +0.100 C 
BRANCH  14  17
ATOM      1  O   UNL     1      -2.177 -11.521  15.049  0.00  0.00    -0.276 OA
ATOM      6  N   UNL     1      -3.769 -10.920  13.471  0.00  0.00    -0.298 N 
ATOM      7  N   UNL     1      -4.296 -10.981  10.699  0.00  0.00    -0.324 N 
ATOM     17  C   UNL     1      -3.354 -11.461  14.685  0.00  0.00    +0.216 C 
ATOM     19  C   UNL     1      -5.154 -10.830  13.003  0.00  0.00    +0.126 C 
ATOM     20  C   UNL     1      -2.793 -10.353  12.544  0.00  0.00    +0.126 C 
ATOM     21  C   UNL     1      -5.306 -11.496  11.635  0.00  0.00    +0.124 C 
ATOM     22  C   UNL     1      -2.903 -11.012  11.171  0.00  0.00    +0.124 C 
BRANCH   7  25
ATOM     25  C   UNL     1      -4.518 -11.080   9.320  0.00  0.00    +0.072 A 
ATOM     29  C   UNL     1      -5.037 -10.001   8.605  0.00  0.00    +0.141 A 
ATOM     30  C   UNL     1      -4.214 -12.272   8.662  0.00  0.00    +0.027 A 
ATOM     33  C   UNL     1      -5.251 -10.113   7.232  0.00  0.00    +0.047 A 
ATOM     34  C   UNL     1      -4.430 -12.384   7.288  0.00  0.00    +0.002 A 
ATOM     35  C   UNL     1      -4.948 -11.305   6.573  0.00  0.00    +0.004 A 
BRANCH  29   4
ATOM      4  O   UNL     1      -5.340  -8.828   9.230  0.00  0.00    -0.493 OA
ATOM     36  C   UNL     1      -6.683  -8.363   9.117  0.00  0.00    +0.277 C 
ENDBRANCH  29   4
ENDBRANCH   7  25
ENDBRANCH  14  17
ENDBRANCH  10  14
BRANCH  11  15
ATOM     15  C   UNL     1      -7.058 -10.491  15.808  0.00  0.00    +0.064 C 
BRANCH  15  18
ATOM      2  O   UNL     1      -9.368  -8.159  17.287  0.00  0.00    -0.358 OA
ATOM      8  N   UNL     1      -8.167  -8.859  17.271  0.00  0.00    -0.083 NA
ATOM     18  C   UNL     1      -8.210  -9.594  16.157  0.00  0.00    +0.084 A 
ATOM     23  C   UNL     1      -9.401  -9.401  15.435  0.00  0.00    +0.072 A 
ATOM     24  C   UNL     1     -10.094  -8.490  16.188  0.00  0.00    +0.151 A 
BRANCH  24  26
ATOM     26  C   UNL     1     -11.400  -7.837  16.045  0.00  0.00    +0.161 C 
BRANCH  26   9
ATOM      3  O   UNL     1     -13.122  -5.789  12.812  0.00  0.00    -0.377 OA
ATOM      9  N   UNL     1     -11.562  -7.148  14.766  0.00  0.00    -0.291 NA
ATOM     27  C   UNL     1     -12.509  -7.867  13.903  0.00  0.00    +0.113 C 
ATOM     28  C   UNL     1     -12.018  -5.766  14.971  0.00  0.00    +0.113 C 
ATOM     31  C   UNL     1     -12.671  -7.124  12.580  0.00  0.00    +0.175 C 
ATOM     32  C   UNL     1     -12.191  -5.072  13.624  0.00  0.00    +0.175 C 
ENDBRANCH  26   9
ENDBRANCH  24  26
ENDBRANCH  15  18
ENDBRANCH  11  15
TORSDOF 8
ENDMDL
MODEL 8
REMARK VINA RESULT:      -6.6      4.023      7.253
REMARK  Name = 26743344
REMARK  9 active torsions:
REMARK  status: ('A' for Active; 'I' for Inactive)
REMARK    1  A    between atoms: O_4  and  C_29
REMARK    2  A    between atoms: O_4  and  C_36
REMARK    3  A    between atoms: N_7  and  C_25
REMARK    4  A    between atoms: N_9  and  C_26
REMARK    5  A    between atoms: C_10  and  C_14
REMARK    6  A    between atoms: C_11  and  C_15
REMARK    7  A    between atoms: C_14  and  C_17
REMARK    8  A    between atoms: C_15  and  C_18
REMARK    9  A    between atoms: C_24  and  C_26
REMARK                            x       y       z     vdW  Elec       q    Type
REMARK                         _______ _______ _______ _____ _____    ______ ____
ROOT
ATOM      5  N   UNL     1      15.411   6.884  18.701  0.00  0.00    -0.316 NA
ATOM     10  C   UNL     1      12.828   7.452  20.008  0.00  0.00    +0.004 C 
ATOM     11  C   UNL     1      13.000   7.430  18.470  0.00  0.00    +0.012 C 
ATOM     12  C   UNL     1      13.922   6.581  20.647  0.00  0.00    +0.019 C 
ATOM     13  C   UNL     1      14.441   7.770  18.055  0.00  0.00    +0.085 C 
ATOM     16  C   UNL     1      15.322   6.949  20.157  0.00  0.00    +0.081 C 
ATOM     37  H   UNL     1      16.353   7.145  18.408  0.00  0.00    +0.122 HD
ENDROOT
BRANCH  10  14
ATOM     14  C   UNL     1      12.827   8.859  20.616  0.00  0.00    +0.100 C 
BRANCH  14  17
ATOM      1  O   UNL     1      11.124   7.954  21.993  0.00  0.00    -0.276 OA
ATOM      6  N   UNL     1      11.591  10.210  22.270  0.00  0.00    -0.298 N 
ATOM      7  N   UNL     1      11.988  12.179  24.253  0.00  0.00    -0.324 N 
ATOM     17  C   UNL     1      11.769   8.959  21.686  0.00  0.00    +0.216 C 
ATOM     19  C   UNL     1      12.335  11.426  21.933  0.00  0.00    +0.126 C 
ATOM     20  C   UNL     1      10.573  10.406  23.298  0.00  0.00    +0.126 C 
ATOM     21  C   UNL     1      12.983  12.025  23.182  0.00  0.00    +0.124 C 
ATOM     22  C   UNL     1      11.191  10.984  24.569  0.00  0.00    +0.124 C 
BRANCH   7  25
ATOM     25  C   UNL     1      12.218  13.100  25.282  0.00  0.00    +0.072 A 
ATOM     29  C   UNL     1      11.267  14.073  25.589  0.00  0.00    +0.141 A 
ATOM     30  C   UNL     1      13.410  13.037  26.003  0.00  0.00    +0.027 A 
ATOM     33  C   UNL     1      11.508  14.983  26.617  0.00  0.00    +0.047 A 
ATOM     34  C   UNL     1      13.651  13.948  27.032  0.00  0.00    +0.002 A 
ATOM     35  C   UNL     1      12.700  14.920  27.339  0.00  0.00    +0.004 A 
BRANCH  29   4
ATOM      4  O   UNL     1      10.096  14.150  24.896  0.00  0.00    -0.493 OA
ATOM     36  C   UNL     1      10.017  15.133  23.866  0.00  0.00    +0.277 C 
ENDBRANCH  29   4
ENDBRANCH   7  25
ENDBRANCH  14  17
ENDBRANCH  10  14
BRANCH  11  15
ATOM     15  C   UNL     1      12.004   8.334  17.743  0.00  0.00    +0.064 C 
BRANCH  15  18
ATOM      2  O   UNL     1      13.461  10.036  14.924  0.00  0.00    -0.358 OA
ATOM      8  N   UNL     1      12.760   8.981  15.496  0.00  0.00    -0.083 NA
ATOM     18  C   UNL     1      12.703   9.270  16.799  0.00  0.00    +0.084 A 
ATOM     23  C   UNL     1      13.345  10.483  17.106  0.00  0.00    +0.072 A 
ATOM     24  C   UNL     1      13.804  10.924  15.893  0.00  0.00    +0.151 A 
BRANCH  24  26
ATOM     26  C   UNL     1      14.555  12.108  15.460  0.00  0.00    +0.161 C 
BRANCH  26   9
ATOM      3  O   UNL     1      18.679  12.873  15.329  0.00  0.00    -0.377 OA
ATOM      9  N   UNL     1      15.997  11.980  15.659  0.00  0.00    -0.291 NA
ATOM     27  C   UNL     1      16.693  11.863  14.370  0.00  0.00    +0.113 C 
ATOM     28  C   UNL     1      16.524  13.126  16.414  0.00  0.00    +0.113 C 
ATOM     31  C   UNL     1      18.196  11.743  14.603  0.00  0.00    +0.175 C 
ATOM     32  C   UNL     1      18.030  12.976  16.598  0.00  0.00    +0.175 C 
ENDBRANCH  26   9
ENDBRANCH  24  26
ENDBRANCH  15  18
ENDBRANCH  11  15
TORSDOF 8
ENDMDL
MODEL 9
REMARK VINA RESULT:      -6.5      4.903      7.034
REMARK  Name = 26743344
REMARK  9 active torsions:
REMARK  status: ('A' for Active; 'I' for Inactive)
REMARK    1  A    between atoms: O_4  and  C_29
REMARK    2  A    between atoms: O_4  and  C_36
REMARK    3  A    between atoms: N_7  and  C_25
REMARK    4  A    between atoms: N_9  and  C_26
REMARK    5  A    between atoms: C_10  and  C_14
REMARK    6  A    between atoms: C_11  and  C_15
REMARK    7  A    between atoms: C_14  and  C_17
REMARK    8  A    between atoms: C_15  and  C_18
REMARK    9  A    between atoms: C_24  and  C_26
REMARK                            x       y       z     vdW  Elec       q    Type
REMARK                         _______ _______ _______ _____ _____    ______ ____
ROOT
ATOM      5  N   UNL     1      12.011   6.216  20.167  0.00  0.00    -0.316 NA
ATOM     10  C   UNL     1      12.160   9.156  19.972  0.00  0.00    +0.004 C 
ATOM     11  C   UNL     1      12.972   8.214  19.050  0.00  0.00    +0.012 C 
ATOM     12  C   UNL     1      10.919   8.408  20.485  0.00  0.00    +0.019 C 
ATOM     13  C   UNL     1      13.248   6.859  19.723  0.00  0.00    +0.085 C 
ATOM     16  C   UNL     1      11.267   7.054  21.104  0.00  0.00    +0.081 C 
ATOM     37  H   UNL     1      12.235   5.327  20.614  0.00  0.00    +0.122 HD
ENDROOT
BRANCH  10  14
ATOM     14  C   UNL     1      12.969   9.735  21.139  0.00  0.00    +0.100 C 
BRANCH  14  17
ATOM      1  O   UNL     1      12.751  11.778  19.957  0.00  0.00    -0.276 OA
ATOM      6  N   UNL     1      13.402  11.930  22.179  0.00  0.00    -0.298 N 
ATOM      7  N   UNL     1      12.921  13.385  24.550  0.00  0.00    -0.324 N 
ATOM     17  C   UNL     1      13.029  11.238  21.031  0.00  0.00    +0.216 C 
ATOM     19  C   UNL     1      13.740  11.327  23.470  0.00  0.00    +0.126 C 
ATOM     20  C   UNL     1      13.510  13.387  22.159  0.00  0.00    +0.126 C 
ATOM     21  C   UNL     1      12.873  11.916  24.584  0.00  0.00    +0.124 C 
ATOM     22  C   UNL     1      12.638  14.009  23.248  0.00  0.00    +0.124 C 
BRANCH   7  25
ATOM     25  C   UNL     1      12.607  14.114  25.703  0.00  0.00    +0.072 A 
ATOM     29  C   UNL     1      13.602  14.465  26.614  0.00  0.00    +0.141 A 
ATOM     30  C   UNL     1      11.284  14.489  25.935  0.00  0.00    +0.027 A 
ATOM     33  C   UNL     1      13.276  15.192  27.757  0.00  0.00    +0.047 A 
ATOM     34  C   UNL     1      10.957  15.216  27.080  0.00  0.00    +0.002 A 
ATOM     35  C   UNL     1      11.953  15.568  27.991  0.00  0.00    +0.004 A 
BRANCH  29   4
ATOM      4  O   UNL     1      14.901  14.108  26.403  0.00  0.00    -0.493 OA
ATOM     36  C   UNL     1      15.780  14.175  27.525  0.00  0.00    +0.277 C 
ENDBRANCH  29   4
ENDBRANCH   7  25
ENDBRANCH  14  17
ENDBRANCH  10  14
BRANCH  11  15
ATOM     15  C   UNL     1      14.274   8.841  18.550  0.00  0.00    +0.064 C 
BRANCH  15  18
ATOM      2  O   UNL     1      13.776   9.457  15.038  0.00  0.00    -0.358 OA
ATOM      8  N   UNL     1      13.876   8.612  16.137  0.00  0.00    -0.083 NA
ATOM     18  C   UNL     1      14.109   9.419  17.175  0.00  0.00    +0.084 A 
ATOM     23  C   UNL     1      14.167  10.773  16.796  0.00  0.00    +0.072 A 
ATOM     24  C   UNL     1      13.951  10.741  15.443  0.00  0.00    +0.151 A 
BRANCH  24  26
ATOM     26  C   UNL     1      13.876  11.772  14.402  0.00  0.00    +0.161 C 
BRANCH  26   9
ATOM      3  O   UNL     1      17.075  13.044  12.001  0.00  0.00    -0.377 OA
ATOM      9  N   UNL     1      15.021  11.758  13.493  0.00  0.00    -0.291 NA
ATOM     27  C   UNL     1      14.723  12.512  12.268  0.00  0.00    +0.113 C 
ATOM     28  C   UNL     1      16.215  12.312  14.148  0.00  0.00    +0.113 C 
ATOM     31  C   UNL     1      15.935  12.493  11.342  0.00  0.00    +0.175 C 
ATOM     32  C   UNL     1      17.391  12.298  13.178  0.00  0.00    +0.175 C 
ENDBRANCH  26   9
ENDBRANCH  24  26
ENDBRANCH  15  18
ENDBRANCH  11  15
TORSDOF 8
ENDMDL
MODEL 10
REMARK VINA RESULT:      -6.4     28.666     31.108
REMARK  Name = 26743344
REMARK  9 active torsions:
REMARK  status: ('A' for Active; 'I' for Inactive)
REMARK    1  A    between atoms: O_4  and  C_29
REMARK    2  A    between atoms: O_4  and  C_36
REMARK    3  A    between atoms: N_7  and  C_25
REMARK    4  A    between atoms: N_9  and  C_26
REMARK    5  A    between atoms: C_10  and  C_14
REMARK    6  A    between atoms: C_11  and  C_15
REMARK    7  A    between atoms: C_14  and  C_17
REMARK    8  A    between atoms: C_15  and  C_18
REMARK    9  A    between atoms: C_24  and  C_26
REMARK                            x       y       z     vdW  Elec       q    Type
REMARK                         _______ _______ _______ _____ _____    ______ ____
ROOT
ATOM      5  N   UNL     1      -4.008 -15.967  12.476  0.00  0.00    -0.316 NA
ATOM     10  C   UNL     1      -4.355 -13.281  13.647  0.00  0.00    +0.004 C 
ATOM     11  C   UNL     1      -3.382 -13.564  12.478  0.00  0.00    +0.012 C 
ATOM     12  C   UNL     1      -5.460 -14.351  13.649  0.00  0.00    +0.019 C 
ATOM     13  C   UNL     1      -2.891 -15.021  12.487  0.00  0.00    +0.085 C 
ATOM     16  C   UNL     1      -4.898 -15.771  13.618  0.00  0.00    +0.081 C 
ATOM     37  H   UNL     1      -3.644 -16.920  12.491  0.00  0.00    +0.122 HD
ENDROOT
BRANCH  10  14
ATOM     14  C   UNL     1      -3.675 -13.197  15.019  0.00  0.00    +0.100 C 
BRANCH  14  17
ATOM      1  O   UNL     1      -3.118 -10.896  15.134  0.00  0.00    -0.276 OA
ATOM      6  N   UNL     1      -4.760 -11.640  16.596  0.00  0.00    -0.298 N 
ATOM      7  N   UNL     1      -7.293 -10.960  17.637  0.00  0.00    -0.324 N 
ATOM     17  C   UNL     1      -3.819 -11.806  15.583  0.00  0.00    +0.216 C 
ATOM     19  C   UNL     1      -5.610 -12.693  17.156  0.00  0.00    +0.126 C 
ATOM     20  C   UNL     1      -4.950 -10.332  17.217  0.00  0.00    +0.126 C 
ATOM     21  C   UNL     1      -7.085 -12.299  17.068  0.00  0.00    +0.124 C 
ATOM     22  C   UNL     1      -6.412  -9.898  17.128  0.00  0.00    +0.124 C 
BRANCH   7  25
ATOM     25  C   UNL     1      -8.567 -10.590  18.084  0.00  0.00    +0.072 A 
ATOM     29  C   UNL     1      -9.048 -11.042  19.312  0.00  0.00    +0.141 A 
ATOM     30  C   UNL     1      -9.357  -9.761  17.288  0.00  0.00    +0.027 A 
ATOM     33  C   UNL     1     -10.318 -10.664  19.746  0.00  0.00    +0.047 A 
ATOM     34  C   UNL     1     -10.629  -9.384  17.721  0.00  0.00    +0.002 A 
ATOM     35  C   UNL     1     -11.109  -9.835  18.950  0.00  0.00    +0.004 A 
BRANCH  29   4
ATOM      4  O   UNL     1      -8.291 -11.853  20.105  0.00  0.00    -0.493 OA
ATOM     36  C   UNL     1      -8.687 -13.220  20.197  0.00  0.00    +0.277 C 
ENDBRANCH  29   4
ENDBRANCH   7  25
ENDBRANCH  14  17
ENDBRANCH  10  14
BRANCH  11  15
ATOM     15  C   UNL     1      -2.197 -12.598  12.438  0.00  0.00    +0.064 C 
BRANCH  15  18
ATOM      2  O   UNL     1      -2.372  -9.331  10.934  0.00  0.00    -0.358 OA
ATOM      8  N   UNL     1      -1.835 -10.244  11.833  0.00  0.00    -0.083 NA
ATOM     18  C   UNL     1      -2.516 -11.375  11.629  0.00  0.00    +0.084 A 
ATOM     23  C   UNL     1      -3.488 -11.237  10.621  0.00  0.00    +0.072 A 
ATOM     24  C   UNL     1      -3.355  -9.934  10.218  0.00  0.00    +0.151 A 
BRANCH  24  26
ATOM     26  C   UNL     1      -4.035  -9.108   9.214  0.00  0.00    +0.161 C 
BRANCH  26   9
ATOM      3  O   UNL     1      -8.054  -8.933   8.016  0.00  0.00    -0.377 OA
ATOM      9  N   UNL     1      -5.467  -9.385   9.114  0.00  0.00    -0.291 NA
ATOM     27  C   UNL     1      -6.254  -8.195   9.465  0.00  0.00    +0.113 C 
ATOM     28  C   UNL     1      -5.818  -9.838   7.760  0.00  0.00    +0.113 C 
ATOM     31  C   UNL     1      -7.743  -8.504   9.342  0.00  0.00    +0.175 C 
ATOM     32  C   UNL     1      -7.316 -10.108   7.677  0.00  0.00    +0.175 C 
ENDBRANCH  26   9
ENDBRANCH  24  26
ENDBRANCH  15  18
ENDBRANCH  11  15
TORSDOF 8
ENDMDL
