MODEL 1
REMARK VINA RESULT:      -6.3      0.000      0.000
REMARK  Name = 28961644
REMARK  9 active torsions:
REMARK  status: ('A' for Active; 'I' for Inactive)
REMARK    1  A    between atoms: S_1  and  N_10
REMARK    2  A    between atoms: S_1  and  C_22
REMARK    3  A    between atoms: O_4  and  C_13
REMARK    4  A    between atoms: O_5  and  C_20
REMARK    5  A    between atoms: N_8  and  C_11
REMARK    6  A    between atoms: N_9  and  C_21
REMARK    7  A    between atoms: N_10  and  C_17
REMARK    8  A    between atoms: C_12  and  C_17
REMARK    9  A    between atoms: C_14  and  C_20
REMARK                            x       y       z     vdW  Elec       q    Type
REMARK                         _______ _______ _______ _____ _____    ______ ____
ROOT
ATOM      3  O   UNL     1      10.683   7.948  20.256  0.00  0.00    -0.366 OA
ATOM     11  C   UNL     1      11.157   9.694  21.803  0.00  0.00    +0.118 C 
ATOM     12  C   UNL     1      11.002   9.355  20.314  0.00  0.00    +0.154 C 
ATOM     13  C   UNL     1      11.555   8.361  22.418  0.00  0.00    +0.165 C 
ATOM     14  C   UNL     1      10.704   7.405  21.590  0.00  0.00    +0.174 C 
ENDROOT
BRANCH  11   8
ATOM      8  N   UNL     1      12.039  10.816  22.122  0.00  0.00    -0.292 NA
ATOM      9  N   UNL     1      12.597  13.399  23.293  0.00  0.00    -0.303 NA
ATOM     15  C   UNL     1      11.552  12.054  21.503  0.00  0.00    +0.100 C 
ATOM     16  C   UNL     1      12.164  10.983  23.574  0.00  0.00    +0.100 C 
ATOM     18  C   UNL     1      12.472  13.231  21.840  0.00  0.00    +0.099 C 
ATOM     19  C   UNL     1      13.086  12.161  23.910  0.00  0.00    +0.099 C 
ATOM     21  C   UNL     1      13.476  14.521  23.613  0.00  0.00    +0.105 C 
ENDBRANCH  11   8
BRANCH  13   4
ATOM      4  O   UNL     1      12.937   8.089  22.223  0.00  0.00    -0.388 OA
ATOM     26  H   UNL     1      13.436   8.633  22.855  0.00  0.00    +0.210 HD
ENDBRANCH  13   4
BRANCH  12  17
ATOM     17  C   UNL     1      12.226   9.578  19.431  0.00  0.00    +0.139 C 
BRANCH  17  10
ATOM     10  N   UNL     1      12.767   8.332  18.977  0.00  0.00    -0.187 NA
ATOM     27  H   UNL     1      12.658   7.555  19.642  0.00  0.00    +0.148 HD
BRANCH  10   1
ATOM      1  S   UNL     1      14.178   8.275  17.988  0.00  0.00    +0.065 S 
ATOM      6  O   UNL     1      14.544   9.632  17.628  0.00  0.00    -0.153 OA
ATOM      7  O   UNL     1      14.030   7.262  16.961  0.00  0.00    -0.153 OA
BRANCH   1  22
ATOM      2  S   UNL     1      15.906   8.826  20.291  0.00  0.00    -0.077 S 
ATOM     22  C   UNL     1      15.379   7.675  19.138  0.00  0.00    +0.142 A 
ATOM     23  C   UNL     1      15.992   6.453  19.308  0.00  0.00    +0.036 A 
ATOM     24  C   UNL     1      16.908   6.462  20.400  0.00  0.00    +0.010 A 
ATOM     25  C   UNL     1      16.958   7.690  21.022  0.00  0.00    +0.047 A 
ENDBRANCH   1  22
ENDBRANCH  10   1
ENDBRANCH  17  10
ENDBRANCH  12  17
BRANCH  14  20
ATOM     20  C   UNL     1      11.196   5.969  21.539  0.00  0.00    +0.190 C 
BRANCH  20   5
ATOM      5  O   UNL     1      11.963   5.790  20.359  0.00  0.00    -0.392 OA
ATOM     28  H   UNL     1      11.340   5.575  19.643  0.00  0.00    +0.210 HD
ENDBRANCH  20   5
ENDBRANCH  14  20
TORSDOF 8
ENDMDL
MODEL 2
REMARK VINA RESULT:      -5.9     29.568     30.691
REMARK  Name = 28961644
REMARK  9 active torsions:
REMARK  status: ('A' for Active; 'I' for Inactive)
REMARK    1  A    between atoms: S_1  and  N_10
REMARK    2  A    between atoms: S_1  and  C_22
REMARK    3  A    between atoms: O_4  and  C_13
REMARK    4  A    between atoms: O_5  and  C_20
REMARK    5  A    between atoms: N_8  and  C_11
REMARK    6  A    between atoms: N_9  and  C_21
REMARK    7  A    between atoms: N_10  and  C_17
REMARK    8  A    between atoms: C_12  and  C_17
REMARK    9  A    between atoms: C_14  and  C_20
REMARK                            x       y       z     vdW  Elec       q    Type
REMARK                         _______ _______ _______ _____ _____    ______ ____
ROOT
ATOM      3  O   UNL     1     -15.485   0.142  29.111  0.00  0.00    -0.366 OA
ATOM     11  C   UNL     1     -15.192   1.647  30.933  0.00  0.00    +0.118 C 
ATOM     12  C   UNL     1     -15.981   1.391  29.642  0.00  0.00    +0.154 C 
ATOM     13  C   UNL     1     -13.893   0.890  30.696  0.00  0.00    +0.165 C 
ATOM     14  C   UNL     1     -14.413  -0.332  29.949  0.00  0.00    +0.174 C 
ENDROOT
BRANCH  11   8
ATOM      8  N   UNL     1     -15.036   3.045  31.329  0.00  0.00    -0.292 NA
ATOM      9  N   UNL     1     -15.229   5.223  33.220  0.00  0.00    -0.303 NA
ATOM     15  C   UNL     1     -16.332   3.635  31.680  0.00  0.00    +0.100 C 
ATOM     16  C   UNL     1     -14.095   3.168  32.449  0.00  0.00    +0.100 C 
ATOM     18  C   UNL     1     -16.170   5.100  32.099  0.00  0.00    +0.099 C 
ATOM     19  C   UNL     1     -13.933   4.634  32.866  0.00  0.00    +0.099 C 
ATOM     21  C   UNL     1     -15.074   6.620  33.618  0.00  0.00    +0.105 C 
ENDBRANCH  11   8
BRANCH  13   4
ATOM      4  O   UNL     1     -13.001   1.631  29.874  0.00  0.00    -0.388 OA
ATOM     26  H   UNL     1     -13.491   2.391  29.518  0.00  0.00    +0.210 HD
ENDBRANCH  13   4
BRANCH  12  17
ATOM     17  C   UNL     1     -15.845   2.436  28.539  0.00  0.00    +0.139 C 
BRANCH  17  10
ATOM     10  N   UNL     1     -17.104   2.673  27.898  0.00  0.00    -0.187 NA
ATOM     27  H   UNL     1     -17.908   2.705  28.539  0.00  0.00    +0.148 HD
BRANCH  10   1
ATOM      1  S   UNL     1     -17.433   2.064  26.319  0.00  0.00    +0.065 S 
ATOM      6  O   UNL     1     -18.867   2.091  26.104  0.00  0.00    -0.153 OA
ATOM      7  O   UNL     1     -16.683   0.845  26.086  0.00  0.00    -0.153 OA
BRANCH   1  22
ATOM      2  S   UNL     1     -17.705   4.683  25.032  0.00  0.00    -0.077 S 
ATOM     22  C   UNL     1     -16.707   3.320  25.309  0.00  0.00    +0.142 A 
ATOM     23  C   UNL     1     -15.484   3.438  24.685  0.00  0.00    +0.036 A 
ATOM     24  C   UNL     1     -15.365   4.665  23.970  0.00  0.00    +0.010 A 
ATOM     25  C   UNL     1     -16.501   5.437  24.075  0.00  0.00    +0.047 A 
ENDBRANCH   1  22
ENDBRANCH  10   1
ENDBRANCH  17  10
ENDBRANCH  12  17
BRANCH  14  20
ATOM     20  C   UNL     1     -13.391  -1.057  29.091  0.00  0.00    +0.190 C 
BRANCH  20   5
ATOM      5  O   UNL     1     -12.263  -1.371  29.891  0.00  0.00    -0.392 OA
ATOM     28  H   UNL     1     -11.682  -0.592  29.885  0.00  0.00    +0.210 HD
ENDBRANCH  20   5
ENDBRANCH  14  20
TORSDOF 8
ENDMDL
MODEL 3
REMARK VINA RESULT:      -5.6      1.795      2.303
REMARK  Name = 28961644
REMARK  9 active torsions:
REMARK  status: ('A' for Active; 'I' for Inactive)
REMARK    1  A    between atoms: S_1  and  N_10
REMARK    2  A    between atoms: S_1  and  C_22
REMARK    3  A    between atoms: O_4  and  C_13
REMARK    4  A    between atoms: O_5  and  C_20
REMARK    5  A    between atoms: N_8  and  C_11
REMARK    6  A    between atoms: N_9  and  C_21
REMARK    7  A    between atoms: N_10  and  C_17
REMARK    8  A    between atoms: C_12  and  C_17
REMARK    9  A    between atoms: C_14  and  C_20
REMARK                            x       y       z     vdW  Elec       q    Type
REMARK                         _______ _______ _______ _____ _____    ______ ____
ROOT
ATOM      3  O   UNL     1      12.484   8.431  19.731  0.00  0.00    -0.366 OA
ATOM     11  C   UNL     1      11.751  10.414  20.826  0.00  0.00    +0.118 C 
ATOM     12  C   UNL     1      12.806   9.832  19.876  0.00  0.00    +0.154 C 
ATOM     13  C   UNL     1      11.321   9.204  21.643  0.00  0.00    +0.165 C 
ATOM     14  C   UNL     1      11.360   8.117  20.575  0.00  0.00    +0.174 C 
ENDROOT
BRANCH  11   8
ATOM      8  N   UNL     1      12.157  11.581  21.607  0.00  0.00    -0.292 NA
ATOM      9  N   UNL     1      11.804  14.282  22.574  0.00  0.00    -0.303 NA
ATOM     15  C   UNL     1      12.387  12.738  20.735  0.00  0.00    +0.100 C 
ATOM     16  C   UNL     1      11.153  11.899  22.629  0.00  0.00    +0.100 C 
ATOM     18  C   UNL     1      12.809  13.963  21.551  0.00  0.00    +0.099 C 
ATOM     19  C   UNL     1      11.577  13.125  23.446  0.00  0.00    +0.099 C 
ATOM     21  C   UNL     1      12.208  15.450  23.353  0.00  0.00    +0.105 C 
ENDBRANCH  11   8
BRANCH  13   4
ATOM      4  O   UNL     1      12.253   8.916  22.677  0.00  0.00    -0.388 OA
ATOM     26  H   UNL     1      12.974   8.394  22.287  0.00  0.00    +0.210 HD
ENDBRANCH  13   4
BRANCH  12  17
ATOM     17  C   UNL     1      14.259   9.917  20.334  0.00  0.00    +0.139 C 
BRANCH  17  10
ATOM     10  N   UNL     1      14.996   8.760  19.922  0.00  0.00    -0.187 NA
ATOM     27  H   UNL     1      14.837   8.481  18.945  0.00  0.00    +0.148 HD
BRANCH  10   1
ATOM      1  S   UNL     1      15.328   7.473  21.021  0.00  0.00    +0.065 S 
ATOM      6  O   UNL     1      14.949   6.221  20.394  0.00  0.00    -0.153 OA
ATOM      7  O   UNL     1      14.838   7.805  22.345  0.00  0.00    -0.153 OA
BRANCH   1  22
ATOM      2  S   UNL     1      17.742   9.059  21.520  0.00  0.00    -0.077 S 
ATOM     22  C   UNL     1      17.094   7.533  21.094  0.00  0.00    +0.142 A 
ATOM     23  C   UNL     1      18.079   6.594  20.879  0.00  0.00    +0.036 A 
ATOM     24  C   UNL     1      19.384   7.135  21.066  0.00  0.00    +0.010 A 
ATOM     25  C   UNL     1      19.346   8.466  21.417  0.00  0.00    +0.047 A 
ENDBRANCH   1  22
ENDBRANCH  10   1
ENDBRANCH  17  10
ENDBRANCH  12  17
BRANCH  14  20
ATOM     20  C   UNL     1      11.506   6.697  21.094  0.00  0.00    +0.190 C 
BRANCH  20   5
ATOM      5  O   UNL     1      11.982   5.872  20.043  0.00  0.00    -0.392 OA
ATOM     28  H   UNL     1      12.342   5.067  20.452  0.00  0.00    +0.210 HD
ENDBRANCH  20   5
ENDBRANCH  14  20
TORSDOF 8
ENDMDL
MODEL 4
REMARK VINA RESULT:      -5.6     14.698     16.681
REMARK  Name = 28961644
REMARK  9 active torsions:
REMARK  status: ('A' for Active; 'I' for Inactive)
REMARK    1  A    between atoms: S_1  and  N_10
REMARK    2  A    between atoms: S_1  and  C_22
REMARK    3  A    between atoms: O_4  and  C_13
REMARK    4  A    between atoms: O_5  and  C_20
REMARK    5  A    between atoms: N_8  and  C_11
REMARK    6  A    between atoms: N_9  and  C_21
REMARK    7  A    between atoms: N_10  and  C_17
REMARK    8  A    between atoms: C_12  and  C_17
REMARK    9  A    between atoms: C_14  and  C_20
REMARK                            x       y       z     vdW  Elec       q    Type
REMARK                         _______ _______ _______ _____ _____    ______ ____
ROOT
ATOM      3  O   UNL     1       9.354   5.411   6.377  0.00  0.00    -0.366 OA
ATOM     11  C   UNL     1      10.760   7.333   6.354  0.00  0.00    +0.118 C 
ATOM     12  C   UNL     1      10.096   6.262   5.477  0.00  0.00    +0.154 C 
ATOM     13  C   UNL     1      10.880   6.641   7.704  0.00  0.00    +0.165 C 
ATOM     14  C   UNL     1       9.578   5.849   7.730  0.00  0.00    +0.174 C 
ENDROOT
BRANCH  11   8
ATOM      8  N   UNL     1      11.998   7.914   5.839  0.00  0.00    -0.292 NA
ATOM      9  N   UNL     1      13.680  10.145   5.097  0.00  0.00    -0.303 NA
ATOM     15  C   UNL     1      11.742   8.688   4.619  0.00  0.00    +0.100 C 
ATOM     16  C   UNL     1      12.640   8.756   6.856  0.00  0.00    +0.100 C 
ATOM     18  C   UNL     1      13.038   9.302   4.080  0.00  0.00    +0.099 C 
ATOM     19  C   UNL     1      13.937   9.369   6.316  0.00  0.00    +0.099 C 
ATOM     21  C   UNL     1      14.917  10.729   4.582  0.00  0.00    +0.105 C 
ENDBRANCH  11   8
BRANCH  13   4
ATOM      4  O   UNL     1      11.996   5.761   7.741  0.00  0.00    -0.388 OA
ATOM     26  H   UNL     1      11.887   5.116   7.023  0.00  0.00    +0.210 HD
ENDBRANCH  13   4
BRANCH  12  17
ATOM     17  C   UNL     1      11.030   5.364   4.671  0.00  0.00    +0.139 C 
BRANCH  17  10
ATOM     10  N   UNL     1      10.311   4.654   3.657  0.00  0.00    -0.187 NA
ATOM     27  H   UNL     1      10.098   3.675   3.893  0.00  0.00    +0.148 HD
BRANCH  10   1
ATOM      1  S   UNL     1      10.570   4.977   1.983  0.00  0.00    +0.065 S 
ATOM      6  O   UNL     1      10.446   6.406   1.764  0.00  0.00    -0.153 OA
ATOM      7  O   UNL     1       9.813   4.046   1.169  0.00  0.00    -0.153 OA
BRANCH   1  22
ATOM      2  S   UNL     1      13.349   5.880   1.754  0.00  0.00    -0.077 S 
ATOM     22  C   UNL     1      12.276   4.547   1.811  0.00  0.00    +0.142 A 
ATOM     23  C   UNL     1      12.940   3.344   1.712  0.00  0.00    +0.036 A 
ATOM     24  C   UNL     1      14.349   3.518   1.588  0.00  0.00    +0.010 A 
ATOM     25  C   UNL     1      14.707   4.848   1.597  0.00  0.00    +0.047 A 
ENDBRANCH   1  22
ENDBRANCH  10   1
ENDBRANCH  17  10
ENDBRANCH  12  17
BRANCH  14  20
ATOM     20  C   UNL     1       9.565   4.644   8.654  0.00  0.00    +0.190 C 
BRANCH  20   5
ATOM      5  O   UNL     1      10.339   3.610   8.069  0.00  0.00    -0.392 OA
ATOM     28  H   UNL     1       9.744   3.094   7.498  0.00  0.00    +0.210 HD
ENDBRANCH  20   5
ENDBRANCH  14  20
TORSDOF 8
ENDMDL
MODEL 5
REMARK VINA RESULT:      -5.4     27.989     30.149
REMARK  Name = 28961644
REMARK  9 active torsions:
REMARK  status: ('A' for Active; 'I' for Inactive)
REMARK    1  A    between atoms: S_1  and  N_10
REMARK    2  A    between atoms: S_1  and  C_22
REMARK    3  A    between atoms: O_4  and  C_13
REMARK    4  A    between atoms: O_5  and  C_20
REMARK    5  A    between atoms: N_8  and  C_11
REMARK    6  A    between atoms: N_9  and  C_21
REMARK    7  A    between atoms: N_10  and  C_17
REMARK    8  A    between atoms: C_12  and  C_17
REMARK    9  A    between atoms: C_14  and  C_20
REMARK                            x       y       z     vdW  Elec       q    Type
REMARK                         _______ _______ _______ _____ _____    ______ ____
ROOT
ATOM      3  O   UNL     1     -17.882   2.894  24.543  0.00  0.00    -0.366 OA
ATOM     11  C   UNL     1     -17.191   2.269  26.734  0.00  0.00    +0.118 C 
ATOM     12  C   UNL     1     -17.162   3.394  25.691  0.00  0.00    +0.154 C 
ATOM     13  C   UNL     1     -17.345   1.018  25.882  0.00  0.00    +0.165 C 
ATOM     14  C   UNL     1     -18.279   1.533  24.793  0.00  0.00    +0.174 C 
ENDROOT
BRANCH  11   8
ATOM      8  N   UNL     1     -16.083   2.242  27.686  0.00  0.00    -0.292 NA
ATOM      9  N   UNL     1     -14.988   2.228  30.362  0.00  0.00    -0.303 NA
ATOM     15  C   UNL     1     -16.076   3.454  28.513  0.00  0.00    +0.100 C 
ATOM     16  C   UNL     1     -16.152   1.045  28.532  0.00  0.00    +0.100 C 
ATOM     18  C   UNL     1     -14.918   3.426  29.515  0.00  0.00    +0.099 C 
ATOM     19  C   UNL     1     -14.992   1.017  29.534  0.00  0.00    +0.099 C 
ATOM     21  C   UNL     1     -13.882   2.202  31.316  0.00  0.00    +0.105 C 
ENDBRANCH  11   8
BRANCH  13   4
ATOM      4  O   UNL     1     -16.103   0.614  25.319  0.00  0.00    -0.388 OA
ATOM     26  H   UNL     1     -16.295   0.140  24.493  0.00  0.00    +0.210 HD
ENDBRANCH  13   4
BRANCH  12  17
ATOM     17  C   UNL     1     -15.787   3.839  25.203  0.00  0.00    +0.139 C 
BRANCH  17  10
ATOM     10  N   UNL     1     -15.651   3.635  23.792  0.00  0.00    -0.187 NA
ATOM     27  H   UNL     1     -14.801   3.126  23.516  0.00  0.00    +0.148 HD
BRANCH  10   1
ATOM      1  S   UNL     1     -16.219   4.805  22.659  0.00  0.00    +0.065 S 
ATOM      6  O   UNL     1     -16.908   5.855  23.386  0.00  0.00    -0.153 OA
ATOM      7  O   UNL     1     -16.866   4.147  21.541  0.00  0.00    -0.153 OA
BRANCH   1  22
ATOM      2  S   UNL     1     -14.863   6.799  20.994  0.00  0.00    -0.077 S 
ATOM     22  C   UNL     1     -14.695   5.468  22.058  0.00  0.00    +0.142 A 
ATOM     23  C   UNL     1     -13.374   5.137  22.268  0.00  0.00    +0.036 A 
ATOM     24  C   UNL     1     -12.488   5.988  21.546  0.00  0.00    +0.010 A 
ATOM     25  C   UNL     1     -13.165   6.936  20.811  0.00  0.00    +0.047 A 
ENDBRANCH   1  22
ENDBRANCH  10   1
ENDBRANCH  17  10
ENDBRANCH  12  17
BRANCH  14  20
ATOM     20  C   UNL     1     -18.252   0.756  23.489  0.00  0.00    +0.190 C 
BRANCH  20   5
ATOM      5  O   UNL     1     -17.262   1.316  22.642  0.00  0.00    -0.392 OA
ATOM     28  H   UNL     1     -16.813   2.014  23.149  0.00  0.00    +0.210 HD
ENDBRANCH  20   5
ENDBRANCH  14  20
TORSDOF 8
ENDMDL
MODEL 6
REMARK VINA RESULT:      -5.3      3.250      5.930
REMARK  Name = 28961644
REMARK  9 active torsions:
REMARK  status: ('A' for Active; 'I' for Inactive)
REMARK    1  A    between atoms: S_1  and  N_10
REMARK    2  A    between atoms: S_1  and  C_22
REMARK    3  A    between atoms: O_4  and  C_13
REMARK    4  A    between atoms: O_5  and  C_20
REMARK    5  A    between atoms: N_8  and  C_11
REMARK    6  A    between atoms: N_9  and  C_21
REMARK    7  A    between atoms: N_10  and  C_17
REMARK    8  A    between atoms: C_12  and  C_17
REMARK    9  A    between atoms: C_14  and  C_20
REMARK                            x       y       z     vdW  Elec       q    Type
REMARK                         _______ _______ _______ _____ _____    ______ ____
ROOT
ATOM      3  O   UNL     1      12.318   8.447  21.981  0.00  0.00    -0.366 OA
ATOM     11  C   UNL     1      13.337   8.745  19.850  0.00  0.00    +0.118 C 
ATOM     12  C   UNL     1      12.942   9.453  21.153  0.00  0.00    +0.154 C 
ATOM     13  C   UNL     1      12.348   7.591  19.774  0.00  0.00    +0.165 C 
ATOM     14  C   UNL     1      12.248   7.210  21.247  0.00  0.00    +0.174 C 
ENDROOT
BRANCH  11   8
ATOM      8  N   UNL     1      13.410   9.583  18.655  0.00  0.00    -0.292 NA
ATOM      9  N   UNL     1      14.547  10.341  16.108  0.00  0.00    -0.303 NA
ATOM     15  C   UNL     1      14.709  10.260  18.572  0.00  0.00    +0.100 C 
ATOM     16  C   UNL     1      13.168   8.788  17.446  0.00  0.00    +0.100 C 
ATOM     18  C   UNL     1      14.789  11.136  17.318  0.00  0.00    +0.099 C 
ATOM     19  C   UNL     1      13.247   9.665  16.191  0.00  0.00    +0.099 C 
ATOM     21  C   UNL     1      14.622  11.177  14.912  0.00  0.00    +0.105 C 
ENDBRANCH  11   8
BRANCH  13   4
ATOM      4  O   UNL     1      11.083   8.020  19.287  0.00  0.00    -0.388 OA
ATOM     26  H   UNL     1      10.833   8.818  19.781  0.00  0.00    +0.210 HD
ENDBRANCH  13   4
BRANCH  12  17
ATOM     17  C   UNL     1      11.958  10.612  21.030  0.00  0.00    +0.139 C 
BRANCH  17  10
ATOM     10  N   UNL     1      12.639  11.835  20.728  0.00  0.00    -0.187 NA
ATOM     27  H   UNL     1      13.648  11.727  20.556  0.00  0.00    +0.148 HD
BRANCH  10   1
ATOM      1  S   UNL     1      12.160  13.327  21.446  0.00  0.00    +0.065 S 
ATOM      6  O   UNL     1      10.891  13.730  20.869  0.00  0.00    -0.153 OA
ATOM      7  O   UNL     1      13.276  14.252  21.472  0.00  0.00    -0.153 OA
BRANCH   1  22
ATOM      2  S   UNL     1      13.277  12.519  24.032  0.00  0.00    -0.077 S 
ATOM     22  C   UNL     1      11.864  12.826  23.115  0.00  0.00    +0.142 A 
ATOM     23  C   UNL     1      10.716  12.626  23.850  0.00  0.00    +0.036 A 
ATOM     24  C   UNL     1      11.001  12.215  25.185  0.00  0.00    +0.010 A 
ATOM     25  C   UNL     1      12.355  12.118  25.418  0.00  0.00    +0.047 A 
ENDBRANCH   1  22
ENDBRANCH  10   1
ENDBRANCH  17  10
ENDBRANCH  12  17
BRANCH  14  20
ATOM     20  C   UNL     1      10.986   6.464  21.644  0.00  0.00    +0.190 C 
BRANCH  20   5
ATOM      5  O   UNL     1       9.932   7.398  21.803  0.00  0.00    -0.392 OA
ATOM     28  H   UNL     1       9.407   7.111  22.569  0.00  0.00    +0.210 HD
ENDBRANCH  20   5
ENDBRANCH  14  20
TORSDOF 8
ENDMDL
MODEL 7
REMARK VINA RESULT:      -5.3      2.712      6.510
REMARK  Name = 28961644
REMARK  9 active torsions:
REMARK  status: ('A' for Active; 'I' for Inactive)
REMARK    1  A    between atoms: S_1  and  N_10
REMARK    2  A    between atoms: S_1  and  C_22
REMARK    3  A    between atoms: O_4  and  C_13
REMARK    4  A    between atoms: O_5  and  C_20
REMARK    5  A    between atoms: N_8  and  C_11
REMARK    6  A    between atoms: N_9  and  C_21
REMARK    7  A    between atoms: N_10  and  C_17
REMARK    8  A    between atoms: C_12  and  C_17
REMARK    9  A    between atoms: C_14  and  C_20
REMARK                            x       y       z     vdW  Elec       q    Type
REMARK                         _______ _______ _______ _____ _____    ______ ____
ROOT
ATOM      3  O   UNL     1      12.210   7.907  19.692  0.00  0.00    -0.366 OA
ATOM     11  C   UNL     1      14.378   6.941  19.507  0.00  0.00    +0.118 C 
ATOM     12  C   UNL     1      13.381   7.591  20.476  0.00  0.00    +0.154 C 
ATOM     13  C   UNL     1      13.973   7.521  18.160  0.00  0.00    +0.165 C 
ATOM     14  C   UNL     1      12.457   7.560  18.316  0.00  0.00    +0.174 C 
ENDROOT
BRANCH  11   8
ATOM      8  N   UNL     1      15.793   7.081  19.846  0.00  0.00    -0.292 NA
ATOM      9  N   UNL     1      18.299   6.092  20.892  0.00  0.00    -0.303 NA
ATOM     15  C   UNL     1      16.003   6.913  21.288  0.00  0.00    +0.100 C 
ATOM     16  C   UNL     1      16.606   6.118  19.093  0.00  0.00    +0.100 C 
ATOM     18  C   UNL     1      17.486   7.055  21.645  0.00  0.00    +0.099 C 
ATOM     19  C   UNL     1      18.090   6.262  19.450  0.00  0.00    +0.099 C 
ATOM     21  C   UNL     1      19.714   6.229  21.232  0.00  0.00    +0.105 C 
ENDBRANCH  11   8
BRANCH  13   4
ATOM      4  O   UNL     1      14.487   8.835  17.982  0.00  0.00    -0.388 OA
ATOM     26  H   UNL     1      13.898   9.447  18.454  0.00  0.00    +0.210 HD
ENDBRANCH  13   4
BRANCH  12  17
ATOM     17  C   UNL     1      13.831   8.879  21.157  0.00  0.00    +0.139 C 
BRANCH  17  10
ATOM     10  N   UNL     1      13.006   9.175  22.291  0.00  0.00    -0.187 NA
ATOM     27  H   UNL     1      12.955   8.420  22.987  0.00  0.00    +0.148 HD
BRANCH  10   1
ATOM      1  S   UNL     1      11.590  10.147  22.138  0.00  0.00    +0.065 S 
ATOM      6  O   UNL     1      10.427   9.301  22.324  0.00  0.00    -0.153 OA
ATOM      7  O   UNL     1      11.692  11.002  20.971  0.00  0.00    -0.153 OA
BRANCH   1  22
ATOM      2  S   UNL     1      13.336  11.669  23.934  0.00  0.00    -0.077 S 
ATOM     22  C   UNL     1      11.736  11.191  23.558  0.00  0.00    +0.142 A 
ATOM     23  C   UNL     1      10.818  11.713  24.442  0.00  0.00    +0.036 A 
ATOM     24  C   UNL     1      11.437  12.517  25.443  0.00  0.00    +0.010 A 
ATOM     25  C   UNL     1      12.804  12.578  25.285  0.00  0.00    +0.047 A 
ENDBRANCH   1  22
ENDBRANCH  10   1
ENDBRANCH  17  10
ENDBRANCH  12  17
BRANCH  14  20
ATOM     20  C   UNL     1      11.733   8.544  17.414  0.00  0.00    +0.190 C 
BRANCH  20   5
ATOM      5  O   UNL     1      12.309   8.488  16.119  0.00  0.00    -0.392 OA
ATOM     28  H   UNL     1      11.631   8.788  15.490  0.00  0.00    +0.210 HD
ENDBRANCH  20   5
ENDBRANCH  14  20
TORSDOF 8
ENDMDL
MODEL 8
REMARK VINA RESULT:      -5.3     25.387     28.143
REMARK  Name = 28961644
REMARK  9 active torsions:
REMARK  status: ('A' for Active; 'I' for Inactive)
REMARK    1  A    between atoms: S_1  and  N_10
REMARK    2  A    between atoms: S_1  and  C_22
REMARK    3  A    between atoms: O_4  and  C_13
REMARK    4  A    between atoms: O_5  and  C_20
REMARK    5  A    between atoms: N_8  and  C_11
REMARK    6  A    between atoms: N_9  and  C_21
REMARK    7  A    between atoms: N_10  and  C_17
REMARK    8  A    between atoms: C_12  and  C_17
REMARK    9  A    between atoms: C_14  and  C_20
REMARK                            x       y       z     vdW  Elec       q    Type
REMARK                         _______ _______ _______ _____ _____    ______ ____
ROOT
ATOM      3  O   UNL     1      -2.544 -11.925  14.779  0.00  0.00    -0.366 OA
ATOM     11  C   UNL     1      -4.427 -12.098  16.224  0.00  0.00    +0.118 C 
ATOM     12  C   UNL     1      -3.928 -12.336  14.793  0.00  0.00    +0.154 C 
ATOM     13  C   UNL     1      -3.513 -10.990  16.725  0.00  0.00    +0.165 C 
ATOM     14  C   UNL     1      -2.197 -11.396  16.072  0.00  0.00    +0.174 C 
ENDROOT
BRANCH  11   8
ATOM      8  N   UNL     1      -5.858 -11.842  16.376  0.00  0.00    -0.292 NA
ATOM      9  N   UNL     1      -8.431 -12.264  17.625  0.00  0.00    -0.303 NA
ATOM     15  C   UNL     1      -6.635 -13.062  16.127  0.00  0.00    +0.100 C 
ATOM     16  C   UNL     1      -6.154 -11.310  17.711  0.00  0.00    +0.100 C 
ATOM     18  C   UNL     1      -8.135 -12.796  16.289  0.00  0.00    +0.099 C 
ATOM     19  C   UNL     1      -7.655 -11.044  17.873  0.00  0.00    +0.099 C 
ATOM     21  C   UNL     1      -9.862 -12.010  17.779  0.00  0.00    +0.105 C 
ENDBRANCH  11   8
BRANCH  13   4
ATOM      4  O   UNL     1      -3.930  -9.716  16.250  0.00  0.00    -0.388 OA
ATOM     26  H   UNL     1      -4.741  -9.847  15.731  0.00  0.00    +0.210 HD
ENDBRANCH  13   4
BRANCH  12  17
ATOM     17  C   UNL     1      -4.640 -11.568  13.684  0.00  0.00    +0.139 C 
BRANCH  17  10
ATOM     10  N   UNL     1      -3.798 -10.539  13.150  0.00  0.00    -0.187 NA
ATOM     27  H   UNL     1      -4.102  -9.583  13.374  0.00  0.00    +0.148 HD
BRANCH  10   1
ATOM      1  S   UNL     1      -3.003 -10.733  11.632  0.00  0.00    +0.065 S 
ATOM      6  O   UNL     1      -3.039 -12.136  11.267  0.00  0.00    -0.153 OA
ATOM      7  O   UNL     1      -1.745 -10.010  11.630  0.00  0.00    -0.153 OA
BRANCH   1  22
ATOM      2  S   UNL     1      -4.416 -10.644   9.066  0.00  0.00    -0.077 S 
ATOM     22  C   UNL     1      -4.101  -9.861  10.556  0.00  0.00    +0.142 A 
ATOM     23  C   UNL     1      -4.773  -8.663  10.662  0.00  0.00    +0.036 A 
ATOM     24  C   UNL     1      -5.556  -8.383   9.505  0.00  0.00    +0.010 A 
ATOM     25  C   UNL     1      -5.453  -9.379   8.559  0.00  0.00    +0.047 A 
ENDBRANCH   1  22
ENDBRANCH  10   1
ENDBRANCH  17  10
ENDBRANCH  12  17
BRANCH  14  20
ATOM     20  C   UNL     1      -1.182 -10.279  15.900  0.00  0.00    +0.190 C 
BRANCH  20   5
ATOM      5  O   UNL     1      -1.461  -9.589  14.693  0.00  0.00    -0.392 OA
ATOM     28  H   UNL     1      -0.694  -9.022  14.503  0.00  0.00    +0.210 HD
ENDBRANCH  20   5
ENDBRANCH  14  20
TORSDOF 8
ENDMDL
MODEL 9
REMARK VINA RESULT:      -5.2      2.922      4.145
REMARK  Name = 28961644
REMARK  9 active torsions:
REMARK  status: ('A' for Active; 'I' for Inactive)
REMARK    1  A    between atoms: S_1  and  N_10
REMARK    2  A    between atoms: S_1  and  C_22
REMARK    3  A    between atoms: O_4  and  C_13
REMARK    4  A    between atoms: O_5  and  C_20
REMARK    5  A    between atoms: N_8  and  C_11
REMARK    6  A    between atoms: N_9  and  C_21
REMARK    7  A    between atoms: N_10  and  C_17
REMARK    8  A    between atoms: C_12  and  C_17
REMARK    9  A    between atoms: C_14  and  C_20
REMARK                            x       y       z     vdW  Elec       q    Type
REMARK                         _______ _______ _______ _____ _____    ______ ____
ROOT
ATOM      3  O   UNL     1      11.245  11.800  22.213  0.00  0.00    -0.366 OA
ATOM     11  C   UNL     1      13.508  12.492  21.956  0.00  0.00    +0.118 C 
ATOM     12  C   UNL     1      12.261  12.004  21.207  0.00  0.00    +0.154 C 
ATOM     13  C   UNL     1      13.318  11.914  23.350  0.00  0.00    +0.165 C 
ATOM     14  C   UNL     1      11.809  12.063  23.512  0.00  0.00    +0.174 C 
ENDROOT
BRANCH  11   8
ATOM      8  N   UNL     1      14.795  12.198  21.329  0.00  0.00    -0.292 NA
ATOM      9  N   UNL     1      17.390  12.949  20.301  0.00  0.00    -0.303 NA
ATOM     15  C   UNL     1      14.932  12.914  20.056  0.00  0.00    +0.100 C 
ATOM     16  C   UNL     1      15.903  12.536  22.230  0.00  0.00    +0.100 C 
ATOM     18  C   UNL     1      16.282  12.609  19.400  0.00  0.00    +0.099 C 
ATOM     19  C   UNL     1      17.253  12.230  21.573  0.00  0.00    +0.099 C 
ATOM     21  C   UNL     1      18.678  12.656  19.675  0.00  0.00    +0.105 C 
ENDBRANCH  11   8
BRANCH  13   4
ATOM      4  O   UNL     1      13.689  10.543  23.401  0.00  0.00    -0.388 OA
ATOM     26  H   UNL     1      14.226  10.354  22.614  0.00  0.00    +0.210 HD
ENDBRANCH  13   4
BRANCH  12  17
ATOM     17  C   UNL     1      12.397  10.698  20.431  0.00  0.00    +0.139 C 
BRANCH  17  10
ATOM     10  N   UNL     1      11.594   9.666  21.016  0.00  0.00    -0.187 NA
ATOM     27  H   UNL     1      11.708   9.565  22.033  0.00  0.00    +0.148 HD
BRANCH  10   1
ATOM      1  S   UNL     1      11.237   8.214  20.157  0.00  0.00    +0.065 S 
ATOM      6  O   UNL     1      10.508   8.559  18.951  0.00  0.00    -0.153 OA
ATOM      7  O   UNL     1      10.716   7.210  21.064  0.00  0.00    -0.153 OA
BRANCH   1  22
ATOM      2  S   UNL     1      13.808   7.055  20.956  0.00  0.00    -0.077 S 
ATOM     22  C   UNL     1      12.858   7.690  19.681  0.00  0.00    +0.142 A 
ATOM     23  C   UNL     1      13.532   7.682  18.480  0.00  0.00    +0.036 A 
ATOM     24  C   UNL     1      14.846   7.148  18.607  0.00  0.00    +0.010 A 
ATOM     25  C   UNL     1      15.126   6.768  19.901  0.00  0.00    +0.047 A 
ENDBRANCH   1  22
ENDBRANCH  10   1
ENDBRANCH  17  10
ENDBRANCH  12  17
BRANCH  14  20
ATOM     20  C   UNL     1      11.168  11.139  24.532  0.00  0.00    +0.190 C 
BRANCH  20   5
ATOM      5  O   UNL     1      11.083   9.835  23.980  0.00  0.00    -0.392 OA
ATOM     28  H   UNL     1      10.340   9.837  23.353  0.00  0.00    +0.210 HD
ENDBRANCH  20   5
ENDBRANCH  14  20
TORSDOF 8
ENDMDL
MODEL 10
REMARK VINA RESULT:      -5.2     26.094     28.306
REMARK  Name = 28961644
REMARK  9 active torsions:
REMARK  status: ('A' for Active; 'I' for Inactive)
REMARK    1  A    between atoms: S_1  and  N_10
REMARK    2  A    between atoms: S_1  and  C_22
REMARK    3  A    between atoms: O_4  and  C_13
REMARK    4  A    between atoms: O_5  and  C_20
REMARK    5  A    between atoms: N_8  and  C_11
REMARK    6  A    between atoms: N_9  and  C_21
REMARK    7  A    between atoms: N_10  and  C_17
REMARK    8  A    between atoms: C_12  and  C_17
REMARK    9  A    between atoms: C_14  and  C_20
REMARK                            x       y       z     vdW  Elec       q    Type
REMARK                         _______ _______ _______ _____ _____    ______ ____
ROOT
ATOM      3  O   UNL     1      -3.041 -12.458  14.558  0.00  0.00    -0.366 OA
ATOM     11  C   UNL     1      -4.298 -12.161  16.558  0.00  0.00    +0.118 C 
ATOM     12  C   UNL     1      -4.231 -12.927  15.230  0.00  0.00    +0.154 C 
ATOM     13  C   UNL     1      -3.532 -10.882  16.254  0.00  0.00    +0.165 C 
ATOM     14  C   UNL     1      -2.430 -11.422  15.350  0.00  0.00    +0.174 C 
ENDROOT
BRANCH  11   8
ATOM      8  N   UNL     1      -5.630 -11.970  17.128  0.00  0.00    -0.292 NA
ATOM      9  N   UNL     1      -7.590 -12.233  19.236  0.00  0.00    -0.303 NA
ATOM     15  C   UNL     1      -6.259 -13.262  17.426  0.00  0.00    +0.100 C 
ATOM     16  C   UNL     1      -5.566 -11.140  18.336  0.00  0.00    +0.100 C 
ATOM     18  C   UNL     1      -7.655 -13.064  18.027  0.00  0.00    +0.099 C 
ATOM     19  C   UNL     1      -6.962 -10.941  18.936  0.00  0.00    +0.099 C 
ATOM     21  C   UNL     1      -8.922 -12.043  19.808  0.00  0.00    +0.105 C 
ENDBRANCH  11   8
BRANCH  13   4
ATOM      4  O   UNL     1      -4.338  -9.947  15.548  0.00  0.00    -0.388 OA
ATOM     26  H   UNL     1      -5.016 -10.449  15.066  0.00  0.00    +0.210 HD
ENDBRANCH  13   4
BRANCH  12  17
ATOM     17  C   UNL     1      -5.399 -12.732  14.269  0.00  0.00    +0.139 C 
BRANCH  17  10
ATOM     10  N   UNL     1      -5.002 -11.968  13.125  0.00  0.00    -0.187 NA
ATOM     27  H   UNL     1      -3.991 -11.787  13.064  0.00  0.00    +0.148 HD
BRANCH  10   1
ATOM      1  S   UNL     1      -6.019 -10.737  12.473  0.00  0.00    +0.065 S 
ATOM      6  O   UNL     1      -6.269  -9.750  13.506  0.00  0.00    -0.153 OA
ATOM      7  O   UNL     1      -7.126 -11.333  11.750  0.00  0.00    -0.153 OA
BRANCH   1  22
ATOM      2  S   UNL     1      -5.749  -9.305   9.930  0.00  0.00    -0.077 S 
ATOM     22  C   UNL     1      -4.948 -10.008  11.270  0.00  0.00    +0.142 A 
ATOM     23  C   UNL     1      -3.579  -9.882  11.180  0.00  0.00    +0.036 A 
ATOM     24  C   UNL     1      -3.182  -9.198   9.994  0.00  0.00    +0.010 A 
ATOM     25  C   UNL     1      -4.263  -8.829   9.224  0.00  0.00    +0.047 A 
ENDBRANCH   1  22
ENDBRANCH  10   1
ENDBRANCH  17  10
ENDBRANCH  12  17
BRANCH  14  20
ATOM     20  C   UNL     1      -1.783 -10.403  14.429  0.00  0.00    +0.190 C 
BRANCH  20   5
ATOM      5  O   UNL     1      -1.267  -9.340  15.213  0.00  0.00    -0.392 OA
ATOM     28  H   UNL     1      -1.986  -9.035  15.792  0.00  0.00    +0.210 HD
ENDBRANCH  20   5
ENDBRANCH  14  20
TORSDOF 8
ENDMDL
