MODEL 1
REMARK VINA RESULT:      -7.6      0.000      0.000
REMARK  Name = 11866248
REMARK  6 active torsions:
REMARK  status: ('A' for Active; 'I' for Inactive)
REMARK    1  A    between atoms: S_2  and  N_8
REMARK    2  A    between atoms: S_2  and  C_25
REMARK    3  A    between atoms: C_10  and  C_18
REMARK    4  A    between atoms: C_15  and  C_22
REMARK    5  A    between atoms: C_17  and  C_23
REMARK    6  A    between atoms: C_30  and  C_31
REMARK                            x       y       z     vdW  Elec       q    Type
REMARK                         _______ _______ _______ _____ _____    ______ ____
ROOT
ATOM      1  S   UNL     1      17.927   5.834  19.537  0.00  0.00    -0.056 S 
ATOM      3  O   UNL     1      15.380  11.881  21.693  0.00  0.00    -0.461 OA
ATOM      4  O   UNL     1      14.522  13.977  22.098  0.00  0.00    -0.251 OA
ATOM      7  N   UNL     1      18.958   7.664  21.047  0.00  0.00    -0.228 NA
ATOM      8  N   UNL     1      20.540   5.921  20.471  0.00  0.00    -0.194 N 
ATOM      9  C   UNL     1      15.623   9.537  20.803  0.00  0.00    +0.045 C 
ATOM     10  C   UNL     1      14.756   8.214  20.631  0.00  0.00    -0.021 C 
ATOM     11  C   UNL     1      14.799  10.583  21.571  0.00  0.00    +0.184 C 
ATOM     12  C   UNL     1      13.512  10.888  20.828  0.00  0.00    +0.044 C 
ATOM     13  C   UNL     1      13.358   8.547  20.024  0.00  0.00    +0.008 C 
ATOM     14  C   UNL     1      12.611   9.671  20.754  0.00  0.00    +0.008 C 
ATOM     15  C   UNL     1      17.038   9.255  21.423  0.00  0.00    +0.043 C 
ATOM     16  C   UNL     1      15.491   7.244  19.656  0.00  0.00    +0.051 C 
ATOM     17  C   UNL     1      13.029  12.104  21.595  0.00  0.00    +0.101 C 
ATOM     18  C   UNL     1      14.528   7.483  21.981  0.00  0.00    +0.012 C 
ATOM     19  C   UNL     1      17.641   8.015  20.810  0.00  0.00    +0.057 A 
ATOM     20  C   UNL     1      16.929   7.122  20.031  0.00  0.00    +0.015 A 
ATOM     21  C   UNL     1      14.359  12.797  21.827  0.00  0.00    +0.311 C 
ATOM     22  C   UNL     1      17.995  10.445  21.262  0.00  0.00    +0.014 C 
ATOM     23  C   UNL     1      12.054  12.960  20.808  0.00  0.00    +0.019 C 
ATOM     24  C   UNL     1      19.221   6.539  20.419  0.00  0.00    +0.178 A 
ATOM     32  H   UNL     1      20.560   5.013  19.988  0.00  0.00    +0.176 HD
ENDROOT
BRANCH   8   2
ATOM      2  S   UNL     1      21.339   5.980  21.997  0.00  0.00    +0.074 S 
ATOM      5  O   UNL     1      20.361   5.826  23.057  0.00  0.00    -0.150 OA
ATOM      6  O   UNL     1      22.279   7.085  22.018  0.00  0.00    -0.150 OA
BRANCH   2  25
ATOM     25  C   UNL     1      22.298   4.494  21.934  0.00  0.00    +0.109 A 
ATOM     26  C   UNL     1      22.977   4.180  20.770  0.00  0.00    +0.029 A 
ATOM     27  C   UNL     1      22.347   3.675  23.048  0.00  0.00    +0.029 A 
ATOM     28  C   UNL     1      23.732   3.009  20.721  0.00  0.00    +0.005 A 
ATOM     29  C   UNL     1      23.103   2.504  22.998  0.00  0.00    +0.005 A 
ATOM     30  C   UNL     1      23.795   2.171  21.833  0.00  0.00    -0.050 A 
ATOM     31  C   UNL     1      24.603   0.918  21.780  0.00  0.00    +0.044 C 
ENDBRANCH   2  25
ENDBRANCH   8   2
TORSDOF 2
ENDMDL
MODEL 2
REMARK VINA RESULT:      -7.4     29.729     32.518
REMARK  Name = 11866248
REMARK  6 active torsions:
REMARK  status: ('A' for Active; 'I' for Inactive)
REMARK    1  A    between atoms: S_2  and  N_8
REMARK    2  A    between atoms: S_2  and  C_25
REMARK    3  A    between atoms: C_10  and  C_18
REMARK    4  A    between atoms: C_15  and  C_22
REMARK    5  A    between atoms: C_17  and  C_23
REMARK    6  A    between atoms: C_30  and  C_31
REMARK                            x       y       z     vdW  Elec       q    Type
REMARK                         _______ _______ _______ _____ _____    ______ ____
ROOT
ATOM      1  S   UNL     1      -4.759 -11.542  18.934  0.00  0.00    -0.056 S 
ATOM      3  O   UNL     1      -5.963 -10.139  12.278  0.00  0.00    -0.461 OA
ATOM      4  O   UNL     1      -6.267  -9.371  10.132  0.00  0.00    -0.251 OA
ATOM      7  N   UNL     1      -6.945 -11.632  17.552  0.00  0.00    -0.228 NA
ATOM      8  N   UNL     1      -7.317 -11.986  19.921  0.00  0.00    -0.194 N 
ATOM      9  C   UNL     1      -4.860 -10.715  14.469  0.00  0.00    +0.045 C 
ATOM     10  C   UNL     1      -3.537 -11.415  15.008  0.00  0.00    -0.021 C 
ATOM     11  C   UNL     1      -4.905 -10.835  12.937  0.00  0.00    +0.184 C 
ATOM     12  C   UNL     1      -3.678 -10.189  12.322  0.00  0.00    +0.044 C 
ATOM     13  C   UNL     1      -2.283 -10.875  14.255  0.00  0.00    +0.008 C 
ATOM     14  C   UNL     1      -2.409 -10.911  12.725  0.00  0.00    +0.008 C 
ATOM     15  C   UNL     1      -6.155 -11.235  15.190  0.00  0.00    +0.043 C 
ATOM     16  C   UNL     1      -3.370 -11.092  16.525  0.00  0.00    +0.051 C 
ATOM     17  C   UNL     1      -4.074 -10.176  10.858  0.00  0.00    +0.101 C 
ATOM     18  C   UNL     1      -3.574 -12.956  14.830  0.00  0.00    +0.012 C 
ATOM     19  C   UNL     1      -5.908 -11.375  16.672  0.00  0.00    +0.057 A 
ATOM     20  C   UNL     1      -4.654 -11.318  17.249  0.00  0.00    +0.015 A 
ATOM     21  C   UNL     1      -5.546  -9.835  11.001  0.00  0.00    +0.311 C 
ATOM     22  C   UNL     1      -7.369 -10.331  14.938  0.00  0.00    +0.014 C 
ATOM     23  C   UNL     1      -3.313  -9.148  10.041  0.00  0.00    +0.019 C 
ATOM     24  C   UNL     1      -6.459 -11.728  18.770  0.00  0.00    +0.178 A 
ATOM     32  H   UNL     1      -6.775 -12.103  20.787  0.00  0.00    +0.176 HD
ENDROOT
BRANCH   8   2
ATOM      2  S   UNL     1      -8.593 -13.117  19.670  0.00  0.00    +0.074 S 
ATOM      5  O   UNL     1      -8.569 -14.109  20.727  0.00  0.00    -0.150 OA
ATOM      6  O   UNL     1      -8.622 -13.525  18.278  0.00  0.00    -0.150 OA
BRANCH   2  25
ATOM     25  C   UNL     1     -10.010 -12.089  19.932  0.00  0.00    +0.109 A 
ATOM     26  C   UNL     1     -11.176 -12.660  20.410  0.00  0.00    +0.029 A 
ATOM     27  C   UNL     1      -9.923 -10.737  19.653  0.00  0.00    +0.029 A 
ATOM     28  C   UNL     1     -12.292 -11.850  20.616  0.00  0.00    +0.005 A 
ATOM     29  C   UNL     1     -11.040  -9.928  19.859  0.00  0.00    +0.005 A 
ATOM     30  C   UNL     1     -12.225 -10.485  20.341  0.00  0.00    -0.050 A 
ATOM     31  C   UNL     1     -13.420  -9.619  20.561  0.00  0.00    +0.044 C 
ENDBRANCH   2  25
ENDBRANCH   8   2
TORSDOF 2
ENDMDL
MODEL 3
REMARK VINA RESULT:      -7.4     15.935     18.682
REMARK  Name = 11866248
REMARK  6 active torsions:
REMARK  status: ('A' for Active; 'I' for Inactive)
REMARK    1  A    between atoms: S_2  and  N_8
REMARK    2  A    between atoms: S_2  and  C_25
REMARK    3  A    between atoms: C_10  and  C_18
REMARK    4  A    between atoms: C_15  and  C_22
REMARK    5  A    between atoms: C_17  and  C_23
REMARK    6  A    between atoms: C_30  and  C_31
REMARK                            x       y       z     vdW  Elec       q    Type
REMARK                         _______ _______ _______ _____ _____    ______ ____
ROOT
ATOM      1  S   UNL     1      12.565   6.331   2.046  0.00  0.00    -0.056 S 
ATOM      3  O   UNL     1      17.763   8.448   6.072  0.00  0.00    -0.461 OA
ATOM      4  O   UNL     1      19.614   8.854   7.376  0.00  0.00    -0.251 OA
ATOM      7  N   UNL     1      12.581   7.155   4.499  0.00  0.00    -0.228 NA
ATOM      8  N   UNL     1      10.421   6.297   3.810  0.00  0.00    -0.194 N 
ATOM      9  C   UNL     1      16.331   7.832   4.093  0.00  0.00    +0.045 C 
ATOM     10  C   UNL     1      16.229   8.135   2.535  0.00  0.00    -0.021 C 
ATOM     11  C   UNL     1      17.446   8.697   4.703  0.00  0.00    +0.184 C 
ATOM     12  C   UNL     1      18.769   8.407   4.021  0.00  0.00    +0.044 C 
ATOM     13  C   UNL     1      17.627   8.006   1.856  0.00  0.00    +0.008 C 
ATOM     14  C   UNL     1      18.738   8.800   2.558  0.00  0.00    +0.008 C 
ATOM     15  C   UNL     1      14.947   7.960   4.826  0.00  0.00    +0.043 C 
ATOM     16  C   UNL     1      15.270   7.098   1.874  0.00  0.00    +0.051 C 
ATOM     17  C   UNL     1      19.726   9.133   4.948  0.00  0.00    +0.101 C 
ATOM     18  C   UNL     1      15.690   9.562   2.249  0.00  0.00    +0.012 C 
ATOM     19  C   UNL     1      13.854   7.340   3.991  0.00  0.00    +0.057 A 
ATOM     20  C   UNL     1      14.015   6.970   2.669  0.00  0.00    +0.015 A 
ATOM     21  C   UNL     1      19.076   8.807   6.280  0.00  0.00    +0.311 C 
ATOM     22  C   UNL     1      14.966   7.334   6.226  0.00  0.00    +0.014 C 
ATOM     23  C   UNL     1      21.152   8.626   4.854  0.00  0.00    +0.019 C 
ATOM     24  C   UNL     1      11.822   6.621   3.567  0.00  0.00    +0.178 A 
ATOM     32  H   UNL     1       9.951   5.954   2.962  0.00  0.00    +0.176 HD
ENDROOT
BRANCH   8   2
ATOM      2  S   UNL     1       9.537   7.437   4.753  0.00  0.00    +0.074 S 
ATOM      5  O   UNL     1       8.178   7.522   4.254  0.00  0.00    -0.150 OA
ATOM      6  O   UNL     1      10.328   8.639   4.940  0.00  0.00    -0.150 OA
BRANCH   2  25
ATOM     25  C   UNL     1       9.482   6.612   6.317  0.00  0.00    +0.109 A 
ATOM     26  C   UNL     1       9.916   5.301   6.402  0.00  0.00    +0.029 A 
ATOM     27  C   UNL     1       9.006   7.293   7.423  0.00  0.00    +0.029 A 
ATOM     28  C   UNL     1       9.873   4.650   7.635  0.00  0.00    +0.005 A 
ATOM     29  C   UNL     1       8.963   6.642   8.656  0.00  0.00    +0.005 A 
ATOM     30  C   UNL     1       9.397   5.320   8.761  0.00  0.00    -0.050 A 
ATOM     31  C   UNL     1       9.350   4.624  10.080  0.00  0.00    +0.044 C 
ENDBRANCH   2  25
ENDBRANCH   8   2
TORSDOF 2
ENDMDL
MODEL 4
REMARK VINA RESULT:      -7.3     29.354     31.638
REMARK  Name = 11866248
REMARK  6 active torsions:
REMARK  status: ('A' for Active; 'I' for Inactive)
REMARK    1  A    between atoms: S_2  and  N_8
REMARK    2  A    between atoms: S_2  and  C_25
REMARK    3  A    between atoms: C_10  and  C_18
REMARK    4  A    between atoms: C_15  and  C_22
REMARK    5  A    between atoms: C_17  and  C_23
REMARK    6  A    between atoms: C_30  and  C_31
REMARK                            x       y       z     vdW  Elec       q    Type
REMARK                         _______ _______ _______ _____ _____    ______ ____
ROOT
ATOM      1  S   UNL     1      -5.064 -13.861  16.862  0.00  0.00    -0.056 S 
ATOM      3  O   UNL     1     -10.242  -9.292  17.023  0.00  0.00    -0.461 OA
ATOM      4  O   UNL     1     -12.141  -7.997  16.925  0.00  0.00    -0.251 OA
ATOM      7  N   UNL     1      -5.284 -11.511  15.800  0.00  0.00    -0.228 NA
ATOM      8  N   UNL     1      -3.282 -12.679  15.090  0.00  0.00    -0.194 N 
ATOM      9  C   UNL     1      -8.687 -11.206  17.537  0.00  0.00    +0.045 C 
ATOM     10  C   UNL     1      -8.279 -12.135  18.762  0.00  0.00    -0.021 C 
ATOM     11  C   UNL     1      -9.669 -10.129  18.027  0.00  0.00    +0.184 C 
ATOM     12  C   UNL     1     -10.900 -10.775  18.632  0.00  0.00    +0.044 C 
ATOM     13  C   UNL     1      -9.548 -12.667  19.497  0.00  0.00    +0.008 C 
ATOM     14  C   UNL     1     -10.555 -11.572  19.874  0.00  0.00    +0.008 C 
ATOM     15  C   UNL     1      -7.441 -10.636  16.770  0.00  0.00    +0.043 C 
ATOM     16  C   UNL     1      -7.477 -13.362  18.228  0.00  0.00    +0.051 C 
ATOM     17  C   UNL     1     -11.808  -9.569  18.771  0.00  0.00    +0.101 C 
ATOM     18  C   UNL     1      -7.404 -11.385  19.802  0.00  0.00    +0.012 C 
ATOM     19  C   UNL     1      -6.391 -11.708  16.606  0.00  0.00    +0.057 A 
ATOM     20  C   UNL     1      -6.420 -12.917  17.275  0.00  0.00    +0.015 A 
ATOM     21  C   UNL     1     -11.462  -8.847  17.482  0.00  0.00    +0.311 C 
ATOM     22  C   UNL     1      -7.814 -10.045  15.403  0.00  0.00    +0.014 C 
ATOM     23  C   UNL     1     -13.278  -9.933  18.861  0.00  0.00    +0.019 C 
ATOM     24  C   UNL     1      -4.523 -12.582  15.850  0.00  0.00    +0.178 A 
ATOM     32  H   UNL     1      -2.771 -13.548  15.294  0.00  0.00    +0.176 HD
ENDROOT
BRANCH   8   2
ATOM      2  S   UNL     1      -2.330 -11.244  15.019  0.00  0.00    +0.074 S 
ATOM      5  O   UNL     1      -0.925 -11.601  15.008  0.00  0.00    -0.150 OA
ATOM      6  O   UNL     1      -2.835 -10.271  15.970  0.00  0.00    -0.150 OA
BRANCH   2  25
ATOM     25  C   UNL     1      -2.743 -10.645  13.406  0.00  0.00    +0.109 A 
ATOM     26  C   UNL     1      -4.075 -10.475  13.071  0.00  0.00    +0.029 A 
ATOM     27  C   UNL     1      -1.727 -10.361  12.511  0.00  0.00    +0.029 A 
ATOM     28  C   UNL     1      -4.400 -10.004  11.800  0.00  0.00    +0.005 A 
ATOM     29  C   UNL     1      -2.053  -9.889  11.240  0.00  0.00    +0.005 A 
ATOM     30  C   UNL     1      -3.391  -9.711  10.885  0.00  0.00    -0.050 A 
ATOM     31  C   UNL     1      -3.739  -9.206   9.525  0.00  0.00    +0.044 C 
ENDBRANCH   2  25
ENDBRANCH   8   2
TORSDOF 2
ENDMDL
MODEL 5
REMARK VINA RESULT:      -7.3     30.131     33.004
REMARK  Name = 11866248
REMARK  6 active torsions:
REMARK  status: ('A' for Active; 'I' for Inactive)
REMARK    1  A    between atoms: S_2  and  N_8
REMARK    2  A    between atoms: S_2  and  C_25
REMARK    3  A    between atoms: C_10  and  C_18
REMARK    4  A    between atoms: C_15  and  C_22
REMARK    5  A    between atoms: C_17  and  C_23
REMARK    6  A    between atoms: C_30  and  C_31
REMARK                            x       y       z     vdW  Elec       q    Type
REMARK                         _______ _______ _______ _____ _____    ______ ____
ROOT
ATOM      1  S   UNL     1      -6.716 -10.665  19.343  0.00  0.00    -0.056 S 
ATOM      3  O   UNL     1      -4.957 -10.147  12.684  0.00  0.00    -0.461 OA
ATOM      4  O   UNL     1      -4.262  -9.679  10.541  0.00  0.00    -0.251 OA
ATOM      7  N   UNL     1      -8.164 -10.716  17.199  0.00  0.00    -0.228 NA
ATOM      8  N   UNL     1      -9.490 -10.667  19.228  0.00  0.00    -0.194 N 
ATOM      9  C   UNL     1      -4.915 -10.510  15.177  0.00  0.00    +0.045 C 
ATOM     10  C   UNL     1      -4.044 -11.264  16.273  0.00  0.00    -0.021 C 
ATOM     11  C   UNL     1      -4.372 -10.851  13.779  0.00  0.00    +0.184 C 
ATOM     12  C   UNL     1      -2.915 -10.445  13.667  0.00  0.00    +0.044 C 
ATOM     13  C   UNL     1      -2.525 -10.987  16.056  0.00  0.00    +0.008 C 
ATOM     14  C   UNL     1      -2.043 -11.237  14.620  0.00  0.00    +0.008 C 
ATOM     15  C   UNL     1      -6.456 -10.767  15.346  0.00  0.00    +0.043 C 
ATOM     16  C   UNL     1      -4.437 -10.739  17.688  0.00  0.00    +0.051 C 
ATOM     17  C   UNL     1      -2.695 -10.607  12.175  0.00  0.00    +0.101 C 
ATOM     18  C   UNL     1      -4.259 -12.801  16.237  0.00  0.00    +0.012 C 
ATOM     19  C   UNL     1      -6.838 -10.711  16.805  0.00  0.00    +0.057 A 
ATOM     20  C   UNL     1      -5.920 -10.709  17.838  0.00  0.00    +0.015 A 
ATOM     21  C   UNL     1      -4.027 -10.086  11.669  0.00  0.00    +0.311 C 
ATOM     22  C   UNL     1      -7.307  -9.780  14.536  0.00  0.00    +0.014 C 
ATOM     23  C   UNL     1      -1.518  -9.805  11.653  0.00  0.00    +0.019 C 
ATOM     24  C   UNL     1      -8.219 -10.683  18.513  0.00  0.00    +0.178 A 
ATOM     32  H   UNL     1      -9.360 -10.714  20.247  0.00  0.00    +0.176 HD
ENDROOT
BRANCH   8   2
ATOM      2  S   UNL     1     -10.731 -11.673  18.580  0.00  0.00    +0.074 S 
ATOM      5  O   UNL     1     -10.183 -12.983  18.287  0.00  0.00    -0.150 OA
ATOM      6  O   UNL     1     -11.476 -10.945  17.570  0.00  0.00    -0.150 OA
BRANCH   2  25
ATOM     25  C   UNL     1     -11.797 -11.839  19.982  0.00  0.00    +0.109 A 
ATOM     26  C   UNL     1     -11.718 -12.983  20.756  0.00  0.00    +0.029 A 
ATOM     27  C   UNL     1     -12.688 -10.823  20.276  0.00  0.00    +0.029 A 
ATOM     28  C   UNL     1     -12.559 -13.114  21.861  0.00  0.00    +0.005 A 
ATOM     29  C   UNL     1     -13.529 -10.954  21.381  0.00  0.00    +0.005 A 
ATOM     30  C   UNL     1     -13.464 -12.101  22.173  0.00  0.00    -0.050 A 
ATOM     31  C   UNL     1     -14.363 -12.241  23.355  0.00  0.00    +0.044 C 
ENDBRANCH   2  25
ENDBRANCH   8   2
TORSDOF 2
ENDMDL
MODEL 6
REMARK VINA RESULT:      -7.3     18.914     21.613
REMARK  Name = 11866248
REMARK  6 active torsions:
REMARK  status: ('A' for Active; 'I' for Inactive)
REMARK    1  A    between atoms: S_2  and  N_8
REMARK    2  A    between atoms: S_2  and  C_25
REMARK    3  A    between atoms: C_10  and  C_18
REMARK    4  A    between atoms: C_15  and  C_22
REMARK    5  A    between atoms: C_17  and  C_23
REMARK    6  A    between atoms: C_30  and  C_31
REMARK                            x       y       z     vdW  Elec       q    Type
REMARK                         _______ _______ _______ _____ _____    ______ ____
ROOT
ATOM      1  S   UNL     1      12.711   7.478   4.044  0.00  0.00    -0.056 S 
ATOM      3  O   UNL     1      10.114   4.987  -1.852  0.00  0.00    -0.461 OA
ATOM      4  O   UNL     1       9.479   4.331  -3.964  0.00  0.00    -0.251 OA
ATOM      7  N   UNL     1      10.370   7.748   2.976  0.00  0.00    -0.228 NA
ATOM      8  N   UNL     1      10.676   9.144   4.934  0.00  0.00    -0.194 N 
ATOM      9  C   UNL     1      11.520   5.365   0.204  0.00  0.00    +0.045 C 
ATOM     10  C   UNL     1      12.526   4.567   1.143  0.00  0.00    -0.021 C 
ATOM     11  C   UNL     1      10.934   4.402  -0.842  0.00  0.00    +0.184 C 
ATOM     12  C   UNL     1      12.046   3.780  -1.666  0.00  0.00    +0.044 C 
ATOM     13  C   UNL     1      13.571   3.784   0.290  0.00  0.00    +0.008 C 
ATOM     14  C   UNL     1      12.952   2.915  -0.814  0.00  0.00    +0.008 C 
ATOM     15  C   UNL     1      10.438   6.163   1.017  0.00  0.00    +0.043 C 
ATOM     16  C   UNL     1      13.296   5.580   2.045  0.00  0.00    +0.051 C 
ATOM     17  C   UNL     1      11.240   3.123  -2.769  0.00  0.00    +0.101 C 
ATOM     18  C   UNL     1      11.793   3.547   2.054  0.00  0.00    +0.012 C 
ATOM     19  C   UNL     1      11.071   6.833   2.212  0.00  0.00    +0.057 A 
ATOM     20  C   UNL     1      12.347   6.551   2.662  0.00  0.00    +0.015 A 
ATOM     21  C   UNL     1      10.179   4.189  -2.973  0.00  0.00    +0.311 C 
ATOM     22  C   UNL     1       9.704   7.199   0.155  0.00  0.00    +0.014 C 
ATOM     23  C   UNL     1      12.049   2.856  -4.025  0.00  0.00    +0.019 C 
ATOM     24  C   UNL     1      11.137   8.161   3.960  0.00  0.00    +0.178 A 
ATOM     32  H   UNL     1      11.368   9.305   5.677  0.00  0.00    +0.176 HD
ENDROOT
BRANCH   8   2
ATOM      2  S   UNL     1       9.040   8.982   5.449  0.00  0.00    +0.074 S 
ATOM      5  O   UNL     1       8.218   8.588   4.322  0.00  0.00    -0.150 OA
ATOM      6  O   UNL     1       8.667  10.120   6.269  0.00  0.00    -0.150 OA
BRANCH   2  25
ATOM     25  C   UNL     1       9.164   7.590   6.534  0.00  0.00    +0.109 A 
ATOM     26  C   UNL     1       9.413   6.338   5.998  0.00  0.00    +0.029 A 
ATOM     27  C   UNL     1       9.010   7.779   7.896  0.00  0.00    +0.029 A 
ATOM     28  C   UNL     1       9.510   5.241   6.853  0.00  0.00    +0.005 A 
ATOM     29  C   UNL     1       9.108   6.682   8.750  0.00  0.00    +0.005 A 
ATOM     30  C   UNL     1       9.358   5.412   8.228  0.00  0.00    -0.050 A 
ATOM     31  C   UNL     1       9.463   4.238   9.143  0.00  0.00    +0.044 C 
ENDBRANCH   2  25
ENDBRANCH   8   2
TORSDOF 2
ENDMDL
MODEL 7
REMARK VINA RESULT:      -7.3      2.892      9.962
REMARK  Name = 11866248
REMARK  6 active torsions:
REMARK  status: ('A' for Active; 'I' for Inactive)
REMARK    1  A    between atoms: S_2  and  N_8
REMARK    2  A    between atoms: S_2  and  C_25
REMARK    3  A    between atoms: C_10  and  C_18
REMARK    4  A    between atoms: C_15  and  C_22
REMARK    5  A    between atoms: C_17  and  C_23
REMARK    6  A    between atoms: C_30  and  C_31
REMARK                            x       y       z     vdW  Elec       q    Type
REMARK                         _______ _______ _______ _____ _____    ______ ____
ROOT
ATOM      1  S   UNL     1      18.390   9.609  21.491  0.00  0.00    -0.056 S 
ATOM      3  O   UNL     1      22.098   3.794  21.111  0.00  0.00    -0.461 OA
ATOM      4  O   UNL     1      23.506   2.010  20.758  0.00  0.00    -0.251 OA
ATOM      7  N   UNL     1      17.706   7.205  20.823  0.00  0.00    -0.228 NA
ATOM      8  N   UNL     1      15.937   8.821  20.455  0.00  0.00    -0.194 N 
ATOM      9  C   UNL     1      21.281   6.111  21.669  0.00  0.00    +0.045 C 
ATOM     10  C   UNL     1      21.487   7.229  22.781  0.00  0.00    -0.021 C 
ATOM     11  C   UNL     1      22.065   4.850  22.070  0.00  0.00    +0.184 C 
ATOM     12  C   UNL     1      23.538   5.175  22.226  0.00  0.00    +0.044 C 
ATOM     13  C   UNL     1      23.004   7.445  23.070  0.00  0.00    +0.008 C 
ATOM     14  C   UNL     1      23.775   6.150  23.361  0.00  0.00    +0.008 C 
ATOM     15  C   UNL     1      19.765   5.848  21.350  0.00  0.00    +0.043 C 
ATOM     16  C   UNL     1      20.893   8.577  22.267  0.00  0.00    +0.051 C 
ATOM     17  C   UNL     1      24.121   3.779  22.333  0.00  0.00    +0.101 C 
ATOM     18  C   UNL     1      20.794   6.860  24.120  0.00  0.00    +0.012 C 
ATOM     19  C   UNL     1      19.012   7.154  21.277  0.00  0.00    +0.057 A 
ATOM     20  C   UNL     1      19.530   8.363  21.702  0.00  0.00    +0.015 A 
ATOM     21  C   UNL     1      23.249   3.066  21.315  0.00  0.00    +0.311 C 
ATOM     22  C   UNL     1      19.569   5.050  20.054  0.00  0.00    +0.014 C 
ATOM     23  C   UNL     1      25.596   3.717  21.985  0.00  0.00    +0.019 C 
ATOM     24  C   UNL     1      17.281   8.448  20.881  0.00  0.00    +0.178 A 
ATOM     32  H   UNL     1      15.739   9.814  20.630  0.00  0.00    +0.176 HD
ENDROOT
BRANCH   8   2
ATOM      2  S   UNL     1      14.682   7.716  20.871  0.00  0.00    +0.074 S 
ATOM      5  O   UNL     1      14.074   8.128  22.120  0.00  0.00    -0.150 OA
ATOM      6  O   UNL     1      15.148   6.352  20.694  0.00  0.00    -0.150 OA
BRANCH   2  25
ATOM     25  C   UNL     1      13.515   8.029  19.578  0.00  0.00    +0.109 A 
ATOM     26  C   UNL     1      12.199   8.297  19.909  0.00  0.00    +0.029 A 
ATOM     27  C   UNL     1      13.942   7.998  18.262  0.00  0.00    +0.029 A 
ATOM     28  C   UNL     1      11.279   8.543  18.890  0.00  0.00    +0.005 A 
ATOM     29  C   UNL     1      13.022   8.245  17.243  0.00  0.00    +0.005 A 
ATOM     30  C   UNL     1      11.690   8.517  17.558  0.00  0.00    -0.050 A 
ATOM     31  C   UNL     1      10.706   8.780  16.468  0.00  0.00    +0.044 C 
ENDBRANCH   2  25
ENDBRANCH   8   2
TORSDOF 2
ENDMDL
MODEL 8
REMARK VINA RESULT:      -7.1     29.630     32.589
REMARK  Name = 11866248
REMARK  6 active torsions:
REMARK  status: ('A' for Active; 'I' for Inactive)
REMARK    1  A    between atoms: S_2  and  N_8
REMARK    2  A    between atoms: S_2  and  C_25
REMARK    3  A    between atoms: C_10  and  C_18
REMARK    4  A    between atoms: C_15  and  C_22
REMARK    5  A    between atoms: C_17  and  C_23
REMARK    6  A    between atoms: C_30  and  C_31
REMARK                            x       y       z     vdW  Elec       q    Type
REMARK                         _______ _______ _______ _____ _____    ______ ____
ROOT
ATOM      1  S   UNL     1      -5.963 -10.674  19.275  0.00  0.00    -0.056 S 
ATOM      3  O   UNL     1      -5.585 -10.080  12.404  0.00  0.00    -0.461 OA
ATOM      4  O   UNL     1      -5.350  -9.582  10.171  0.00  0.00    -0.251 OA
ATOM      7  N   UNL     1      -7.805 -10.781  17.462  0.00  0.00    -0.228 NA
ATOM      8  N   UNL     1      -8.702 -10.787  19.714  0.00  0.00    -0.194 N 
ATOM      9  C   UNL     1      -5.034 -10.442  14.836  0.00  0.00    +0.045 C 
ATOM     10  C   UNL     1      -3.934 -11.163  15.730  0.00  0.00    -0.021 C 
ATOM     11  C   UNL     1      -4.768 -10.761  13.355  0.00  0.00    +0.184 C 
ATOM     12  C   UNL     1      -3.379 -10.297  12.959  0.00  0.00    +0.044 C 
ATOM     13  C   UNL     1      -2.500 -10.824  15.218  0.00  0.00    +0.008 C 
ATOM     14  C   UNL     1      -2.304 -11.053  13.713  0.00  0.00    +0.008 C 
ATOM     15  C   UNL     1      -6.499 -10.762  15.306  0.00  0.00    +0.043 C 
ATOM     16  C   UNL     1      -4.058 -10.654  17.200  0.00  0.00    +0.051 C 
ATOM     17  C   UNL     1      -3.453 -10.448  11.452  0.00  0.00    +0.101 C 
ATOM     18  C   UNL     1      -4.091 -12.707  15.724  0.00  0.00    +0.012 C 
ATOM     19  C   UNL     1      -6.586 -10.722  16.812  0.00  0.00    +0.057 A 
ATOM     20  C   UNL     1      -5.482 -10.685  17.642  0.00  0.00    +0.015 A 
ATOM     21  C   UNL     1      -4.879  -9.980  11.225  0.00  0.00    +0.311 C 
ATOM     22  C   UNL     1      -7.533  -9.809  14.689  0.00  0.00    +0.014 C 
ATOM     23  C   UNL     1      -2.436  -9.599  10.714  0.00  0.00    +0.019 C 
ATOM     24  C   UNL     1      -7.599 -10.751  18.760  0.00  0.00    +0.178 A 
ATOM     32  H   UNL     1      -8.370 -10.829  20.686  0.00  0.00    +0.176 HD
ENDROOT
BRANCH   8   2
ATOM      2  S   UNL     1     -10.006 -11.841  19.316  0.00  0.00    +0.074 S 
ATOM      5  O   UNL     1     -10.872 -11.990  20.470  0.00  0.00    -0.150 OA
ATOM      6  O   UNL     1      -9.500 -13.010  18.621  0.00  0.00    -0.150 OA
BRANCH   2  25
ATOM     25  C   UNL     1     -10.873 -10.868  18.118  0.00  0.00    +0.109 A 
ATOM     26  C   UNL     1     -11.165  -9.547  18.408  0.00  0.00    +0.029 A 
ATOM     27  C   UNL     1     -11.242 -11.449  16.918  0.00  0.00    +0.029 A 
ATOM     28  C   UNL     1     -11.848  -8.781  17.464  0.00  0.00    +0.005 A 
ATOM     29  C   UNL     1     -11.924 -10.682  15.974  0.00  0.00    +0.005 A 
ATOM     30  C   UNL     1     -12.227  -9.347  16.248  0.00  0.00    -0.050 A 
ATOM     31  C   UNL     1     -12.958  -8.527  15.238  0.00  0.00    +0.044 C 
ENDBRANCH   2  25
ENDBRANCH   8   2
TORSDOF 2
ENDMDL
MODEL 9
REMARK VINA RESULT:      -7.0     30.672     33.058
REMARK  Name = 11866248
REMARK  6 active torsions:
REMARK  status: ('A' for Active; 'I' for Inactive)
REMARK    1  A    between atoms: S_2  and  N_8
REMARK    2  A    between atoms: S_2  and  C_25
REMARK    3  A    between atoms: C_10  and  C_18
REMARK    4  A    between atoms: C_15  and  C_22
REMARK    5  A    between atoms: C_17  and  C_23
REMARK    6  A    between atoms: C_30  and  C_31
REMARK                            x       y       z     vdW  Elec       q    Type
REMARK                         _______ _______ _______ _____ _____    ______ ____
ROOT
ATOM      1  S   UNL     1      -8.411 -10.028  10.200  0.00  0.00    -0.056 S 
ATOM      3  O   UNL     1      -7.612  -8.451   3.523  0.00  0.00    -0.461 OA
ATOM      4  O   UNL     1      -7.534  -8.183   1.240  0.00  0.00    -0.251 OA
ATOM      7  N   UNL     1      -6.290  -9.944   8.722  0.00  0.00    -0.228 NA
ATOM      8  N   UNL     1      -5.863 -10.859  10.925  0.00  0.00    -0.194 N 
ATOM      9  C   UNL     1      -8.508  -8.669   5.868  0.00  0.00    +0.045 C 
ATOM     10  C   UNL     1      -9.545  -7.951   6.836  0.00  0.00    -0.021 C 
ATOM     11  C   UNL     1      -8.401  -7.868   4.559  0.00  0.00    +0.184 C 
ATOM     12  C   UNL     1      -9.760  -7.766   3.893  0.00  0.00    +0.044 C 
ATOM     13  C   UNL     1     -10.894  -7.687   6.098  0.00  0.00    +0.008 C 
ATOM     14  C   UNL     1     -10.738  -6.981   4.744  0.00  0.00    +0.008 C 
ATOM     15  C   UNL     1      -7.126  -8.947   6.562  0.00  0.00    +0.043 C 
ATOM     16  C   UNL     1      -9.832  -8.879   8.057  0.00  0.00    +0.051 C 
ATOM     17  C   UNL     1      -9.366  -7.211   2.539  0.00  0.00    +0.101 C 
ATOM     18  C   UNL     1      -9.014  -6.590   7.360  0.00  0.00    +0.012 C 
ATOM     19  C   UNL     1      -7.340  -9.448   7.970  0.00  0.00    +0.057 A 
ATOM     20  C   UNL     1      -8.556  -9.399   8.624  0.00  0.00    +0.015 A 
ATOM     21  C   UNL     1      -8.083  -7.990   2.314  0.00  0.00    +0.311 C 
ATOM     22  C   UNL     1      -6.262  -9.938   5.772  0.00  0.00    +0.014 C 
ATOM     23  C   UNL     1     -10.402  -7.468   1.461  0.00  0.00    +0.019 C 
ATOM     24  C   UNL     1      -6.739 -10.289   9.908  0.00  0.00    +0.178 A 
ATOM     32  H   UNL     1      -6.353 -11.007  11.818  0.00  0.00    +0.176 HD
ENDROOT
BRANCH   8   2
ATOM      2  S   UNL     1      -4.288 -10.168  11.035  0.00  0.00    +0.074 S 
ATOM      5  O   UNL     1      -4.373  -8.740  10.799  0.00  0.00    -0.150 OA
ATOM      6  O   UNL     1      -3.341 -10.982  10.296  0.00  0.00    -0.150 OA
BRANCH   2  25
ATOM     25  C   UNL     1      -3.935 -10.406  12.753  0.00  0.00    +0.109 A 
ATOM     26  C   UNL     1      -4.983 -10.462  13.655  0.00  0.00    +0.029 A 
ATOM     27  C   UNL     1      -2.618 -10.531  13.160  0.00  0.00    +0.029 A 
ATOM     28  C   UNL     1      -4.704 -10.649  15.008  0.00  0.00    +0.005 A 
ATOM     29  C   UNL     1      -2.340 -10.719  14.513  0.00  0.00    +0.005 A 
ATOM     30  C   UNL     1      -3.384 -10.777  15.438  0.00  0.00    -0.050 A 
ATOM     31  C   UNL     1      -3.086 -10.978  16.886  0.00  0.00    +0.044 C 
ENDBRANCH   2  25
ENDBRANCH   8   2
TORSDOF 2
ENDMDL
MODEL 10
REMARK VINA RESULT:      -6.9     29.849     31.716
REMARK  Name = 11866248
REMARK  6 active torsions:
REMARK  status: ('A' for Active; 'I' for Inactive)
REMARK    1  A    between atoms: S_2  and  N_8
REMARK    2  A    between atoms: S_2  and  C_25
REMARK    3  A    between atoms: C_10  and  C_18
REMARK    4  A    between atoms: C_15  and  C_22
REMARK    5  A    between atoms: C_17  and  C_23
REMARK    6  A    between atoms: C_30  and  C_31
REMARK                            x       y       z     vdW  Elec       q    Type
REMARK                         _______ _______ _______ _____ _____    ______ ____
ROOT
ATOM      1  S   UNL     1      -2.589 -10.726  14.086  0.00  0.00    -0.056 S 
ATOM      3  O   UNL     1      -8.087  -8.896  10.326  0.00  0.00    -0.461 OA
ATOM      4  O   UNL     1      -9.794  -7.987   9.080  0.00  0.00    -0.251 OA
ATOM      7  N   UNL     1      -5.117 -10.806  14.631  0.00  0.00    -0.228 NA
ATOM      8  N   UNL     1      -3.726 -11.345  16.542  0.00  0.00    -0.194 N 
ATOM      9  C   UNL     1      -5.776  -9.584  11.059  0.00  0.00    +0.045 C 
ATOM     10  C   UNL     1      -4.471 -10.265  10.457  0.00  0.00    -0.021 C 
ATOM     11  C   UNL     1      -6.887  -9.594   9.995  0.00  0.00    +0.184 C 
ATOM     12  C   UNL     1      -6.430  -8.855   8.752  0.00  0.00    +0.044 C 
ATOM     13  C   UNL     1      -4.095  -9.621   9.088  0.00  0.00    +0.008 C 
ATOM     14  C   UNL     1      -5.259  -9.551   8.089  0.00  0.00    +0.008 C 
ATOM     15  C   UNL     1      -6.204 -10.207  12.436  0.00  0.00    +0.043 C 
ATOM     16  C   UNL     1      -3.280 -10.046  11.441  0.00  0.00    +0.051 C 
ATOM     17  C   UNL     1      -7.739  -8.752   7.993  0.00  0.00    +0.101 C 
ATOM     18  C   UNL     1      -4.656 -11.790  10.233  0.00  0.00    +0.012 C 
ATOM     19  C   UNL     1      -4.990 -10.444  13.302  0.00  0.00    +0.057 A 
ATOM     20  C   UNL     1      -3.691 -10.377  12.836  0.00  0.00    +0.015 A 
ATOM     21  C   UNL     1      -8.680  -8.483   9.153  0.00  0.00    +0.311 C 
ATOM     22  C   UNL     1      -7.226  -9.338  13.181  0.00  0.00    +0.014 C 
ATOM     23  C   UNL     1      -7.749  -7.638   6.963  0.00  0.00    +0.019 C 
ATOM     24  C   UNL     1      -3.918 -10.970  15.146  0.00  0.00    +0.178 A 
ATOM     32  H   UNL     1      -2.735 -11.503  16.767  0.00  0.00    +0.176 HD
ENDROOT
BRANCH   8   2
ATOM      2  S   UNL     1      -4.835 -12.507  17.168  0.00  0.00    +0.074 S 
ATOM      5  O   UNL     1      -4.460 -12.844  18.527  0.00  0.00    -0.150 OA
ATOM      6  O   UNL     1      -5.060 -13.552  16.186  0.00  0.00    -0.150 OA
BRANCH   2  25
ATOM     25  C   UNL     1      -6.320 -11.548  17.245  0.00  0.00    +0.109 A 
ATOM     26  C   UNL     1      -6.288 -10.303  17.847  0.00  0.00    +0.029 A 
ATOM     27  C   UNL     1      -7.484 -12.063  16.702  0.00  0.00    +0.029 A 
ATOM     28  C   UNL     1      -7.459  -9.548  17.908  0.00  0.00    +0.005 A 
ATOM     29  C   UNL     1      -8.655 -11.307  16.763  0.00  0.00    +0.005 A 
ATOM     30  C   UNL     1      -8.641 -10.049  17.366  0.00  0.00    -0.050 A 
ATOM     31  C   UNL     1      -9.894  -9.241  17.431  0.00  0.00    +0.044 C 
ENDBRANCH   2  25
ENDBRANCH   8   2
TORSDOF 2
ENDMDL
