MODEL 1
REMARK VINA RESULT:      -6.6      0.000      0.000
REMARK  Name = 45784300
REMARK  5 active torsions:
REMARK  status: ('A' for Active; 'I' for Inactive)
REMARK    1  A    between atoms: O_2  and  C_19
REMARK    2  A    between atoms: O_2  and  C_22
REMARK    3  A    between atoms: N_3  and  C_11
REMARK    4  A    between atoms: C_6  and  C_10
REMARK    5  A    between atoms: C_11  and  C_12
REMARK                            x       y       z     vdW  Elec       q    Type
REMARK                         _______ _______ _______ _____ _____    ______ ____
ROOT
ATOM      4  N   UNL     1      15.566   8.320  20.794  0.00  0.00    -0.341 N 
ATOM      5  N   UNL     1      14.862   7.213  18.999  0.00  0.00    -0.232 NA
ATOM     10  C   UNL     1      14.564   8.141  19.880  0.00  0.00    +0.113 A 
ATOM     13  C   UNL     1      16.577   7.449  20.481  0.00  0.00    +0.070 A 
ATOM     14  C   UNL     1      16.115   6.770  19.357  0.00  0.00    +0.089 A 
ATOM     15  C   UNL     1      17.820   7.204  21.067  0.00  0.00    +0.073 A 
ATOM     18  C   UNL     1      16.926   5.784  18.770  0.00  0.00    +0.033 A 
ATOM     19  C   UNL     1      18.615   6.221  20.469  0.00  0.00    +0.122 A 
ATOM     20  C   UNL     1      18.178   5.522  19.341  0.00  0.00    +0.048 A 
ATOM     23  H   UNL     1      15.565   8.976  21.563  0.00  0.00    +0.167 HD
ENDROOT
BRANCH  10   6
ATOM      3  N   UNL     1      11.464   9.463  21.320  0.00  0.00    -0.297 NA
ATOM      6  C   UNL     1      13.292   8.954  19.941  0.00  0.00    +0.070 C 
ATOM      7  C   UNL     1      12.037   8.231  19.420  0.00  0.00    +0.028 C 
ATOM      8  C   UNL     1      12.927   9.389  21.366  0.00  0.00    +0.096 C 
ATOM      9  C   UNL     1      11.049   8.271  20.580  0.00  0.00    +0.085 C 
BRANCH   3  11
ATOM     11  C   UNL     1      10.869   9.526  22.646  0.00  0.00    +0.120 C 
BRANCH  11  12
ATOM      1  S   UNL     1      11.166  12.827  24.939  0.00  0.00    -0.105 S 
ATOM     12  C   UNL     1      10.980  10.903  23.246  0.00  0.00    -0.026 A 
ATOM     16  C   UNL     1      11.036  12.102  22.477  0.00  0.00    +0.012 A 
ATOM     17  C   UNL     1      11.041  11.153  24.598  0.00  0.00    +0.050 A 
ATOM     21  C   UNL     1      11.138  13.222  23.273  0.00  0.00    +0.045 A 
ENDBRANCH  11  12
ENDBRANCH   3  11
ENDBRANCH  10   6
BRANCH  19   2
ATOM      2  O   UNL     1      19.840   5.940  20.999  0.00  0.00    -0.495 OA
ATOM     22  C   UNL     1      20.546   4.834  20.443  0.00  0.00    +0.277 C 
ENDBRANCH  19   2
TORSDOF 4
ENDMDL
MODEL 2
REMARK VINA RESULT:      -6.4      5.231     10.153
REMARK  Name = 45784300
REMARK  5 active torsions:
REMARK  status: ('A' for Active; 'I' for Inactive)
REMARK    1  A    between atoms: O_2  and  C_19
REMARK    2  A    between atoms: O_2  and  C_22
REMARK    3  A    between atoms: N_3  and  C_11
REMARK    4  A    between atoms: C_6  and  C_10
REMARK    5  A    between atoms: C_11  and  C_12
REMARK                            x       y       z     vdW  Elec       q    Type
REMARK                         _______ _______ _______ _____ _____    ______ ____
ROOT
ATOM      4  N   UNL     1      17.813   6.866  21.600  0.00  0.00    -0.341 N 
ATOM      5  N   UNL     1      17.808   6.285  19.454  0.00  0.00    -0.232 NA
ATOM     10  C   UNL     1      18.551   6.451  20.526  0.00  0.00    +0.113 A 
ATOM     13  C   UNL     1      16.508   6.977  21.194  0.00  0.00    +0.070 A 
ATOM     14  C   UNL     1      16.530   6.608  19.852  0.00  0.00    +0.089 A 
ATOM     15  C   UNL     1      15.345   7.355  21.866  0.00  0.00    +0.073 A 
ATOM     18  C   UNL     1      15.331   6.613  19.120  0.00  0.00    +0.033 A 
ATOM     19  C   UNL     1      14.161   7.354  21.122  0.00  0.00    +0.122 A 
ATOM     20  C   UNL     1      14.151   6.989  19.774  0.00  0.00    +0.048 A 
ATOM     23  H   UNL     1      18.164   7.059  22.529  0.00  0.00    +0.167 HD
ENDROOT
BRANCH  10   6
ATOM      3  N   UNL     1      21.653   4.620  21.198  0.00  0.00    -0.297 NA
ATOM      6  C   UNL     1      20.041   6.228  20.635  0.00  0.00    +0.070 C 
ATOM      7  C   UNL     1      20.646   6.564  22.010  0.00  0.00    +0.028 C 
ATOM      8  C   UNL     1      20.449   4.772  20.377  0.00  0.00    +0.096 C 
ATOM      9  C   UNL     1      21.333   5.281  22.463  0.00  0.00    +0.085 C 
BRANCH   3  11
ATOM     11  C   UNL     1      22.027   3.225  21.381  0.00  0.00    +0.120 C 
BRANCH  11  12
ATOM      1  S   UNL     1      25.855   3.258  20.124  0.00  0.00    -0.105 S 
ATOM     12  C   UNL     1      23.480   2.988  21.066  0.00  0.00    -0.026 A 
ATOM     16  C   UNL     1      24.227   1.876  21.552  0.00  0.00    +0.012 A 
ATOM     17  C   UNL     1      24.244   3.818  20.277  0.00  0.00    +0.050 A 
ATOM     21  C   UNL     1      25.534   1.900  21.116  0.00  0.00    +0.045 A 
ENDBRANCH  11  12
ENDBRANCH   3  11
ENDBRANCH  10   6
BRANCH  19   2
ATOM      2  O   UNL     1      12.993   7.714  21.728  0.00  0.00    -0.495 OA
ATOM     22  C   UNL     1      11.831   6.959  21.394  0.00  0.00    +0.277 C 
ENDBRANCH  19   2
TORSDOF 4
ENDMDL
MODEL 3
REMARK VINA RESULT:      -6.3     27.063     28.680
REMARK  Name = 45784300
REMARK  5 active torsions:
REMARK  status: ('A' for Active; 'I' for Inactive)
REMARK    1  A    between atoms: O_2  and  C_19
REMARK    2  A    between atoms: O_2  and  C_22
REMARK    3  A    between atoms: N_3  and  C_11
REMARK    4  A    between atoms: C_6  and  C_10
REMARK    5  A    between atoms: C_11  and  C_12
REMARK                            x       y       z     vdW  Elec       q    Type
REMARK                         _______ _______ _______ _____ _____    ______ ____
ROOT
ATOM      4  N   UNL     1      -4.936 -10.153  16.195  0.00  0.00    -0.341 N 
ATOM      5  N   UNL     1      -3.361 -11.354  17.205  0.00  0.00    -0.232 NA
ATOM     10  C   UNL     1      -3.679 -10.685  16.119  0.00  0.00    +0.113 A 
ATOM     13  C   UNL     1      -5.465 -10.501  17.412  0.00  0.00    +0.070 A 
ATOM     14  C   UNL     1      -4.463 -11.249  18.023  0.00  0.00    +0.089 A 
ATOM     15  C   UNL     1      -6.697 -10.234  18.011  0.00  0.00    +0.073 A 
ATOM     18  C   UNL     1      -4.686 -11.771  19.309  0.00  0.00    +0.033 A 
ATOM     19  C   UNL     1      -6.901 -10.759  19.291  0.00  0.00    +0.122 A 
ATOM     20  C   UNL     1      -5.914 -11.515  19.930  0.00  0.00    +0.048 A 
ATOM     23  H   UNL     1      -5.397  -9.600  15.484  0.00  0.00    +0.167 HD
ENDROOT
BRANCH  10   6
ATOM      3  N   UNL     1      -2.510 -11.206  12.685  0.00  0.00    -0.297 NA
ATOM      6  C   UNL     1      -2.814 -10.485  14.897  0.00  0.00    +0.070 C 
ATOM      7  C   UNL     1      -1.581 -11.404  14.819  0.00  0.00    +0.028 C 
ATOM      8  C   UNL     1      -3.567 -10.734  13.583  0.00  0.00    +0.096 C 
ATOM      9  C   UNL     1      -1.719 -12.137  13.490  0.00  0.00    +0.085 C 
BRANCH   3  11
ATOM     11  C   UNL     1      -3.041 -11.828  11.481  0.00  0.00    +0.120 C 
BRANCH  11  12
ATOM      1  S   UNL     1      -5.412  -9.679   9.032  0.00  0.00    -0.105 S 
ATOM     12  C   UNL     1      -3.712 -10.824  10.581  0.00  0.00    -0.026 A 
ATOM     16  C   UNL     1      -3.146  -9.561  10.239  0.00  0.00    +0.012 A 
ATOM     17  C   UNL     1      -4.941 -11.016   9.992  0.00  0.00    +0.050 A 
ATOM     21  C   UNL     1      -3.967  -8.837   9.402  0.00  0.00    +0.045 A 
ENDBRANCH  11  12
ENDBRANCH   3  11
ENDBRANCH  10   6
BRANCH  19   2
ATOM      2  O   UNL     1      -8.086 -10.529  19.925  0.00  0.00    -0.495 OA
ATOM     22  C   UNL     1      -9.200 -11.320  19.520  0.00  0.00    +0.277 C 
ENDBRANCH  19   2
TORSDOF 4
ENDMDL
MODEL 4
REMARK VINA RESULT:      -6.1     29.278     31.507
REMARK  Name = 45784300
REMARK  5 active torsions:
REMARK  status: ('A' for Active; 'I' for Inactive)
REMARK    1  A    between atoms: O_2  and  C_19
REMARK    2  A    between atoms: O_2  and  C_22
REMARK    3  A    between atoms: N_3  and  C_11
REMARK    4  A    between atoms: C_6  and  C_10
REMARK    5  A    between atoms: C_11  and  C_12
REMARK                            x       y       z     vdW  Elec       q    Type
REMARK                         _______ _______ _______ _____ _____    ______ ____
ROOT
ATOM      4  N   UNL     1      -0.394   2.247  -7.575  0.00  0.00    -0.341 N 
ATOM      5  N   UNL     1       0.819   0.965  -6.223  0.00  0.00    -0.232 NA
ATOM     10  C   UNL     1       0.770   2.108  -6.872  0.00  0.00    +0.113 A 
ATOM     13  C   UNL     1      -1.146   1.119  -7.367  0.00  0.00    +0.070 A 
ATOM     14  C   UNL     1      -0.369   0.335  -6.520  0.00  0.00    +0.089 A 
ATOM     15  C   UNL     1      -2.403   0.730  -7.834  0.00  0.00    +0.073 A 
ATOM     18  C   UNL     1      -0.857  -0.915  -6.103  0.00  0.00    +0.033 A 
ATOM     19  C   UNL     1      -2.873  -0.517  -7.408  0.00  0.00    +0.122 A 
ATOM     20  C   UNL     1      -2.115  -1.326  -6.558  0.00  0.00    +0.048 A 
ATOM     23  H   UNL     1      -0.657   3.038  -8.147  0.00  0.00    +0.167 HD
ENDROOT
BRANCH  10   6
ATOM      3  N   UNL     1       2.723   4.942  -5.614  0.00  0.00    -0.297 NA
ATOM      6  C   UNL     1       1.830   3.184  -6.885  0.00  0.00    +0.070 C 
ATOM      7  C   UNL     1       1.376   4.531  -7.477  0.00  0.00    +0.028 C 
ATOM      8  C   UNL     1       2.348   3.531  -5.483  0.00  0.00    +0.096 C 
ATOM      9  C   UNL     1       1.634   5.552  -6.377  0.00  0.00    +0.085 C 
BRANCH   3  11
ATOM     11  C   UNL     1       2.924   5.584  -4.324  0.00  0.00    +0.120 C 
BRANCH  11  12
ATOM      1  S   UNL     1       6.904   6.211  -4.412  0.00  0.00    -0.105 S 
ATOM     12  C   UNL     1       4.365   5.964  -4.106  0.00  0.00    -0.026 A 
ATOM     16  C   UNL     1       4.825   6.728  -2.993  0.00  0.00    +0.012 A 
ATOM     17  C   UNL     1       5.392   5.618  -4.954  0.00  0.00    +0.050 A 
ATOM     21  C   UNL     1       6.186   6.936  -3.037  0.00  0.00    +0.045 A 
ENDBRANCH  11  12
ENDBRANCH   3  11
ENDBRANCH  10   6
BRANCH  19   2
ATOM      2  O   UNL     1      -4.095  -0.948  -7.832  0.00  0.00    -0.495 OA
ATOM     22  C   UNL     1      -5.153   0.006  -7.834  0.00  0.00    +0.277 C 
ENDBRANCH  19   2
TORSDOF 4
ENDMDL
MODEL 5
REMARK VINA RESULT:      -6.0     30.019     31.572
REMARK  Name = 45784300
REMARK  5 active torsions:
REMARK  status: ('A' for Active; 'I' for Inactive)
REMARK    1  A    between atoms: O_2  and  C_19
REMARK    2  A    between atoms: O_2  and  C_22
REMARK    3  A    between atoms: N_3  and  C_11
REMARK    4  A    between atoms: C_6  and  C_10
REMARK    5  A    between atoms: C_11  and  C_12
REMARK                            x       y       z     vdW  Elec       q    Type
REMARK                         _______ _______ _______ _____ _____    ______ ____
ROOT
ATOM      4  N   UNL     1     -15.642   3.395  27.052  0.00  0.00    -0.341 N 
ATOM      5  N   UNL     1     -17.090   1.709  26.964  0.00  0.00    -0.232 NA
ATOM     10  C   UNL     1     -16.312   2.426  27.746  0.00  0.00    +0.113 A 
ATOM     13  C   UNL     1     -16.011   3.297  25.735  0.00  0.00    +0.070 A 
ATOM     14  C   UNL     1     -16.915   2.239  25.706  0.00  0.00    +0.089 A 
ATOM     15  C   UNL     1     -15.643   4.022  24.600  0.00  0.00    +0.073 A 
ATOM     18  C   UNL     1     -17.496   1.867  24.481  0.00  0.00    +0.033 A 
ATOM     19  C   UNL     1     -16.231   3.639  23.391  0.00  0.00    +0.122 A 
ATOM     20  C   UNL     1     -17.141   2.581  23.330  0.00  0.00    +0.048 A 
ATOM     23  H   UNL     1     -14.990   4.065  27.437  0.00  0.00    +0.167 HD
ENDROOT
BRANCH  10   6
ATOM      3  N   UNL     1     -14.628   2.665  30.992  0.00  0.00    -0.297 NA
ATOM      6  C   UNL     1     -16.130   2.259  29.236  0.00  0.00    +0.070 C 
ATOM      7  C   UNL     1     -15.468   0.937  29.663  0.00  0.00    +0.028 C 
ATOM      8  C   UNL     1     -15.251   3.353  29.858  0.00  0.00    +0.096 C 
ATOM      9  C   UNL     1     -14.245   1.352  30.472  0.00  0.00    +0.085 C 
BRANCH   3  11
ATOM     11  C   UNL     1     -13.494   3.400  31.531  0.00  0.00    +0.120 C 
BRANCH  11  12
ATOM      1  S   UNL     1     -14.733   5.062  34.986  0.00  0.00    -0.105 S 
ATOM     12  C   UNL     1     -13.893   4.276  32.689  0.00  0.00    -0.026 A 
ATOM     16  C   UNL     1     -13.807   5.699  32.675  0.00  0.00    +0.012 A 
ATOM     17  C   UNL     1     -14.380   3.799  33.885  0.00  0.00    +0.050 A 
ATOM     21  C   UNL     1     -14.233   6.254  33.862  0.00  0.00    +0.045 A 
ENDBRANCH  11  12
ENDBRANCH   3  11
ENDBRANCH  10   6
BRANCH  19   2
ATOM      2  O   UNL     1     -15.908   4.312  22.250  0.00  0.00    -0.495 OA
ATOM     22  C   UNL     1     -14.696   5.062  22.262  0.00  0.00    +0.277 C 
ENDBRANCH  19   2
TORSDOF 4
ENDMDL
MODEL 6
REMARK VINA RESULT:      -6.0     13.998     16.579
REMARK  Name = 45784300
REMARK  5 active torsions:
REMARK  status: ('A' for Active; 'I' for Inactive)
REMARK    1  A    between atoms: O_2  and  C_19
REMARK    2  A    between atoms: O_2  and  C_22
REMARK    3  A    between atoms: N_3  and  C_11
REMARK    4  A    between atoms: C_6  and  C_10
REMARK    5  A    between atoms: C_11  and  C_12
REMARK                            x       y       z     vdW  Elec       q    Type
REMARK                         _______ _______ _______ _____ _____    ______ ____
ROOT
ATOM      4  N   UNL     1      12.654   6.298   6.740  0.00  0.00    -0.341 N 
ATOM      5  N   UNL     1      11.839   8.142   5.804  0.00  0.00    -0.232 NA
ATOM     10  C   UNL     1      12.871   7.330   5.869  0.00  0.00    +0.113 A 
ATOM     13  C   UNL     1      11.400   6.455   7.272  0.00  0.00    +0.070 A 
ATOM     14  C   UNL     1      10.911   7.611   6.671  0.00  0.00    +0.089 A 
ATOM     15  C   UNL     1      10.673   5.706   8.198  0.00  0.00    +0.073 A 
ATOM     18  C   UNL     1       9.623   8.064   7.004  0.00  0.00    +0.033 A 
ATOM     19  C   UNL     1       9.393   6.170   8.517  0.00  0.00    +0.122 A 
ATOM     20  C   UNL     1       8.875   7.328   7.931  0.00  0.00    +0.048 A 
ATOM     23  H   UNL     1      13.301   5.551   6.955  0.00  0.00    +0.167 HD
ENDROOT
BRANCH  10   6
ATOM      3  N   UNL     1      16.221   8.591   5.086  0.00  0.00    -0.297 NA
ATOM      6  C   UNL     1      14.168   7.456   5.106  0.00  0.00    +0.070 C 
ATOM      7  C   UNL     1      14.161   8.513   3.988  0.00  0.00    +0.028 C 
ATOM      8  C   UNL     1      15.353   7.844   6.001  0.00  0.00    +0.096 C 
ATOM      9  C   UNL     1      15.315   9.450   4.324  0.00  0.00    +0.085 C 
BRANCH   3  11
ATOM     11  C   UNL     1      17.245   9.349   5.789  0.00  0.00    +0.120 C 
BRANCH  11  12
ATOM      1  S   UNL     1      20.925   7.794   6.311  0.00  0.00    -0.105 S 
ATOM     12  C   UNL     1      18.594   8.686   5.702  0.00  0.00    -0.026 A 
ATOM     16  C   UNL     1      19.093   8.051   4.528  0.00  0.00    +0.012 A 
ATOM     17  C   UNL     1      19.489   8.619   6.746  0.00  0.00    +0.050 A 
ATOM     21  C   UNL     1      20.351   7.523   4.720  0.00  0.00    +0.045 A 
ENDBRANCH  11  12
ENDBRANCH   3  11
ENDBRANCH  10   6
BRANCH  19   2
ATOM      2  O   UNL     1       8.637   5.477   9.416  0.00  0.00    -0.495 OA
ATOM     22  C   UNL     1       9.289   4.442  10.147  0.00  0.00    +0.277 C 
ENDBRANCH  19   2
TORSDOF 4
ENDMDL
MODEL 7
REMARK VINA RESULT:      -5.8     27.394     30.537
REMARK  Name = 45784300
REMARK  5 active torsions:
REMARK  status: ('A' for Active; 'I' for Inactive)
REMARK    1  A    between atoms: O_2  and  C_19
REMARK    2  A    between atoms: O_2  and  C_22
REMARK    3  A    between atoms: N_3  and  C_11
REMARK    4  A    between atoms: C_6  and  C_10
REMARK    5  A    between atoms: C_11  and  C_12
REMARK                            x       y       z     vdW  Elec       q    Type
REMARK                         _______ _______ _______ _____ _____    ______ ____
ROOT
ATOM      4  N   UNL     1     -15.614   4.179  25.317  0.00  0.00    -0.341 N 
ATOM      5  N   UNL     1     -16.311   2.443  24.116  0.00  0.00    -0.232 NA
ATOM     10  C   UNL     1     -15.797   3.653  24.068  0.00  0.00    +0.113 A 
ATOM     13  C   UNL     1     -16.037   3.248  26.230  0.00  0.00    +0.070 A 
ATOM     14  C   UNL     1     -16.467   2.174  25.456  0.00  0.00    +0.089 A 
ATOM     15  C   UNL     1     -16.080   3.254  27.626  0.00  0.00    +0.073 A 
ATOM     18  C   UNL     1     -16.973   1.029  26.095  0.00  0.00    +0.033 A 
ATOM     19  C   UNL     1     -16.585   2.106  28.244  0.00  0.00    +0.122 A 
ATOM     20  C   UNL     1     -17.024   1.011  27.493  0.00  0.00    +0.048 A 
ATOM     23  H   UNL     1     -15.234   5.092  25.532  0.00  0.00    +0.167 HD
ENDROOT
BRANCH  10   6
ATOM      3  N   UNL     1     -14.784   6.556  22.076  0.00  0.00    -0.297 NA
ATOM      6  C   UNL     1     -15.428   4.429  22.826  0.00  0.00    +0.070 C 
ATOM      7  C   UNL     1     -16.612   5.103  22.109  0.00  0.00    +0.028 C 
ATOM      8  C   UNL     1     -14.443   5.571  23.106  0.00  0.00    +0.096 C 
ATOM      9  C   UNL     1     -16.247   6.581  22.048  0.00  0.00    +0.085 C 
BRANCH   3  11
ATOM     11  C   UNL     1     -14.214   7.866  22.350  0.00  0.00    +0.120 C 
BRANCH  11  12
ATOM      1  S   UNL     1     -11.528   9.519  19.841  0.00  0.00    -0.105 S 
ATOM     12  C   UNL     1     -13.107   8.209  21.387  0.00  0.00    -0.026 A 
ATOM     16  C   UNL     1     -12.193   7.254  20.855  0.00  0.00    +0.012 A 
ATOM     17  C   UNL     1     -12.859   9.479  20.918  0.00  0.00    +0.050 A 
ATOM     21  C   UNL     1     -11.280   7.832  20.001  0.00  0.00    +0.045 A 
ENDBRANCH  11  12
ENDBRANCH   3  11
ENDBRANCH  10   6
BRANCH  19   2
ATOM      2  O   UNL     1     -16.650   2.055  29.605  0.00  0.00    -0.495 OA
ATOM     22  C   UNL     1     -15.631   1.315  30.273  0.00  0.00    +0.277 C 
ENDBRANCH  19   2
TORSDOF 4
ENDMDL
MODEL 8
REMARK VINA RESULT:      -5.7     17.221     19.814
REMARK  Name = 45784300
REMARK  5 active torsions:
REMARK  status: ('A' for Active; 'I' for Inactive)
REMARK    1  A    between atoms: O_2  and  C_19
REMARK    2  A    between atoms: O_2  and  C_22
REMARK    3  A    between atoms: N_3  and  C_11
REMARK    4  A    between atoms: C_6  and  C_10
REMARK    5  A    between atoms: C_11  and  C_12
REMARK                            x       y       z     vdW  Elec       q    Type
REMARK                         _______ _______ _______ _____ _____    ______ ____
ROOT
ATOM      4  N   UNL     1      10.673   4.366   4.992  0.00  0.00    -0.341 N 
ATOM      5  N   UNL     1       9.997   6.171   3.883  0.00  0.00    -0.232 NA
ATOM     10  C   UNL     1      10.615   5.014   3.788  0.00  0.00    +0.113 A 
ATOM     13  C   UNL     1      10.053   5.158   5.924  0.00  0.00    +0.070 A 
ATOM     14  C   UNL     1       9.638   6.277   5.207  0.00  0.00    +0.089 A 
ATOM     15  C   UNL     1       9.824   4.995   7.291  0.00  0.00    +0.073 A 
ATOM     18  C   UNL     1       8.955   7.306   5.878  0.00  0.00    +0.033 A 
ATOM     19  C   UNL     1       9.143   6.028   7.942  0.00  0.00    +0.122 A 
ATOM     20  C   UNL     1       8.715   7.164   7.250  0.00  0.00    +0.048 A 
ATOM     23  H   UNL     1      11.097   3.465   5.166  0.00  0.00    +0.167 HD
ENDROOT
BRANCH  10   6
ATOM      3  N   UNL     1      12.183   4.958   0.477  0.00  0.00    -0.297 NA
ATOM      6  C   UNL     1      11.211   4.408   2.540  0.00  0.00    +0.070 C 
ATOM      7  C   UNL     1      10.204   4.137   1.408  0.00  0.00    +0.028 C 
ATOM      8  C   UNL     1      12.287   5.295   1.900  0.00  0.00    +0.096 C 
ATOM      9  C   UNL     1      10.747   4.903   0.207  0.00  0.00    +0.085 C 
BRANCH   3  11
ATOM     11  C   UNL     1      12.870   5.919  -0.372  0.00  0.00    +0.120 C 
BRANCH  11  12
ATOM      1  S   UNL     1      16.847   5.722  -0.996  0.00  0.00    -0.105 S 
ATOM     12  C   UNL     1      14.318   5.555  -0.574  0.00  0.00    -0.026 A 
ATOM     16  C   UNL     1      14.814   4.220  -0.536  0.00  0.00    +0.012 A 
ATOM     17  C   UNL     1      15.317   6.471  -0.816  0.00  0.00    +0.050 A 
ATOM     21  C   UNL     1      16.174   4.167  -0.749  0.00  0.00    +0.045 A 
ENDBRANCH  11  12
ENDBRANCH   3  11
ENDBRANCH  10   6
BRANCH  19   2
ATOM      2  O   UNL     1       8.891   5.922   9.278  0.00  0.00    -0.495 OA
ATOM     22  C   UNL     1       9.220   4.684   9.902  0.00  0.00    +0.277 C 
ENDBRANCH  19   2
TORSDOF 4
ENDMDL
MODEL 9
REMARK VINA RESULT:      -5.7     27.079     29.810
REMARK  Name = 45784300
REMARK  5 active torsions:
REMARK  status: ('A' for Active; 'I' for Inactive)
REMARK    1  A    between atoms: O_2  and  C_19
REMARK    2  A    between atoms: O_2  and  C_22
REMARK    3  A    between atoms: N_3  and  C_11
REMARK    4  A    between atoms: C_6  and  C_10
REMARK    5  A    between atoms: C_11  and  C_12
REMARK                            x       y       z     vdW  Elec       q    Type
REMARK                         _______ _______ _______ _____ _____    ______ ____
ROOT
ATOM      4  N   UNL     1      -8.221  -8.548  17.000  0.00  0.00    -0.341 N 
ATOM      5  N   UNL     1      -9.180 -10.157  18.198  0.00  0.00    -0.232 NA
ATOM     10  C   UNL     1      -8.038  -9.642  17.800  0.00  0.00    +0.113 A 
ATOM     13  C   UNL     1      -9.571  -8.344  16.873  0.00  0.00    +0.070 A 
ATOM     14  C   UNL     1     -10.148  -9.360  17.630  0.00  0.00    +0.089 A 
ATOM     15  C   UNL     1     -10.315  -7.386  16.182  0.00  0.00    +0.073 A 
ATOM     18  C   UNL     1     -11.548  -9.441  17.713  0.00  0.00    +0.033 A 
ATOM     19  C   UNL     1     -11.706  -7.482  16.276  0.00  0.00    +0.122 A 
ATOM     20  C   UNL     1     -12.315  -8.491  17.028  0.00  0.00    +0.048 A 
ATOM     23  H   UNL     1      -7.494  -7.988  16.576  0.00  0.00    +0.167 HD
ENDROOT
BRANCH  10   6
ATOM      3  N   UNL     1      -4.931 -11.541  17.386  0.00  0.00    -0.297 NA
ATOM      6  C   UNL     1      -6.654 -10.141  18.144  0.00  0.00    +0.070 C 
ATOM      7  C   UNL     1      -6.622 -11.425  18.993  0.00  0.00    +0.028 C 
ATOM      8  C   UNL     1      -5.813 -10.474  16.904  0.00  0.00    +0.096 C 
ATOM      9  C   UNL     1      -5.795 -12.414  18.181  0.00  0.00    +0.085 C 
BRANCH   3  11
ATOM     11  C   UNL     1      -4.276 -12.252  16.298  0.00  0.00    +0.120 C 
BRANCH  11  12
ATOM      1  S   UNL     1      -1.090  -9.998  15.298  0.00  0.00    -0.105 S 
ATOM     12  C   UNL     1      -3.199 -11.421  15.653  0.00  0.00    -0.026 A 
ATOM     16  C   UNL     1      -3.171 -11.095  14.265  0.00  0.00    +0.012 A 
ATOM     17  C   UNL     1      -2.126 -10.887  16.331  0.00  0.00    +0.050 A 
ATOM     21  C   UNL     1      -2.076 -10.326  13.937  0.00  0.00    +0.045 A 
ENDBRANCH  11  12
ENDBRANCH   3  11
ENDBRANCH  10   6
BRANCH  19   2
ATOM      2  O   UNL     1     -12.483  -6.572  15.622  0.00  0.00    -0.495 OA
ATOM     22  C   UNL     1     -11.820  -5.672  14.738  0.00  0.00    +0.277 C 
ENDBRANCH  19   2
TORSDOF 4
ENDMDL
MODEL 10
REMARK VINA RESULT:      -5.6     27.877     30.571
REMARK  Name = 45784300
REMARK  5 active torsions:
REMARK  status: ('A' for Active; 'I' for Inactive)
REMARK    1  A    between atoms: O_2  and  C_19
REMARK    2  A    between atoms: O_2  and  C_22
REMARK    3  A    between atoms: N_3  and  C_11
REMARK    4  A    between atoms: C_6  and  C_10
REMARK    5  A    between atoms: C_11  and  C_12
REMARK                            x       y       z     vdW  Elec       q    Type
REMARK                         _______ _______ _______ _____ _____    ______ ____
ROOT
ATOM      4  N   UNL     1      -9.047  -9.681  18.237  0.00  0.00    -0.341 N 
ATOM      5  N   UNL     1      -8.857 -11.189  19.860  0.00  0.00    -0.232 NA
ATOM     10  C   UNL     1      -8.203 -10.444  18.996  0.00  0.00    +0.113 A 
ATOM     13  C   UNL     1     -10.330  -9.953  18.636  0.00  0.00    +0.070 A 
ATOM     14  C   UNL     1     -10.185 -10.895  19.650  0.00  0.00    +0.089 A 
ATOM     15  C   UNL     1     -11.568  -9.469  18.210  0.00  0.00    +0.073 A 
ATOM     18  C   UNL     1     -11.333 -11.397  20.288  0.00  0.00    +0.033 A 
ATOM     19  C   UNL     1     -12.699  -9.978  18.856  0.00  0.00    +0.122 A 
ATOM     20  C   UNL     1     -12.585 -10.925  19.877  0.00  0.00    +0.048 A 
ATOM     23  H   UNL     1      -8.776  -9.032  17.510  0.00  0.00    +0.167 HD
ENDROOT
BRANCH  10   6
ATOM      3  N   UNL     1      -4.925 -11.378  17.651  0.00  0.00    -0.297 NA
ATOM      6  C   UNL     1      -6.705 -10.382  18.809  0.00  0.00    +0.070 C 
ATOM      7  C   UNL     1      -5.896 -11.270  19.772  0.00  0.00    +0.028 C 
ATOM      8  C   UNL     1      -6.259 -10.821  17.409  0.00  0.00    +0.096 C 
ATOM      9  C   UNL     1      -5.065 -12.174  18.870  0.00  0.00    +0.085 C 
BRANCH   3  11
ATOM     11  C   UNL     1      -4.441 -12.166  16.528  0.00  0.00    +0.120 C 
BRANCH  11  12
ATOM      1  S   UNL     1      -2.024 -10.412  13.821  0.00  0.00    -0.105 S 
ATOM     12  C   UNL     1      -3.374 -11.439  15.751  0.00  0.00    -0.026 A 
ATOM     16  C   UNL     1      -2.238 -10.822  16.349  0.00  0.00    +0.012 A 
ATOM     17  C   UNL     1      -3.382 -11.292  14.382  0.00  0.00    +0.050 A 
ATOM     21  C   UNL     1      -1.421 -10.225  15.414  0.00  0.00    +0.045 A 
ENDBRANCH  11  12
ENDBRANCH   3  11
ENDBRANCH  10   6
BRANCH  19   2
ATOM      2  O   UNL     1     -13.935  -9.541  18.481  0.00  0.00    -0.495 OA
ATOM     22  C   UNL     1     -14.045  -8.939  17.193  0.00  0.00    +0.277 C 
ENDBRANCH  19   2
TORSDOF 4
ENDMDL
