MODEL 1
REMARK VINA RESULT:      -8.3      0.000      0.000
REMARK  Name = 45783937
REMARK  10 active torsions:
REMARK  status: ('A' for Active; 'I' for Inactive)
REMARK    1  A    between atoms: N_2  and  C_13
REMARK    2  A    between atoms: C_8  and  C_12
REMARK    3  A    between atoms: C_9  and  C_13
REMARK    4  A    between atoms: C_11  and  C_16
REMARK    5  A    between atoms: C_12  and  C_17
REMARK    6  A    between atoms: C_12  and  C_18
REMARK    7  A    between atoms: C_15  and  C_21
REMARK    8  A    between atoms: C_16  and  C_24
REMARK    9  A    between atoms: C_26  and  C_28
REMARK   10  A    between atoms: C_35  and  C_36
REMARK                            x       y       z     vdW  Elec       q    Type
REMARK                         _______ _______ _______ _____ _____    ______ ____
ROOT
ATOM      8  C   UNL     1      13.193  10.649  21.771  0.00  0.00    +0.000 C 
ATOM      9  C   UNL     1      14.235   9.521  21.955  0.00  0.00    +0.029 C 
ATOM     10  C   UNL     1      12.229  10.310  20.626  0.00  0.00    +0.012 C 
ATOM     11  C   UNL     1      11.500   8.963  20.820  0.00  0.00    +0.024 C 
ATOM     14  C   UNL     1      13.618   8.146  21.893  0.00  0.00    -0.023 C 
ATOM     15  C   UNL     1      12.395   7.879  21.402  0.00  0.00    -0.073 C 
ATOM     21  C   UNL     1      11.840   6.482  21.468  0.00  0.00    +0.039 C 
ENDROOT
BRANCH   8  12
ATOM     12  C   UNL     1      12.432  10.925  23.075  0.00  0.00    -0.013 C 
ATOM     17  C   UNL     1      13.376  11.492  24.131  0.00  0.00    +0.007 C 
ATOM     18  C   UNL     1      11.269  11.878  22.820  0.00  0.00    +0.007 C 
ENDBRANCH   8  12
BRANCH   9  13
ATOM     13  C   UNL     1      15.360   9.615  20.918  0.00  0.00    +0.092 C 
BRANCH  13   2
ATOM      2  N   UNL     1      16.402   8.627  21.194  0.00  0.00    -0.299 NA
ATOM      3  N   UNL     1      18.901   7.297  20.814  0.00  0.00    -0.312 N 
ATOM      6  N   UNL     1      20.039   5.211  20.772  0.00  0.00    -0.237 NA
ATOM      7  N   UNL     1      22.452   6.601  20.438  0.00  0.00    -0.258 NA
ATOM     19  C   UNL     1      17.659   9.290  21.557  0.00  0.00    +0.103 C 
ATOM     20  C   UNL     1      16.612   7.761  20.028  0.00  0.00    +0.103 C 
ATOM     22  C   UNL     1      18.743   8.267  21.903  0.00  0.00    +0.122 C 
ATOM     23  C   UNL     1      17.660   6.685  20.324  0.00  0.00    +0.122 C 
ATOM     25  C   UNL     1      20.084   6.557  20.710  0.00  0.00    +0.140 A 
ATOM     27  C   UNL     1      21.269   7.240  20.547  0.00  0.00    +0.154 A 
ATOM     29  C   UNL     1      21.221   4.573  20.664  0.00  0.00    +0.132 A 
ATOM     30  C   UNL     1      22.406   5.256  20.499  0.00  0.00    +0.130 A 
ENDBRANCH  13   2
ENDBRANCH   9  13
BRANCH  11  16
ATOM     16  C   UNL     1      10.859   8.556  19.487  0.00  0.00    +0.105 C 
BRANCH  16  24
ATOM      1  O   UNL     1      12.599   9.528  18.079  0.00  0.00    -0.420 OA
ATOM      4  N   UNL     1      12.223   7.355  17.703  0.00  0.00    -0.112 NA
ATOM      5  N   UNL     1      13.223   7.771  16.844  0.00  0.00    -0.107 NA
ATOM     24  C   UNL     1      11.889   8.413  18.404  0.00  0.00    +0.218 A 
ATOM     26  C   UNL     1      13.409   9.045  17.098  0.00  0.00    +0.248 A 
BRANCH  26  28
ATOM     28  C   UNL     1      14.317   9.988  16.513  0.00  0.00    +0.038 A 
ATOM     31  C   UNL     1      14.700   9.853  15.178  0.00  0.00    +0.013 A 
ATOM     32  C   UNL     1      14.820  11.041  17.278  0.00  0.00    +0.013 A 
ATOM     33  C   UNL     1      15.583  10.771  14.608  0.00  0.00    +0.004 A 
ATOM     34  C   UNL     1      15.702  11.958  16.710  0.00  0.00    +0.004 A 
ATOM     35  C   UNL     1      16.084  11.823  15.375  0.00  0.00    -0.050 A 
ATOM     36  C   UNL     1      17.029  12.804  14.767  0.00  0.00    +0.044 C 
ENDBRANCH  26  28
ENDBRANCH  16  24
ENDBRANCH  11  16
TORSDOF 6
ENDMDL
MODEL 2
REMARK VINA RESULT:      -7.9     26.757     30.803
REMARK  Name = 45783937
REMARK  10 active torsions:
REMARK  status: ('A' for Active; 'I' for Inactive)
REMARK    1  A    between atoms: N_2  and  C_13
REMARK    2  A    between atoms: C_8  and  C_12
REMARK    3  A    between atoms: C_9  and  C_13
REMARK    4  A    between atoms: C_11  and  C_16
REMARK    5  A    between atoms: C_12  and  C_17
REMARK    6  A    between atoms: C_12  and  C_18
REMARK    7  A    between atoms: C_15  and  C_21
REMARK    8  A    between atoms: C_16  and  C_24
REMARK    9  A    between atoms: C_26  and  C_28
REMARK   10  A    between atoms: C_35  and  C_36
REMARK                            x       y       z     vdW  Elec       q    Type
REMARK                         _______ _______ _______ _____ _____    ______ ____
ROOT
ATOM      8  C   UNL     1      -5.573 -10.835  11.211  0.00  0.00    +0.000 C 
ATOM      9  C   UNL     1      -5.037 -10.700   9.767  0.00  0.00    +0.029 C 
ATOM     10  C   UNL     1      -4.448 -11.255  12.166  0.00  0.00    +0.012 C 
ATOM     11  C   UNL     1      -3.243 -10.290  12.154  0.00  0.00    +0.024 C 
ATOM     14  C   UNL     1      -3.712  -9.983   9.706  0.00  0.00    -0.023 C 
ATOM     15  C   UNL     1      -2.903  -9.780  10.761  0.00  0.00    -0.073 C 
ATOM     21  C   UNL     1      -1.642  -8.974  10.606  0.00  0.00    +0.039 C 
ENDROOT
BRANCH   8  12
ATOM     12  C   UNL     1      -6.246  -9.538  11.682  0.00  0.00    -0.013 C 
ATOM     17  C   UNL     1      -7.351  -9.130  10.713  0.00  0.00    +0.007 C 
ATOM     18  C   UNL     1      -6.798  -9.707  13.093  0.00  0.00    +0.007 C 
ENDBRANCH   8  12
BRANCH   9  13
ATOM     13  C   UNL     1      -4.904 -12.064   9.083  0.00  0.00    +0.092 C 
BRANCH  13   2
ATOM      2  N   UNL     1      -4.452 -11.908   7.701  0.00  0.00    -0.299 NA
ATOM      3  N   UNL     1      -4.401 -12.450   4.897  0.00  0.00    -0.312 N 
ATOM      6  N   UNL     1      -3.043 -12.736   2.968  0.00  0.00    -0.237 NA
ATOM      7  N   UNL     1      -5.377 -12.921   1.425  0.00  0.00    -0.258 NA
ATOM     19  C   UNL     1      -5.561 -11.479   6.841  0.00  0.00    +0.103 C 
ATOM     20  C   UNL     1      -3.888 -13.167   7.198  0.00  0.00    +0.103 C 
ATOM     22  C   UNL     1      -5.088 -11.257   5.402  0.00  0.00    +0.122 C 
ATOM     23  C   UNL     1      -3.358 -13.001   5.772  0.00  0.00    +0.122 C 
ATOM     25  C   UNL     1      -4.271 -12.643   3.517  0.00  0.00    +0.140 A 
ATOM     27  C   UNL     1      -5.417 -12.734   2.759  0.00  0.00    +0.154 A 
ATOM     29  C   UNL     1      -3.004 -12.922   1.634  0.00  0.00    +0.132 A 
ATOM     30  C   UNL     1      -4.150 -13.014   0.876  0.00  0.00    +0.130 A 
ENDBRANCH  13   2
ENDBRANCH   9  13
BRANCH  11  16
ATOM     16  C   UNL     1      -2.058 -10.976  12.844  0.00  0.00    +0.105 C 
BRANCH  16  24
ATOM      1  O   UNL     1      -3.401 -10.965  14.881  0.00  0.00    -0.420 OA
ATOM      4  N   UNL     1      -1.208 -10.697  15.228  0.00  0.00    -0.112 NA
ATOM      5  N   UNL     1      -1.841 -10.672  16.456  0.00  0.00    -0.107 NA
ATOM     24  C   UNL     1      -2.156 -10.871  14.338  0.00  0.00    +0.218 A 
ATOM     26  C   UNL     1      -3.120 -10.831  16.205  0.00  0.00    +0.248 A 
BRANCH  26  28
ATOM     28  C   UNL     1      -4.244 -10.885  17.094  0.00  0.00    +0.038 A 
ATOM     31  C   UNL     1      -5.439 -10.255  16.746  0.00  0.00    +0.013 A 
ATOM     32  C   UNL     1      -4.142 -11.565  18.308  0.00  0.00    +0.013 A 
ATOM     33  C   UNL     1      -6.533 -10.308  17.610  0.00  0.00    +0.004 A 
ATOM     34  C   UNL     1      -5.235 -11.618  19.172  0.00  0.00    +0.004 A 
ATOM     35  C   UNL     1      -6.431 -10.989  18.823  0.00  0.00    -0.050 A 
ATOM     36  C   UNL     1      -7.599 -11.045  19.748  0.00  0.00    +0.044 C 
ENDBRANCH  26  28
ENDBRANCH  16  24
ENDBRANCH  11  16
TORSDOF 6
ENDMDL
MODEL 3
REMARK VINA RESULT:      -7.8     26.833     31.163
REMARK  Name = 45783937
REMARK  10 active torsions:
REMARK  status: ('A' for Active; 'I' for Inactive)
REMARK    1  A    between atoms: N_2  and  C_13
REMARK    2  A    between atoms: C_8  and  C_12
REMARK    3  A    between atoms: C_9  and  C_13
REMARK    4  A    between atoms: C_11  and  C_16
REMARK    5  A    between atoms: C_12  and  C_17
REMARK    6  A    between atoms: C_12  and  C_18
REMARK    7  A    between atoms: C_15  and  C_21
REMARK    8  A    between atoms: C_16  and  C_24
REMARK    9  A    between atoms: C_26  and  C_28
REMARK   10  A    between atoms: C_35  and  C_36
REMARK                            x       y       z     vdW  Elec       q    Type
REMARK                         _______ _______ _______ _____ _____    ______ ____
ROOT
ATOM      8  C   UNL     1      -5.448 -10.386  10.535  0.00  0.00    +0.000 C 
ATOM      9  C   UNL     1      -4.699  -9.942   9.257  0.00  0.00    +0.029 C 
ATOM     10  C   UNL     1      -4.502 -11.142  11.478  0.00  0.00    +0.012 C 
ATOM     11  C   UNL     1      -3.251 -10.327  11.872  0.00  0.00    +0.024 C 
ATOM     14  C   UNL     1      -3.338  -9.365   9.554  0.00  0.00    -0.023 C 
ATOM     15  C   UNL     1      -2.681  -9.516  10.718  0.00  0.00    -0.073 C 
ATOM     21  C   UNL     1      -1.364  -8.824  10.940  0.00  0.00    +0.039 C 
ENDROOT
BRANCH   8  12
ATOM     12  C   UNL     1      -6.101  -9.192  11.244  0.00  0.00    -0.013 C 
ATOM     17  C   UNL     1      -7.393  -8.795  10.536  0.00  0.00    +0.007 C 
ATOM     18  C   UNL     1      -6.366  -9.524  12.709  0.00  0.00    +0.007 C 
ENDBRANCH   8  12
BRANCH   9  13
ATOM     13  C   UNL     1      -4.551 -11.095   8.258  0.00  0.00    +0.092 C 
BRANCH  13   2
ATOM      2  N   UNL     1      -5.077 -10.714   6.948  0.00  0.00    -0.299 NA
ATOM      3  N   UNL     1      -7.061 -10.449   4.911  0.00  0.00    -0.312 N 
ATOM      6  N   UNL     1      -7.536 -10.604   2.588  0.00  0.00    -0.237 NA
ATOM      7  N   UNL     1     -10.107  -9.610   3.107  0.00  0.00    -0.258 NA
ATOM     19  C   UNL     1      -6.163  -9.738   7.092  0.00  0.00    +0.103 C 
ATOM     20  C   UNL     1      -5.560 -11.896   6.224  0.00  0.00    +0.103 C 
ATOM     22  C   UNL     1      -6.684  -9.288   5.724  0.00  0.00    +0.122 C 
ATOM     23  C   UNL     1      -6.060 -11.518   4.827  0.00  0.00    +0.122 C 
ATOM     25  C   UNL     1      -7.940 -10.285   3.834  0.00  0.00    +0.140 A 
ATOM     27  C   UNL     1      -9.202  -9.797   4.089  0.00  0.00    +0.154 A 
ATOM     29  C   UNL     1      -8.441 -10.417   1.607  0.00  0.00    +0.132 A 
ATOM     30  C   UNL     1      -9.704  -9.930   1.862  0.00  0.00    +0.130 A 
ENDBRANCH  13   2
ENDBRANCH   9  13
BRANCH  11  16
ATOM     16  C   UNL     1      -2.224 -11.278  12.498  0.00  0.00    +0.105 C 
BRANCH  16  24
ATOM      1  O   UNL     1      -3.417 -11.135  14.622  0.00  0.00    -0.420 OA
ATOM      4  N   UNL     1      -1.189 -11.079  14.817  0.00  0.00    -0.112 NA
ATOM      5  N   UNL     1      -1.731 -10.991  16.085  0.00  0.00    -0.107 NA
ATOM     24  C   UNL     1      -2.209 -11.162  13.995  0.00  0.00    +0.218 A 
ATOM     26  C   UNL     1      -3.033 -11.026  15.923  0.00  0.00    +0.248 A 
BRANCH  26  28
ATOM     28  C   UNL     1      -4.093 -10.970  16.887  0.00  0.00    +0.038 A 
ATOM     31  C   UNL     1      -5.272 -10.284  16.590  0.00  0.00    +0.013 A 
ATOM     32  C   UNL     1      -3.947 -11.600  18.123  0.00  0.00    +0.013 A 
ATOM     33  C   UNL     1      -6.303 -10.230  17.527  0.00  0.00    +0.004 A 
ATOM     34  C   UNL     1      -4.978 -11.547  19.060  0.00  0.00    +0.004 A 
ATOM     35  C   UNL     1      -6.156 -10.861  18.762  0.00  0.00    -0.050 A 
ATOM     36  C   UNL     1      -7.259 -10.803  19.765  0.00  0.00    +0.044 C 
ENDBRANCH  26  28
ENDBRANCH  16  24
ENDBRANCH  11  16
TORSDOF 6
ENDMDL
MODEL 4
REMARK VINA RESULT:      -7.6     27.500     30.760
REMARK  Name = 45783937
REMARK  10 active torsions:
REMARK  status: ('A' for Active; 'I' for Inactive)
REMARK    1  A    between atoms: N_2  and  C_13
REMARK    2  A    between atoms: C_8  and  C_12
REMARK    3  A    between atoms: C_9  and  C_13
REMARK    4  A    between atoms: C_11  and  C_16
REMARK    5  A    between atoms: C_12  and  C_17
REMARK    6  A    between atoms: C_12  and  C_18
REMARK    7  A    between atoms: C_15  and  C_21
REMARK    8  A    between atoms: C_16  and  C_24
REMARK    9  A    between atoms: C_26  and  C_28
REMARK   10  A    between atoms: C_35  and  C_36
REMARK                            x       y       z     vdW  Elec       q    Type
REMARK                         _______ _______ _______ _____ _____    ______ ____
ROOT
ATOM      8  C   UNL     1      -7.014 -12.109  17.018  0.00  0.00    +0.000 C 
ATOM      9  C   UNL     1      -7.152 -11.854  18.538  0.00  0.00    +0.029 C 
ATOM     10  C   UNL     1      -5.774 -11.395  16.463  0.00  0.00    +0.012 C 
ATOM     11  C   UNL     1      -4.465 -11.803  17.173  0.00  0.00    +0.024 C 
ATOM     14  C   UNL     1      -5.839 -11.982  19.268  0.00  0.00    -0.023 C 
ATOM     15  C   UNL     1      -4.631 -11.973  18.676  0.00  0.00    -0.073 C 
ATOM     21  C   UNL     1      -3.386 -12.196  19.491  0.00  0.00    +0.039 C 
ENDROOT
BRANCH   8  12
ATOM     12  C   UNL     1      -6.978 -13.610  16.704  0.00  0.00    -0.013 C 
ATOM     17  C   UNL     1      -8.139 -14.325  17.390  0.00  0.00    +0.007 C 
ATOM     18  C   UNL     1      -7.016 -13.839  15.197  0.00  0.00    +0.007 C 
ENDBRANCH   8  12
BRANCH   9  13
ATOM     13  C   UNL     1      -7.758 -10.476  18.828  0.00  0.00    +0.092 C 
BRANCH  13   2
ATOM      2  N   UNL     1      -8.788 -10.147  17.845  0.00  0.00    -0.299 NA
ATOM      3  N   UNL     1     -10.856  -8.571  16.663  0.00  0.00    -0.312 N 
ATOM      6  N   UNL     1     -12.979  -8.583  15.594  0.00  0.00    -0.237 NA
ATOM      7  N   UNL     1     -12.722  -5.820  15.184  0.00  0.00    -0.258 NA
ATOM     19  C   UNL     1      -8.465  -8.890  17.160  0.00  0.00    +0.103 C 
ATOM     20  C   UNL     1     -10.102 -10.040  18.491  0.00  0.00    +0.103 C 
ATOM     22  C   UNL     1      -9.507  -8.563  16.088  0.00  0.00    +0.122 C 
ATOM     23  C   UNL     1     -11.198  -9.753  17.463  0.00  0.00    +0.122 C 
ATOM     25  C   UNL     1     -11.894  -7.898  16.007  0.00  0.00    +0.140 A 
ATOM     27  C   UNL     1     -11.768  -6.541  15.806  0.00  0.00    +0.154 A 
ATOM     29  C   UNL     1     -13.932  -7.862  14.971  0.00  0.00    +0.132 A 
ATOM     30  C   UNL     1     -13.807  -6.505  14.771  0.00  0.00    +0.130 A 
ENDBRANCH  13   2
ENDBRANCH   9  13
BRANCH  11  16
ATOM     16  C   UNL     1      -3.372 -10.792  16.804  0.00  0.00    +0.105 C 
BRANCH  16  24
ATOM      1  O   UNL     1      -3.641 -10.516  14.395  0.00  0.00    -0.420 OA
ATOM      4  N   UNL     1      -1.786 -11.616  14.990  0.00  0.00    -0.112 NA
ATOM      5  N   UNL     1      -1.810 -11.533  13.610  0.00  0.00    -0.107 NA
ATOM     24  C   UNL     1      -2.873 -11.010  15.405  0.00  0.00    +0.218 A 
ATOM     26  C   UNL     1      -2.910 -10.884  13.307  0.00  0.00    +0.248 A 
BRANCH  26  28
ATOM     28  C   UNL     1      -3.449 -10.509  12.032  0.00  0.00    +0.038 A 
ATOM     31  C   UNL     1      -2.678  -9.764  11.141  0.00  0.00    +0.013 A 
ATOM     32  C   UNL     1      -4.745 -10.889  11.684  0.00  0.00    +0.013 A 
ATOM     33  C   UNL     1      -3.202  -9.399   9.900  0.00  0.00    +0.004 A 
ATOM     34  C   UNL     1      -5.269 -10.526  10.444  0.00  0.00    +0.004 A 
ATOM     35  C   UNL     1      -4.498  -9.780   9.552  0.00  0.00    -0.050 A 
ATOM     36  C   UNL     1      -5.058  -9.390   8.227  0.00  0.00    +0.044 C 
ENDBRANCH  26  28
ENDBRANCH  16  24
ENDBRANCH  11  16
TORSDOF 6
ENDMDL
MODEL 5
REMARK VINA RESULT:      -7.4     27.070     30.658
REMARK  Name = 45783937
REMARK  10 active torsions:
REMARK  status: ('A' for Active; 'I' for Inactive)
REMARK    1  A    between atoms: N_2  and  C_13
REMARK    2  A    between atoms: C_8  and  C_12
REMARK    3  A    between atoms: C_9  and  C_13
REMARK    4  A    between atoms: C_11  and  C_16
REMARK    5  A    between atoms: C_12  and  C_17
REMARK    6  A    between atoms: C_12  and  C_18
REMARK    7  A    between atoms: C_15  and  C_21
REMARK    8  A    between atoms: C_16  and  C_24
REMARK    9  A    between atoms: C_26  and  C_28
REMARK   10  A    between atoms: C_35  and  C_36
REMARK                            x       y       z     vdW  Elec       q    Type
REMARK                         _______ _______ _______ _____ _____    ______ ____
ROOT
ATOM      8  C   UNL     1      -4.127 -11.906  12.721  0.00  0.00    +0.000 C 
ATOM      9  C   UNL     1      -2.926 -11.419  13.566  0.00  0.00    +0.029 C 
ATOM     10  C   UNL     1      -4.690 -10.758  11.874  0.00  0.00    +0.012 C 
ATOM     11  C   UNL     1      -3.638 -10.109  10.947  0.00  0.00    +0.024 C 
ATOM     14  C   UNL     1      -1.979 -10.550  12.779  0.00  0.00    -0.023 C 
ATOM     15  C   UNL     1      -2.273  -9.967  11.604  0.00  0.00    -0.073 C 
ATOM     21  C   UNL     1      -1.222  -9.190  10.858  0.00  0.00    +0.039 C 
ENDROOT
BRANCH   8  12
ATOM     12  C   UNL     1      -3.743 -13.107  11.845  0.00  0.00    -0.013 C 
ATOM     17  C   UNL     1      -2.845 -14.065  12.621  0.00  0.00    +0.007 C 
ATOM     18  C   UNL     1      -4.994 -13.822  11.346  0.00  0.00    +0.007 C 
ENDBRANCH   8  12
BRANCH   9  13
ATOM     13  C   UNL     1      -3.385 -10.661  14.816  0.00  0.00    +0.092 C 
BRANCH  13   2
ATOM      2  N   UNL     1      -4.603 -11.256  15.365  0.00  0.00    -0.299 NA
ATOM      3  N   UNL     1      -6.572 -11.791  17.363  0.00  0.00    -0.312 N 
ATOM      6  N   UNL     1      -7.984 -13.427  18.353  0.00  0.00    -0.237 NA
ATOM      7  N   UNL     1      -9.123 -11.406  19.928  0.00  0.00    -0.258 NA
ATOM     19  C   UNL     1      -5.548 -10.211  15.776  0.00  0.00    +0.103 C 
ATOM     20  C   UNL     1      -4.285 -12.119  16.508  0.00  0.00    +0.103 C 
ATOM     22  C   UNL     1      -6.850 -10.821  16.300  0.00  0.00    +0.122 C 
ATOM     23  C   UNL     1      -5.545 -12.794  17.055  0.00  0.00    +0.122 C 
ATOM     25  C   UNL     1      -7.584 -12.143  18.263  0.00  0.00    +0.140 A 
ATOM     27  C   UNL     1      -8.144 -11.150  19.037  0.00  0.00    +0.154 A 
ATOM     29  C   UNL     1      -8.962 -13.682  19.243  0.00  0.00    +0.132 A 
ATOM     30  C   UNL     1      -9.521 -12.690  20.018  0.00  0.00    +0.130 A 
ENDBRANCH  13   2
ENDBRANCH   9  13
BRANCH  11  16
ATOM     16  C   UNL     1      -4.195  -8.776  10.432  0.00  0.00    +0.105 C 
BRANCH  16  24
ATOM      1  O   UNL     1      -4.736  -9.801   8.285  0.00  0.00    -0.420 OA
ATOM      4  N   UNL     1      -6.350  -8.488   9.106  0.00  0.00    -0.112 NA
ATOM      5  N   UNL     1      -6.788  -8.998   7.898  0.00  0.00    -0.107 NA
ATOM     24  C   UNL     1      -5.149  -8.983   9.292  0.00  0.00    +0.218 A 
ATOM     26  C   UNL     1      -5.813  -9.757   7.454  0.00  0.00    +0.248 A 
BRANCH  26  28
ATOM     28  C   UNL     1      -5.712 -10.535   6.253  0.00  0.00    +0.038 A 
ATOM     31  C   UNL     1      -6.651 -10.371   5.235  0.00  0.00    +0.013 A 
ATOM     32  C   UNL     1      -4.675 -11.455   6.103  0.00  0.00    +0.013 A 
ATOM     33  C   UNL     1      -6.553 -11.126   4.066  0.00  0.00    +0.004 A 
ATOM     34  C   UNL     1      -4.575 -12.210   4.935  0.00  0.00    +0.004 A 
ATOM     35  C   UNL     1      -5.515 -12.046   3.917  0.00  0.00    -0.050 A 
ATOM     36  C   UNL     1      -5.410 -12.854   2.668  0.00  0.00    +0.044 C 
ENDBRANCH  26  28
ENDBRANCH  16  24
ENDBRANCH  11  16
TORSDOF 6
ENDMDL
MODEL 6
REMARK VINA RESULT:      -7.3     26.785     30.723
REMARK  Name = 45783937
REMARK  10 active torsions:
REMARK  status: ('A' for Active; 'I' for Inactive)
REMARK    1  A    between atoms: N_2  and  C_13
REMARK    2  A    between atoms: C_8  and  C_12
REMARK    3  A    between atoms: C_9  and  C_13
REMARK    4  A    between atoms: C_11  and  C_16
REMARK    5  A    between atoms: C_12  and  C_17
REMARK    6  A    between atoms: C_12  and  C_18
REMARK    7  A    between atoms: C_15  and  C_21
REMARK    8  A    between atoms: C_16  and  C_24
REMARK    9  A    between atoms: C_26  and  C_28
REMARK   10  A    between atoms: C_35  and  C_36
REMARK                            x       y       z     vdW  Elec       q    Type
REMARK                         _______ _______ _______ _____ _____    ______ ____
ROOT
ATOM      8  C   UNL     1      -5.192 -11.944  15.397  0.00  0.00    +0.000 C 
ATOM      9  C   UNL     1      -4.879 -10.874  16.469  0.00  0.00    +0.029 C 
ATOM     10  C   UNL     1      -4.516 -11.586  14.066  0.00  0.00    +0.012 C 
ATOM     11  C   UNL     1      -2.987 -11.409  14.185  0.00  0.00    +0.024 C 
ATOM     14  C   UNL     1      -3.431 -10.457  16.467  0.00  0.00    -0.023 C 
ATOM     15  C   UNL     1      -2.568 -10.698  15.463  0.00  0.00    -0.073 C 
ATOM     21  C   UNL     1      -1.119 -10.315  15.601  0.00  0.00    +0.039 C 
ENDROOT
BRANCH   8  12
ATOM     12  C   UNL     1      -4.782 -13.345  15.869  0.00  0.00    -0.013 C 
ATOM     17  C   UNL     1      -5.292 -13.600  17.284  0.00  0.00    +0.007 C 
ATOM     18  C   UNL     1      -5.305 -14.405  14.906  0.00  0.00    +0.007 C 
ENDBRANCH   8  12
BRANCH   9  13
ATOM     13  C   UNL     1      -5.761  -9.632  16.303  0.00  0.00    +0.092 C 
BRANCH  13   2
ATOM      2  N   UNL     1      -6.857  -9.641  17.270  0.00  0.00    -0.299 NA
ATOM      3  N   UNL     1      -9.055 -10.761  18.709  0.00  0.00    -0.312 N 
ATOM      6  N   UNL     1     -11.229 -10.387  19.595  0.00  0.00    -0.237 NA
ATOM      7  N   UNL     1     -11.123 -12.931  20.772  0.00  0.00    -0.258 NA
ATOM     19  C   UNL     1      -6.629 -10.665  18.297  0.00  0.00    +0.103 C 
ATOM     20  C   UNL     1      -8.137  -9.886  16.597  0.00  0.00    +0.103 C 
ATOM     22  C   UNL     1      -7.741 -10.648  19.349  0.00  0.00    +0.122 C 
ATOM     23  C   UNL     1      -9.299  -9.841  17.592  0.00  0.00    +0.122 C 
ATOM     25  C   UNL     1     -10.156 -11.193  19.458  0.00  0.00    +0.140 A 
ATOM     27  C   UNL     1     -10.104 -12.442  20.036  0.00  0.00    +0.154 A 
ATOM     29  C   UNL     1     -12.246 -10.877  20.330  0.00  0.00    +0.132 A 
ATOM     30  C   UNL     1     -12.195 -12.126  20.907  0.00  0.00    +0.130 A 
ENDBRANCH  13   2
ENDBRANCH   9  13
BRANCH  11  16
ATOM     16  C   UNL     1      -2.474 -10.714  12.919  0.00  0.00    +0.105 C 
BRANCH  16  24
ATOM      1  O   UNL     1      -3.675 -10.530  10.803  0.00  0.00    -0.420 OA
ATOM      4  N   UNL     1      -3.000 -12.604  11.295  0.00  0.00    -0.112 NA
ATOM      5  N   UNL     1      -3.659 -12.647  10.081  0.00  0.00    -0.107 NA
ATOM     24  C   UNL     1      -3.033 -11.350  11.679  0.00  0.00    +0.218 A 
ATOM     26  C   UNL     1      -4.037 -11.414   9.834  0.00  0.00    +0.248 A 
BRANCH  26  28
ATOM     28  C   UNL     1      -4.758 -10.867   8.721  0.00  0.00    +0.038 A 
ATOM     31  C   UNL     1      -5.618  -9.785   8.912  0.00  0.00    +0.013 A 
ATOM     32  C   UNL     1      -4.599 -11.415   7.449  0.00  0.00    +0.013 A 
ATOM     33  C   UNL     1      -6.319  -9.252   7.830  0.00  0.00    +0.004 A 
ATOM     34  C   UNL     1      -5.298 -10.882   6.367  0.00  0.00    +0.004 A 
ATOM     35  C   UNL     1      -6.159  -9.801   6.557  0.00  0.00    -0.050 A 
ATOM     36  C   UNL     1      -6.908  -9.231   5.400  0.00  0.00    +0.044 C 
ENDBRANCH  26  28
ENDBRANCH  16  24
ENDBRANCH  11  16
TORSDOF 6
ENDMDL
MODEL 7
REMARK VINA RESULT:      -7.2     27.136     31.687
REMARK  Name = 45783937
REMARK  10 active torsions:
REMARK  status: ('A' for Active; 'I' for Inactive)
REMARK    1  A    between atoms: N_2  and  C_13
REMARK    2  A    between atoms: C_8  and  C_12
REMARK    3  A    between atoms: C_9  and  C_13
REMARK    4  A    between atoms: C_11  and  C_16
REMARK    5  A    between atoms: C_12  and  C_17
REMARK    6  A    between atoms: C_12  and  C_18
REMARK    7  A    between atoms: C_15  and  C_21
REMARK    8  A    between atoms: C_16  and  C_24
REMARK    9  A    between atoms: C_26  and  C_28
REMARK   10  A    between atoms: C_35  and  C_36
REMARK                            x       y       z     vdW  Elec       q    Type
REMARK                         _______ _______ _______ _____ _____    ______ ____
ROOT
ATOM      8  C   UNL     1      -9.736  -9.918  15.906  0.00  0.00    +0.000 C 
ATOM      9  C   UNL     1     -10.964  -9.563  16.778  0.00  0.00    +0.029 C 
ATOM     10  C   UNL     1      -8.441  -9.770  16.715  0.00  0.00    +0.012 C 
ATOM     11  C   UNL     1      -8.422 -10.625  18.001  0.00  0.00    +0.024 C 
ATOM     14  C   UNL     1     -10.885 -10.161  18.159  0.00  0.00    -0.023 C 
ATOM     15  C   UNL     1      -9.764 -10.651  18.718  0.00  0.00    -0.073 C 
ATOM     21  C   UNL     1      -9.815 -11.307  20.071  0.00  0.00    +0.039 C 
ENDROOT
BRANCH   8  12
ATOM     12  C   UNL     1      -9.861 -11.327  15.310  0.00  0.00    -0.013 C 
ATOM     17  C   UNL     1     -11.217 -11.498  14.632  0.00  0.00    +0.007 C 
ATOM     18  C   UNL     1      -8.727 -11.591  14.327  0.00  0.00    +0.007 C 
ENDBRANCH   8  12
BRANCH   9  13
ATOM     13  C   UNL     1     -11.155  -8.047  16.895  0.00  0.00    +0.092 C 
BRANCH  13   2
ATOM      2  N   UNL     1     -11.581  -7.479  15.617  0.00  0.00    -0.299 NA
ATOM      3  N   UNL     1     -13.198  -5.891  13.879  0.00  0.00    -0.312 N 
ATOM      6  N   UNL     1     -14.283  -5.758  11.768  0.00  0.00    -0.237 NA
ATOM      7  N   UNL     1     -14.977  -3.105  12.359  0.00  0.00    -0.258 NA
ATOM     19  C   UNL     1     -11.488  -6.015  15.647  0.00  0.00    +0.103 C 
ATOM     20  C   UNL     1     -12.957  -7.885  15.306  0.00  0.00    +0.103 C 
ATOM     22  C   UNL     1     -11.877  -5.410  14.296  0.00  0.00    +0.122 C 
ATOM     23  C   UNL     1     -13.394  -7.345  13.942  0.00  0.00    +0.122 C 
ATOM     25  C   UNL     1     -13.931  -5.170  12.930  0.00  0.00    +0.140 A 
ATOM     27  C   UNL     1     -14.272  -3.867  13.220  0.00  0.00    +0.154 A 
ATOM     29  C   UNL     1     -14.987  -4.996  10.909  0.00  0.00    +0.132 A 
ATOM     30  C   UNL     1     -15.329  -3.694  11.199  0.00  0.00    +0.130 A 
ENDBRANCH  13   2
ENDBRANCH   9  13
BRANCH  11  16
ATOM     16  C   UNL     1      -7.276 -10.139  18.897  0.00  0.00    +0.105 C 
BRANCH  16  24
ATOM      1  O   UNL     1      -5.582 -10.308  17.149  0.00  0.00    -0.420 OA
ATOM      4  N   UNL     1      -5.062 -11.389  19.036  0.00  0.00    -0.112 NA
ATOM      5  N   UNL     1      -4.024 -11.568  18.142  0.00  0.00    -0.107 NA
ATOM     24  C   UNL     1      -5.949 -10.648  18.415  0.00  0.00    +0.218 A 
ATOM     26  C   UNL     1      -4.371 -10.921  17.054  0.00  0.00    +0.248 A 
BRANCH  26  28
ATOM     28  C   UNL     1      -3.683 -10.762  15.806  0.00  0.00    +0.038 A 
ATOM     31  C   UNL     1      -4.393 -10.813  14.606  0.00  0.00    +0.013 A 
ATOM     32  C   UNL     1      -2.303 -10.556  15.790  0.00  0.00    +0.013 A 
ATOM     33  C   UNL     1      -3.725 -10.658  13.392  0.00  0.00    +0.004 A 
ATOM     34  C   UNL     1      -1.635 -10.400  14.577  0.00  0.00    +0.004 A 
ATOM     35  C   UNL     1      -2.345 -10.452  13.377  0.00  0.00    -0.050 A 
ATOM     36  C   UNL     1      -1.630 -10.286  12.079  0.00  0.00    +0.044 C 
ENDBRANCH  26  28
ENDBRANCH  16  24
ENDBRANCH  11  16
TORSDOF 6
ENDMDL
MODEL 8
REMARK VINA RESULT:      -7.2      2.915      8.047
REMARK  Name = 45783937
REMARK  10 active torsions:
REMARK  status: ('A' for Active; 'I' for Inactive)
REMARK    1  A    between atoms: N_2  and  C_13
REMARK    2  A    between atoms: C_8  and  C_12
REMARK    3  A    between atoms: C_9  and  C_13
REMARK    4  A    between atoms: C_11  and  C_16
REMARK    5  A    between atoms: C_12  and  C_17
REMARK    6  A    between atoms: C_12  and  C_18
REMARK    7  A    between atoms: C_15  and  C_21
REMARK    8  A    between atoms: C_16  and  C_24
REMARK    9  A    between atoms: C_26  and  C_28
REMARK   10  A    between atoms: C_35  and  C_36
REMARK                            x       y       z     vdW  Elec       q    Type
REMARK                         _______ _______ _______ _____ _____    ______ ____
ROOT
ATOM      8  C   UNL     1      13.489   9.890  18.326  0.00  0.00    +0.000 C 
ATOM      9  C   UNL     1      12.439   9.879  19.462  0.00  0.00    +0.029 C 
ATOM     10  C   UNL     1      14.898   9.676  18.894  0.00  0.00    +0.012 C 
ATOM     11  C   UNL     1      15.037   8.372  19.710  0.00  0.00    +0.024 C 
ATOM     14  C   UNL     1      12.673   8.769  20.456  0.00  0.00    -0.023 C 
ATOM     15  C   UNL     1      13.820   8.077  20.573  0.00  0.00    -0.073 C 
ATOM     21  C   UNL     1      13.918   6.929  21.541  0.00  0.00    +0.039 C 
ENDROOT
BRANCH   8  12
ATOM     12  C   UNL     1      13.159   8.847  17.250  0.00  0.00    -0.013 C 
ATOM     17  C   UNL     1      11.672   8.883  16.912  0.00  0.00    +0.007 C 
ATOM     18  C   UNL     1      14.003   9.086  16.002  0.00  0.00    +0.007 C 
ENDBRANCH   8  12
BRANCH   9  13
ATOM     13  C   UNL     1      12.394  11.219  20.204  0.00  0.00    +0.092 C 
BRANCH  13   2
ATOM      2  N   UNL     1      12.794  11.051  21.600  0.00  0.00    -0.299 NA
ATOM      3  N   UNL     1      13.606  11.907  24.201  0.00  0.00    -0.312 N 
ATOM      6  N   UNL     1      15.025  11.489  26.061  0.00  0.00    -0.237 NA
ATOM      7  N   UNL     1      13.748  13.578  27.429  0.00  0.00    -0.258 NA
ATOM     19  C   UNL     1      11.841  11.719  22.493  0.00  0.00    +0.103 C 
ATOM     20  C   UNL     1      14.142  11.586  21.817  0.00  0.00    +0.103 C 
ATOM     22  C   UNL     1      12.217  11.503  23.961  0.00  0.00    +0.122 C 
ATOM     23  C   UNL     1      14.596  11.364  23.262  0.00  0.00    +0.122 C 
ATOM     25  C   UNL     1      14.028  12.204  25.502  0.00  0.00    +0.140 A 
ATOM     27  C   UNL     1      13.401  13.229  26.174  0.00  0.00    +0.154 A 
ATOM     29  C   UNL     1      15.372  11.838  27.316  0.00  0.00    +0.132 A 
ATOM     30  C   UNL     1      14.745  12.864  27.987  0.00  0.00    +0.130 A 
ENDBRANCH  13   2
ENDBRANCH   9  13
BRANCH  11  16
ATOM     16  C   UNL     1      16.340   8.434  20.515  0.00  0.00    +0.105 C 
BRANCH  16  24
ATOM      1  O   UNL     1      18.324   7.099  21.004  0.00  0.00    -0.420 OA
ATOM      4  N   UNL     1      17.126   6.358  19.267  0.00  0.00    -0.112 NA
ATOM      5  N   UNL     1      18.209   5.516  19.428  0.00  0.00    -0.107 NA
ATOM     24  C   UNL     1      17.233   7.267  20.207  0.00  0.00    +0.218 A 
ATOM     26  C   UNL     1      18.882   5.987  20.453  0.00  0.00    +0.248 A 
BRANCH  26  28
ATOM     28  C   UNL     1      20.088   5.518  21.070  0.00  0.00    +0.038 A 
ATOM     31  C   UNL     1      20.587   6.160  22.204  0.00  0.00    +0.013 A 
ATOM     32  C   UNL     1      20.765   4.422  20.536  0.00  0.00    +0.013 A 
ATOM     33  C   UNL     1      21.760   5.705  22.805  0.00  0.00    +0.004 A 
ATOM     34  C   UNL     1      21.938   3.966  21.136  0.00  0.00    +0.004 A 
ATOM     35  C   UNL     1      22.436   4.608  22.270  0.00  0.00    -0.050 A 
ATOM     36  C   UNL     1      23.691   4.121  22.912  0.00  0.00    +0.044 C 
ENDBRANCH  26  28
ENDBRANCH  16  24
ENDBRANCH  11  16
TORSDOF 6
ENDMDL
MODEL 9
REMARK VINA RESULT:      -7.1     12.617     17.004
REMARK  Name = 45783937
REMARK  10 active torsions:
REMARK  status: ('A' for Active; 'I' for Inactive)
REMARK    1  A    between atoms: N_2  and  C_13
REMARK    2  A    between atoms: C_8  and  C_12
REMARK    3  A    between atoms: C_9  and  C_13
REMARK    4  A    between atoms: C_11  and  C_16
REMARK    5  A    between atoms: C_12  and  C_17
REMARK    6  A    between atoms: C_12  and  C_18
REMARK    7  A    between atoms: C_15  and  C_21
REMARK    8  A    between atoms: C_16  and  C_24
REMARK    9  A    between atoms: C_26  and  C_28
REMARK   10  A    between atoms: C_35  and  C_36
REMARK                            x       y       z     vdW  Elec       q    Type
REMARK                         _______ _______ _______ _____ _____    ______ ____
ROOT
ATOM      8  C   UNL     1      13.994   5.786   1.877  0.00  0.00    +0.000 C 
ATOM      9  C   UNL     1      13.984   7.261   1.411  0.00  0.00    +0.029 C 
ATOM     10  C   UNL     1      12.565   5.298   2.151  0.00  0.00    +0.012 C 
ATOM     11  C   UNL     1      11.625   5.447   0.935  0.00  0.00    +0.024 C 
ATOM     14  C   UNL     1      12.903   7.541   0.399  0.00  0.00    -0.023 C 
ATOM     15  C   UNL     1      11.849   6.738   0.163  0.00  0.00    -0.073 C 
ATOM     21  C   UNL     1      10.874   7.070  -0.933  0.00  0.00    +0.039 C 
ENDROOT
BRANCH   8  12
ATOM     12  C   UNL     1      14.704   4.883   0.859  0.00  0.00    -0.013 C 
ATOM     17  C   UNL     1      15.952   5.573   0.316  0.00  0.00    +0.007 C 
ATOM     18  C   UNL     1      15.059   3.543   1.494  0.00  0.00    +0.007 C 
ENDBRANCH   8  12
BRANCH   9  13
ATOM     13  C   UNL     1      13.831   8.226   2.592  0.00  0.00    +0.092 C 
BRANCH  13   2
ATOM      2  N   UNL     1      14.929   8.059   3.542  0.00  0.00    -0.299 NA
ATOM      3  N   UNL     1      17.184   8.879   5.092  0.00  0.00    -0.312 N 
ATOM      6  N   UNL     1      19.341   8.292   5.900  0.00  0.00    -0.237 NA
ATOM      7  N   UNL     1      19.360  10.663   7.398  0.00  0.00    -0.258 NA
ATOM     19  C   UNL     1      14.754   8.950   4.695  0.00  0.00    +0.103 C 
ATOM     20  C   UNL     1      16.218   8.329   2.893  0.00  0.00    +0.103 C 
ATOM     22  C   UNL     1      15.868   8.745   5.725  0.00  0.00    +0.122 C 
ATOM     23  C   UNL     1      17.380   8.101   3.863  0.00  0.00    +0.122 C 
ATOM     25  C   UNL     1      18.307   9.157   5.880  0.00  0.00    +0.140 A 
ATOM     27  C   UNL     1      18.316  10.322   6.615  0.00  0.00    +0.154 A 
ATOM     29  C   UNL     1      20.383   8.633   6.683  0.00  0.00    +0.132 A 
ATOM     30  C   UNL     1      20.393   9.798   7.418  0.00  0.00    +0.130 A 
ENDBRANCH  13   2
ENDBRANCH   9  13
BRANCH  11  16
ATOM     16  C   UNL     1      10.177   5.280   1.411  0.00  0.00    +0.105 C 
BRANCH  16  24
ATOM      1  O   UNL     1       9.903   5.344   3.835  0.00  0.00    -0.420 OA
ATOM      4  N   UNL     1       9.708   7.337   2.838  0.00  0.00    -0.112 NA
ATOM      5  N   UNL     1       9.532   7.520   4.196  0.00  0.00    -0.107 NA
ATOM     24  C   UNL     1       9.922   6.052   2.673  0.00  0.00    +0.218 A 
ATOM     26  C   UNL     1       9.653   6.331   4.739  0.00  0.00    +0.248 A 
BRANCH  26  28
ATOM     28  C   UNL     1       9.566   5.919   6.109  0.00  0.00    +0.038 A 
ATOM     31  C   UNL     1       9.906   4.614   6.469  0.00  0.00    +0.013 A 
ATOM     32  C   UNL     1       9.140   6.822   7.084  0.00  0.00    +0.013 A 
ATOM     33  C   UNL     1       9.822   4.213   7.802  0.00  0.00    +0.004 A 
ATOM     34  C   UNL     1       9.056   6.422   8.417  0.00  0.00    +0.004 A 
ATOM     35  C   UNL     1       9.396   5.117   8.776  0.00  0.00    -0.050 A 
ATOM     36  C   UNL     1       9.306   4.689  10.202  0.00  0.00    +0.044 C 
ENDBRANCH  26  28
ENDBRANCH  16  24
ENDBRANCH  11  16
TORSDOF 6
ENDMDL
MODEL 10
REMARK VINA RESULT:      -7.1     27.982     31.096
REMARK  Name = 45783937
REMARK  10 active torsions:
REMARK  status: ('A' for Active; 'I' for Inactive)
REMARK    1  A    between atoms: N_2  and  C_13
REMARK    2  A    between atoms: C_8  and  C_12
REMARK    3  A    between atoms: C_9  and  C_13
REMARK    4  A    between atoms: C_11  and  C_16
REMARK    5  A    between atoms: C_12  and  C_17
REMARK    6  A    between atoms: C_12  and  C_18
REMARK    7  A    between atoms: C_15  and  C_21
REMARK    8  A    between atoms: C_16  and  C_24
REMARK    9  A    between atoms: C_26  and  C_28
REMARK   10  A    between atoms: C_35  and  C_36
REMARK                            x       y       z     vdW  Elec       q    Type
REMARK                         _______ _______ _______ _____ _____    ______ ____
ROOT
ATOM      8  C   UNL     1      -8.861 -11.614  17.108  0.00  0.00    +0.000 C 
ATOM      9  C   UNL     1      -9.276 -11.250  18.553  0.00  0.00    +0.029 C 
ATOM     10  C   UNL     1      -7.528 -10.946  16.746  0.00  0.00    +0.012 C 
ATOM     11  C   UNL     1      -6.381 -11.305  17.716  0.00  0.00    +0.024 C 
ATOM     14  C   UNL     1      -8.125 -11.328  19.523  0.00  0.00    -0.023 C 
ATOM     15  C   UNL     1      -6.827 -11.365  19.169  0.00  0.00    -0.073 C 
ATOM     21  C   UNL     1      -5.760 -11.532  20.216  0.00  0.00    +0.039 C 
ENDROOT
BRANCH   8  12
ATOM     12  C   UNL     1      -8.791 -13.135  16.913  0.00  0.00    -0.013 C 
ATOM     17  C   UNL     1     -10.074 -13.794  17.411  0.00  0.00    +0.007 C 
ATOM     18  C   UNL     1      -8.543 -13.473  15.447  0.00  0.00    +0.007 C 
ENDBRANCH   8  12
BRANCH   9  13
ATOM     13  C   UNL     1      -9.903  -9.854  18.626  0.00  0.00    +0.092 C 
BRANCH  13   2
ATOM      2  N   UNL     1     -10.251  -9.372  17.290  0.00  0.00    -0.299 NA
ATOM      3  N   UNL     1     -11.474  -7.635  15.381  0.00  0.00    -0.312 N 
ATOM      6  N   UNL     1     -12.647  -7.483  13.320  0.00  0.00    -0.237 NA
ATOM      7  N   UNL     1     -12.481  -4.689  13.499  0.00  0.00    -0.258 NA
ATOM     19  C   UNL     1      -9.730  -8.016  17.079  0.00  0.00    +0.103 C 
ATOM     20  C   UNL     1     -11.706  -9.383  17.101  0.00  0.00    +0.103 C 
ATOM     22  C   UNL     1     -10.039  -7.522  15.663  0.00  0.00    +0.122 C 
ATOM     23  C   UNL     1     -12.080  -8.936  15.686  0.00  0.00    +0.122 C 
ATOM     25  C   UNL     1     -12.041  -6.869  14.356  0.00  0.00    +0.140 A 
ATOM     27  C   UNL     1     -11.959  -5.497  14.444  0.00  0.00    +0.154 A 
ATOM     29  C   UNL     1     -13.167  -6.675  12.375  0.00  0.00    +0.132 A 
ATOM     30  C   UNL     1     -13.087  -5.303  12.464  0.00  0.00    +0.130 A 
ENDBRANCH  13   2
ENDBRANCH   9  13
BRANCH  11  16
ATOM     16  C   UNL     1      -5.222 -10.326  17.488  0.00  0.00    +0.105 C 
BRANCH  16  24
ATOM      1  O   UNL     1      -4.794 -10.155  15.091  0.00  0.00    -0.420 OA
ATOM      4  N   UNL     1      -3.376 -11.499  16.182  0.00  0.00    -0.112 NA
ATOM      5  N   UNL     1      -3.020 -11.495  14.846  0.00  0.00    -0.107 NA
ATOM     24  C   UNL     1      -4.416 -10.703  16.278  0.00  0.00    +0.218 A 
ATOM     26  C   UNL     1      -3.875 -10.699  14.247  0.00  0.00    +0.248 A 
BRANCH  26  28
ATOM     28  C   UNL     1      -3.987 -10.320  12.869  0.00  0.00    +0.038 A 
ATOM     31  C   UNL     1      -5.233  -9.993  12.334  0.00  0.00    +0.013 A 
ATOM     32  C   UNL     1      -2.850 -10.279  12.062  0.00  0.00    +0.013 A 
ATOM     33  C   UNL     1      -5.343  -9.624  10.994  0.00  0.00    +0.004 A 
ATOM     34  C   UNL     1      -2.958  -9.910  10.722  0.00  0.00    +0.004 A 
ATOM     35  C   UNL     1      -4.205  -9.583  10.187  0.00  0.00    -0.050 A 
ATOM     36  C   UNL     1      -4.321  -9.189   8.754  0.00  0.00    +0.044 C 
ENDBRANCH  26  28
ENDBRANCH  16  24
ENDBRANCH  11  16
TORSDOF 6
ENDMDL
