MODEL 1
REMARK VINA RESULT:      -7.5      0.000      0.000
REMARK  Name = 26743656
REMARK  5 active torsions:
REMARK  status: ('A' for Active; 'I' for Inactive)
REMARK    1  A    between atoms: O_1  and  C_13
REMARK    2  A    between atoms: N_4  and  C_9
REMARK    3  A    between atoms: C_10  and  C_18
REMARK    4  A    between atoms: C_19  and  C_20
REMARK    5  A    between atoms: C_21  and  C_22
REMARK                            x       y       z     vdW  Elec       q    Type
REMARK                         _______ _______ _______ _____ _____    ______ ____
ROOT
ATOM      4  N   UNL     1      12.978   7.999  21.347  0.00  0.00    -0.286 NA
ATOM     10  C   UNL     1      11.892   8.752  20.686  0.00  0.00    +0.149 C 
ATOM     11  C   UNL     1      12.550   6.601  21.381  0.00  0.00    +0.116 C 
ATOM     12  C   UNL     1      10.616   7.942  20.980  0.00  0.00    +0.061 C 
ATOM     13  C   UNL     1      11.090   6.730  21.772  0.00  0.00    +0.130 C 
ENDROOT
BRANCH   4   9
ATOM      3  O   UNL     1      18.277   5.454  19.548  0.00  0.00    -0.276 OA
ATOM      5  N   UNL     1      16.986   7.261  20.229  0.00  0.00    -0.302 N 
ATOM      9  C   UNL     1      14.274   8.162  20.693  0.00  0.00    +0.060 C 
ATOM     14  C   UNL     1      14.577   6.942  19.814  0.00  0.00    +0.038 C 
ATOM     15  C   UNL     1      15.374   8.351  21.745  0.00  0.00    +0.038 C 
ATOM     16  C   UNL     1      15.969   7.048  19.196  0.00  0.00    +0.109 C 
ATOM     17  C   UNL     1      16.753   8.428  21.089  0.00  0.00    +0.109 C 
ATOM     19  C   UNL     1      18.086   6.409  20.306  0.00  0.00    +0.212 C 
ATOM     20  C   UNL     1      19.086   6.693  21.398  0.00  0.00    +0.109 C 
ENDBRANCH   4   9
BRANCH  10  18
ATOM      2  O   UNL     1      12.267  11.138  20.320  0.00  0.00    -0.336 OA
ATOM      6  N   UNL     1      11.334  10.653  22.297  0.00  0.00    -0.189 NA
ATOM      7  N   UNL     1      12.081  12.363  20.973  0.00  0.00    -0.054 NA
ATOM     18  C   UNL     1      11.801  10.185  21.168  0.00  0.00    +0.245 A 
ATOM     21  C   UNL     1      11.526  11.994  22.132  0.00  0.00    +0.220 A 
BRANCH  21  22
ATOM      8  N   UNL     1      11.125  14.234  22.755  0.00  0.00    -0.252 NA
ATOM     22  C   UNL     1      11.152  12.939  23.144  0.00  0.00    +0.111 A 
ATOM     23  C   UNL     1      10.849  12.507  24.426  0.00  0.00    +0.031 A 
ATOM     24  C   UNL     1      10.493  13.466  25.368  0.00  0.00    +0.004 A 
ATOM     25  C   UNL     1      10.775  15.136  23.699  0.00  0.00    +0.111 A 
ATOM     26  C   UNL     1      10.452  14.807  25.005  0.00  0.00    +0.020 A 
ENDBRANCH  21  22
ENDBRANCH  10  18
BRANCH  13   1
ATOM      1  O   UNL     1      10.349   5.579  21.419  0.00  0.00    -0.390 OA
ATOM     27  H   UNL     1      10.967   4.828  21.403  0.00  0.00    +0.210 HD
ENDBRANCH  13   1
TORSDOF 4
ENDMDL
MODEL 2
REMARK VINA RESULT:      -7.4      3.850      7.014
REMARK  Name = 26743656
REMARK  5 active torsions:
REMARK  status: ('A' for Active; 'I' for Inactive)
REMARK    1  A    between atoms: O_1  and  C_13
REMARK    2  A    between atoms: N_4  and  C_9
REMARK    3  A    between atoms: C_10  and  C_18
REMARK    4  A    between atoms: C_19  and  C_20
REMARK    5  A    between atoms: C_21  and  C_22
REMARK                            x       y       z     vdW  Elec       q    Type
REMARK                         _______ _______ _______ _____ _____    ______ ____
ROOT
ATOM      4  N   UNL     1      12.168   8.322  19.462  0.00  0.00    -0.286 NA
ATOM     10  C   UNL     1      13.123   8.526  20.570  0.00  0.00    +0.149 C 
ATOM     11  C   UNL     1      10.831   8.373  20.055  0.00  0.00    +0.116 C 
ATOM     12  C   UNL     1      12.394   8.000  21.821  0.00  0.00    +0.061 C 
ATOM     13  C   UNL     1      11.022   7.565  21.325  0.00  0.00    +0.130 C 
ENDROOT
BRANCH   4   9
ATOM      3  O   UNL     1      15.273  10.109  14.466  0.00  0.00    -0.276 OA
ATOM      5  N   UNL     1      13.958  10.529  16.335  0.00  0.00    -0.302 N 
ATOM      9  C   UNL     1      12.326   9.289  18.379  0.00  0.00    +0.060 C 
ATOM     14  C   UNL     1      12.664   8.564  17.071  0.00  0.00    +0.038 C 
ATOM     15  C   UNL     1      13.425  10.298  18.733  0.00  0.00    +0.038 C 
ATOM     16  C   UNL     1      12.927   9.564  15.946  0.00  0.00    +0.109 C 
ATOM     17  C   UNL     1      13.676  11.264  17.574  0.00  0.00    +0.109 C 
ATOM     19  C   UNL     1      15.076  10.715  15.523  0.00  0.00    +0.212 C 
ATOM     20  C   UNL     1      16.092  11.724  15.994  0.00  0.00    +0.109 C 
ENDBRANCH   4   9
BRANCH  10  18
ATOM      2  O   UNL     1      14.435   6.785  19.468  0.00  0.00    -0.336 OA
ATOM      6  N   UNL     1      15.626   8.097  20.838  0.00  0.00    -0.189 NA
ATOM      7  N   UNL     1      15.754   6.314  19.410  0.00  0.00    -0.054 NA
ATOM     18  C   UNL     1      14.449   7.834  20.331  0.00  0.00    +0.245 A 
ATOM     21  C   UNL     1      16.395   7.139  20.244  0.00  0.00    +0.220 A 
BRANCH  21  22
ATOM      8  N   UNL     1      18.367   8.101  21.110  0.00  0.00    -0.252 NA
ATOM     22  C   UNL     1      17.801   7.033  20.504  0.00  0.00    +0.111 A 
ATOM     23  C   UNL     1      18.496   5.891  20.138  0.00  0.00    +0.031 A 
ATOM     24  C   UNL     1      19.857   5.841  20.413  0.00  0.00    +0.004 A 
ATOM     25  C   UNL     1      19.693   8.016  21.361  0.00  0.00    +0.111 A 
ATOM     26  C   UNL     1      20.475   6.919  21.037  0.00  0.00    +0.020 A 
ENDBRANCH  21  22
ENDBRANCH  10  18
BRANCH  13   1
ATOM      1  O   UNL     1      10.025   7.854  22.284  0.00  0.00    -0.390 OA
ATOM     27  H   UNL     1       9.163   7.666  21.876  0.00  0.00    +0.210 HD
ENDBRANCH  13   1
TORSDOF 4
ENDMDL
MODEL 3
REMARK VINA RESULT:      -7.0      3.880      7.054
REMARK  Name = 26743656
REMARK  5 active torsions:
REMARK  status: ('A' for Active; 'I' for Inactive)
REMARK    1  A    between atoms: O_1  and  C_13
REMARK    2  A    between atoms: N_4  and  C_9
REMARK    3  A    between atoms: C_10  and  C_18
REMARK    4  A    between atoms: C_19  and  C_20
REMARK    5  A    between atoms: C_21  and  C_22
REMARK                            x       y       z     vdW  Elec       q    Type
REMARK                         _______ _______ _______ _____ _____    ______ ____
ROOT
ATOM      4  N   UNL     1      12.059   8.705  20.590  0.00  0.00    -0.286 NA
ATOM     10  C   UNL     1      13.243   8.093  19.952  0.00  0.00    +0.149 C 
ATOM     11  C   UNL     1      11.546   7.720  21.541  0.00  0.00    +0.116 C 
ATOM     12  C   UNL     1      12.983   6.577  20.016  0.00  0.00    +0.061 C 
ATOM     13  C   UNL     1      11.654   6.432  20.745  0.00  0.00    +0.130 C 
ENDROOT
BRANCH   4   9
ATOM      3  O   UNL     1      13.143  11.833  25.771  0.00  0.00    -0.276 OA
ATOM      5  N   UNL     1      12.377  11.671  23.584  0.00  0.00    -0.302 N 
ATOM      9  C   UNL     1      12.347   9.987  21.229  0.00  0.00    +0.060 C 
ATOM     14  C   UNL     1      13.390   9.800  22.338  0.00  0.00    +0.038 C 
ATOM     15  C   UNL     1      11.058  10.590  21.801  0.00  0.00    +0.038 C 
ATOM     16  C   UNL     1      13.635  11.112  23.082  0.00  0.00    +0.109 C 
ATOM     17  C   UNL     1      11.348  11.886  22.559  0.00  0.00    +0.109 C 
ATOM     19  C   UNL     1      12.250  11.990  24.934  0.00  0.00    +0.212 C 
ATOM     20  C   UNL     1      10.924  12.559  25.372  0.00  0.00    +0.109 C 
ENDBRANCH   4   9
BRANCH  10  18
ATOM      2  O   UNL     1      13.015   7.791  17.539  0.00  0.00    -0.336 OA
ATOM      6  N   UNL     1      14.039   9.694  18.129  0.00  0.00    -0.189 NA
ATOM      7  N   UNL     1      13.331   8.450  16.344  0.00  0.00    -0.054 NA
ATOM     18  C   UNL     1      13.466   8.591  18.539  0.00  0.00    +0.245 A 
ATOM     21  C   UNL     1      13.932   9.563  16.775  0.00  0.00    +0.220 A 
BRANCH  21  22
ATOM      8  N   UNL     1      15.039  10.101  14.762  0.00  0.00    -0.252 NA
ATOM     22  C   UNL     1      14.435  10.564  15.880  0.00  0.00    +0.111 A 
ATOM     23  C   UNL     1      14.291  11.909  16.182  0.00  0.00    +0.031 A 
ATOM     24  C   UNL     1      14.797  12.837  15.279  0.00  0.00    +0.004 A 
ATOM     25  C   UNL     1      15.520  11.033  13.909  0.00  0.00    +0.111 A 
ATOM     26  C   UNL     1      15.425  12.399  14.118  0.00  0.00    +0.020 A 
ENDBRANCH  21  22
ENDBRANCH  10  18
BRANCH  13   1
ATOM      1  O   UNL     1      11.663   5.296  21.586  0.00  0.00    -0.390 OA
ATOM     27  H   UNL     1      11.739   4.512  21.017  0.00  0.00    +0.210 HD
ENDBRANCH  13   1
TORSDOF 4
ENDMDL
MODEL 4
REMARK VINA RESULT:      -7.0      2.253      7.576
REMARK  Name = 26743656
REMARK  5 active torsions:
REMARK  status: ('A' for Active; 'I' for Inactive)
REMARK    1  A    between atoms: O_1  and  C_13
REMARK    2  A    between atoms: N_4  and  C_9
REMARK    3  A    between atoms: C_10  and  C_18
REMARK    4  A    between atoms: C_19  and  C_20
REMARK    5  A    between atoms: C_21  and  C_22
REMARK                            x       y       z     vdW  Elec       q    Type
REMARK                         _______ _______ _______ _____ _____    ______ ____
ROOT
ATOM      4  N   UNL     1      13.043   8.806  19.884  0.00  0.00    -0.286 NA
ATOM     10  C   UNL     1      13.374   7.383  19.671  0.00  0.00    +0.149 C 
ATOM     11  C   UNL     1      11.835   9.071  19.103  0.00  0.00    +0.116 C 
ATOM     12  C   UNL     1      12.803   7.050  18.280  0.00  0.00    +0.061 C 
ATOM     13  C   UNL     1      12.131   8.333  17.810  0.00  0.00    +0.130 C 
ENDROOT
BRANCH   4   9
ATOM      3  O   UNL     1      10.137  12.189  24.116  0.00  0.00    -0.276 OA
ATOM      5  N   UNL     1      11.971  10.996  23.336  0.00  0.00    -0.302 N 
ATOM      9  C   UNL     1      12.873   9.154  21.293  0.00  0.00    +0.060 C 
ATOM     14  C   UNL     1      11.384   9.331  21.616  0.00  0.00    +0.038 C 
ATOM     15  C   UNL     1      13.647  10.438  21.614  0.00  0.00    +0.038 C 
ATOM     16  C   UNL     1      11.190   9.787  23.060  0.00  0.00    +0.109 C 
ATOM     17  C   UNL     1      13.408  10.875  23.060  0.00  0.00    +0.109 C 
ATOM     19  C   UNL     1      11.342  12.124  23.859  0.00  0.00    +0.212 C 
ATOM     20  C   UNL     1      12.214  13.327  24.113  0.00  0.00    +0.109 C 
ENDBRANCH   4   9
BRANCH  10  18
ATOM      2  O   UNL     1      15.394   6.300  18.823  0.00  0.00    -0.336 OA
ATOM      6  N   UNL     1      15.723   7.539  20.660  0.00  0.00    -0.189 NA
ATOM      7  N   UNL     1      16.758   6.194  19.124  0.00  0.00    -0.054 NA
ATOM     18  C   UNL     1      14.860   7.109  19.775  0.00  0.00    +0.245 A 
ATOM     21  C   UNL     1      16.874   6.952  20.219  0.00  0.00    +0.220 A 
BRANCH  21  22
ATOM      8  N   UNL     1      18.184   8.210  21.726  0.00  0.00    -0.252 NA
ATOM     22  C   UNL     1      18.124   7.144  20.896  0.00  0.00    +0.111 A 
ATOM     23  C   UNL     1      19.176   6.268  20.680  0.00  0.00    +0.031 A 
ATOM     24  C   UNL     1      20.366   6.501  21.361  0.00  0.00    +0.004 A 
ATOM     25  C   UNL     1      19.357   8.403  22.370  0.00  0.00    +0.111 A 
ATOM     26  C   UNL     1      20.466   7.586  22.224  0.00  0.00    +0.020 A 
ENDBRANCH  21  22
ENDBRANCH  10  18
BRANCH  13   1
ATOM      1  O   UNL     1      10.950   8.047  17.088  0.00  0.00    -0.390 OA
ATOM     27  H   UNL     1      10.291   8.721  17.327  0.00  0.00    +0.210 HD
ENDBRANCH  13   1
TORSDOF 4
ENDMDL
MODEL 5
REMARK VINA RESULT:      -6.5     29.722     31.061
REMARK  Name = 26743656
REMARK  5 active torsions:
REMARK  status: ('A' for Active; 'I' for Inactive)
REMARK    1  A    between atoms: O_1  and  C_13
REMARK    2  A    between atoms: N_4  and  C_9
REMARK    3  A    between atoms: C_10  and  C_18
REMARK    4  A    between atoms: C_19  and  C_20
REMARK    5  A    between atoms: C_21  and  C_22
REMARK                            x       y       z     vdW  Elec       q    Type
REMARK                         _______ _______ _______ _____ _____    ______ ____
ROOT
ATOM      4  N   UNL     1     -15.151   1.599  29.757  0.00  0.00    -0.286 NA
ATOM     10  C   UNL     1     -15.386   1.106  31.129  0.00  0.00    +0.149 C 
ATOM     11  C   UNL     1     -14.848   0.422  28.942  0.00  0.00    +0.116 C 
ATOM     12  C   UNL     1     -14.554  -0.186  31.232  0.00  0.00    +0.061 C 
ATOM     13  C   UNL     1     -13.925  -0.362  29.856  0.00  0.00    +0.130 C 
ENDROOT
BRANCH   4   9
ATOM      3  O   UNL     1     -18.797   2.865  24.972  0.00  0.00    -0.276 OA
ATOM      5  N   UNL     1     -17.737   3.429  26.960  0.00  0.00    -0.302 N 
ATOM      9  C   UNL     1     -16.272   2.365  29.220  0.00  0.00    +0.060 C 
ATOM     14  C   UNL     1     -17.147   1.469  28.333  0.00  0.00    +0.038 C 
ATOM     15  C   UNL     1     -15.753   3.566  28.420  0.00  0.00    +0.038 C 
ATOM     16  C   UNL     1     -18.271   2.274  27.686  0.00  0.00    +0.109 C 
ATOM     17  C   UNL     1     -16.905   4.331  27.767  0.00  0.00    +0.109 C 
ATOM     19  C   UNL     1     -18.066   3.620  25.619  0.00  0.00    +0.212 C 
ATOM     20  C   UNL     1     -17.474   4.831  24.943  0.00  0.00    +0.109 C 
ENDBRANCH   4   9
BRANCH  10  18
ATOM      2  O   UNL     1     -15.031   1.696  33.474  0.00  0.00    -0.336 OA
ATOM      6  N   UNL     1     -14.678   3.383  32.043  0.00  0.00    -0.189 NA
ATOM      7  N   UNL     1     -14.661   2.798  34.255  0.00  0.00    -0.054 NA
ATOM     18  C   UNL     1     -15.015   2.127  32.185  0.00  0.00    +0.245 A 
ATOM     21  C   UNL     1     -14.469   3.753  33.340  0.00  0.00    +0.220 A 
BRANCH  21  22
ATOM      8  N   UNL     1     -13.922   5.327  35.010  0.00  0.00    -0.252 NA
ATOM     22  C   UNL     1     -14.069   5.086  33.688  0.00  0.00    +0.111 A 
ATOM     23  C   UNL     1     -13.860   6.034  32.698  0.00  0.00    +0.031 A 
ATOM     24  C   UNL     1     -13.473   7.310  33.092  0.00  0.00    +0.004 A 
ATOM     25  C   UNL     1     -13.546   6.580  35.354  0.00  0.00    +0.111 A 
ATOM     26  C   UNL     1     -13.310   7.596  34.442  0.00  0.00    +0.020 A 
ENDBRANCH  21  22
ENDBRANCH  10  18
BRANCH  13   1
ATOM      1  O   UNL     1     -13.871  -1.728  29.499  0.00  0.00    -0.390 OA
ATOM     27  H   UNL     1     -13.262  -1.810  28.745  0.00  0.00    +0.210 HD
ENDBRANCH  13   1
TORSDOF 4
ENDMDL
MODEL 6
REMARK VINA RESULT:      -6.4     27.011     29.787
REMARK  Name = 26743656
REMARK  5 active torsions:
REMARK  status: ('A' for Active; 'I' for Inactive)
REMARK    1  A    between atoms: O_1  and  C_13
REMARK    2  A    between atoms: N_4  and  C_9
REMARK    3  A    between atoms: C_10  and  C_18
REMARK    4  A    between atoms: C_19  and  C_20
REMARK    5  A    between atoms: C_21  and  C_22
REMARK                            x       y       z     vdW  Elec       q    Type
REMARK                         _______ _______ _______ _____ _____    ______ ____
ROOT
ATOM      4  N   UNL     1     -15.156   4.890  32.739  0.00  0.00    -0.286 NA
ATOM     10  C   UNL     1     -15.682   6.254  32.536  0.00  0.00    +0.149 C 
ATOM     11  C   UNL     1     -16.207   4.138  33.424  0.00  0.00    +0.116 C 
ATOM     12  C   UNL     1     -16.689   6.462  33.682  0.00  0.00    +0.061 C 
ATOM     13  C   UNL     1     -16.694   5.146  34.448  0.00  0.00    +0.130 C 
ENDROOT
BRANCH   4   9
ATOM      3  O   UNL     1     -15.957   0.323  28.701  0.00  0.00    -0.276 OA
ATOM      5  N   UNL     1     -14.652   1.911  29.784  0.00  0.00    -0.302 N 
ATOM      9  C   UNL     1     -14.737   4.243  31.498  0.00  0.00    +0.060 C 
ATOM     14  C   UNL     1     -15.967   3.782  30.704  0.00  0.00    +0.038 C 
ATOM     15  C   UNL     1     -13.823   3.051  31.809  0.00  0.00    +0.038 C 
ATOM     16  C   UNL     1     -15.550   3.019  29.448  0.00  0.00    +0.109 C 
ATOM     17  C   UNL     1     -13.449   2.299  30.531  0.00  0.00    +0.109 C 
ATOM     19  C   UNL     1     -14.956   0.618  29.359  0.00  0.00    +0.212 C 
ATOM     20  C   UNL     1     -13.984  -0.467  29.747  0.00  0.00    +0.109 C 
ENDBRANCH   4   9
BRANCH  10  18
ATOM      2  O   UNL     1     -14.690   8.264  31.563  0.00  0.00    -0.336 OA
ATOM      6  N   UNL     1     -13.545   7.426  33.296  0.00  0.00    -0.189 NA
ATOM      7  N   UNL     1     -13.585   9.106  31.743  0.00  0.00    -0.054 NA
ATOM     18  C   UNL     1     -14.590   7.304  32.519  0.00  0.00    +0.245 A 
ATOM     21  C   UNL     1     -12.959   8.546  32.783  0.00  0.00    +0.220 A 
BRANCH  21  22
ATOM      8  N   UNL     1     -11.699   9.160  34.682  0.00  0.00    -0.252 NA
ATOM     22  C   UNL     1     -11.747   9.082  33.332  0.00  0.00    +0.111 A 
ATOM     23  C   UNL     1     -10.717   9.482  32.495  0.00  0.00    +0.031 A 
ATOM     24  C   UNL     1      -9.565   9.994  33.081  0.00  0.00    +0.004 A 
ATOM     25  C   UNL     1     -10.563   9.664  35.214  0.00  0.00    +0.111 A 
ATOM     26  C   UNL     1      -9.478  10.090  34.465  0.00  0.00    +0.020 A 
ENDBRANCH  21  22
ENDBRANCH  10  18
BRANCH  13   1
ATOM      1  O   UNL     1     -17.994   4.837  34.910  0.00  0.00    -0.390 OA
ATOM     27  H   UNL     1     -18.297   4.050  34.426  0.00  0.00    +0.210 HD
ENDBRANCH  13   1
TORSDOF 4
ENDMDL
MODEL 7
REMARK VINA RESULT:      -6.4     26.393     29.453
REMARK  Name = 26743656
REMARK  5 active torsions:
REMARK  status: ('A' for Active; 'I' for Inactive)
REMARK    1  A    between atoms: O_1  and  C_13
REMARK    2  A    between atoms: N_4  and  C_9
REMARK    3  A    between atoms: C_10  and  C_18
REMARK    4  A    between atoms: C_19  and  C_20
REMARK    5  A    between atoms: C_21  and  C_22
REMARK                            x       y       z     vdW  Elec       q    Type
REMARK                         _______ _______ _______ _____ _____    ______ ____
ROOT
ATOM      4  N   UNL     1      -3.564 -11.375  15.139  0.00  0.00    -0.286 NA
ATOM     10  C   UNL     1      -3.188 -10.477  14.028  0.00  0.00    +0.149 C 
ATOM     11  C   UNL     1      -2.620 -11.109  16.223  0.00  0.00    +0.116 C 
ATOM     12  C   UNL     1      -1.678 -10.236  14.211  0.00  0.00    +0.061 C 
ATOM     13  C   UNL     1      -1.305 -11.001  15.474  0.00  0.00    +0.130 C 
ENDROOT
BRANCH   4   9
ATOM      3  O   UNL     1      -7.558 -10.672  19.759  0.00  0.00    -0.276 OA
ATOM      5  N   UNL     1      -6.983 -11.377  17.622  0.00  0.00    -0.302 N 
ATOM      9  C   UNL     1      -4.951 -11.213  15.566  0.00  0.00    +0.060 C 
ATOM     14  C   UNL     1      -5.037 -10.180  16.697  0.00  0.00    +0.038 C 
ATOM     15  C   UNL     1      -5.519 -12.561  16.028  0.00  0.00    +0.038 C 
ATOM     16  C   UNL     1      -6.467 -10.066  17.223  0.00  0.00    +0.109 C 
ATOM     17  C   UNL     1      -6.940 -12.401  16.570  0.00  0.00    +0.109 C 
ATOM     19  C   UNL     1      -7.500 -11.559  18.903  0.00  0.00    +0.212 C 
ATOM     20  C   UNL     1      -8.010 -12.938  19.237  0.00  0.00    +0.109 C 
ENDBRANCH   4   9
BRANCH  10  18
ATOM      2  O   UNL     1      -3.505 -12.409  12.567  0.00  0.00    -0.336 OA
ATOM      6  N   UNL     1      -3.847 -10.437  11.562  0.00  0.00    -0.189 NA
ATOM      7  N   UNL     1      -3.847 -12.703  11.241  0.00  0.00    -0.054 NA
ATOM     18  C   UNL     1      -3.529 -11.055  12.670  0.00  0.00    +0.245 A 
ATOM     21  C   UNL     1      -4.034 -11.489  10.713  0.00  0.00    +0.220 A 
BRANCH  21  22
ATOM      8  N   UNL     1      -4.288 -12.377   8.541  0.00  0.00    -0.252 NA
ATOM     22  C   UNL     1      -4.409 -11.294   9.342  0.00  0.00    +0.111 A 
ATOM     23  C   UNL     1      -4.859 -10.056   8.910  0.00  0.00    +0.031 A 
ATOM     24  C   UNL     1      -5.208  -9.922   7.571  0.00  0.00    +0.004 A 
ATOM     25  C   UNL     1      -4.636 -12.208   7.246  0.00  0.00    +0.111 A 
ATOM     26  C   UNL     1      -5.098 -11.013   6.717  0.00  0.00    +0.020 A 
ENDBRANCH  21  22
ENDBRANCH  10  18
BRANCH  13   1
ATOM      1  O   UNL     1      -0.332 -10.297  16.220  0.00  0.00    -0.390 OA
ATOM     27  H   UNL     1      -0.475  -9.348  16.063  0.00  0.00    +0.210 HD
ENDBRANCH  13   1
TORSDOF 4
ENDMDL
MODEL 8
REMARK VINA RESULT:      -6.4     27.381     29.673
REMARK  Name = 26743656
REMARK  5 active torsions:
REMARK  status: ('A' for Active; 'I' for Inactive)
REMARK    1  A    between atoms: O_1  and  C_13
REMARK    2  A    between atoms: N_4  and  C_9
REMARK    3  A    between atoms: C_10  and  C_18
REMARK    4  A    between atoms: C_19  and  C_20
REMARK    5  A    between atoms: C_21  and  C_22
REMARK                            x       y       z     vdW  Elec       q    Type
REMARK                         _______ _______ _______ _____ _____    ______ ____
ROOT
ATOM      4  N   UNL     1      -7.108 -11.383  17.435  0.00  0.00    -0.286 NA
ATOM     10  C   UNL     1      -5.950 -10.466  17.413  0.00  0.00    +0.149 C 
ATOM     11  C   UNL     1      -7.463 -11.569  18.841  0.00  0.00    +0.116 C 
ATOM     12  C   UNL     1      -5.242 -10.695  18.761  0.00  0.00    +0.061 C 
ATOM     13  C   UNL     1      -6.099 -11.722  19.489  0.00  0.00    +0.130 C 
ENDROOT
BRANCH   4   9
ATOM      3  O   UNL     1     -11.673  -7.319  16.772  0.00  0.00    -0.276 OA
ATOM      5  N   UNL     1     -10.705  -9.403  16.434  0.00  0.00    -0.302 N 
ATOM      9  C   UNL     1      -8.238 -10.904  16.642  0.00  0.00    +0.060 C 
ATOM     14  C   UNL     1      -8.247  -9.370  16.611  0.00  0.00    +0.038 C 
ATOM     15  C   UNL     1      -9.553 -11.435  17.227  0.00  0.00    +0.038 C 
ATOM     16  C   UNL     1      -9.474  -8.847  15.867  0.00  0.00    +0.109 C 
ATOM     17  C   UNL     1     -10.757 -10.870  16.472  0.00  0.00    +0.109 C 
ATOM     19  C   UNL     1     -11.726  -8.549  16.847  0.00  0.00    +0.212 C 
ATOM     20  C   UNL     1     -12.960  -9.199  17.421  0.00  0.00    +0.109 C 
ENDBRANCH   4   9
BRANCH  10  18
ATOM      2  O   UNL     1      -4.095 -11.667  16.373  0.00  0.00    -0.336 OA
ATOM      6  N   UNL     1      -5.027 -10.111  15.059  0.00  0.00    -0.189 NA
ATOM      7  N   UNL     1      -3.387 -11.704  15.164  0.00  0.00    -0.054 NA
ATOM     18  C   UNL     1      -5.041 -10.704  16.226  0.00  0.00    +0.245 A 
ATOM     21  C   UNL     1      -3.996 -10.758  14.442  0.00  0.00    +0.220 A 
BRANCH  21  22
ATOM      8  N   UNL     1      -4.601 -10.096  12.259  0.00  0.00    -0.252 NA
ATOM     22  C   UNL     1      -3.600 -10.436  13.102  0.00  0.00    +0.111 A 
ATOM     23  C   UNL     1      -2.263 -10.486  12.737  0.00  0.00    +0.031 A 
ATOM     24  C   UNL     1      -1.934 -10.165  11.425  0.00  0.00    +0.004 A 
ATOM     25  C   UNL     1      -4.243  -9.791  10.992  0.00  0.00    +0.111 A 
ATOM     26  C   UNL     1      -2.937  -9.809  10.530  0.00  0.00    +0.020 A 
ENDBRANCH  21  22
ENDBRANCH  10  18
BRANCH  13   1
ATOM      1  O   UNL     1      -6.144 -11.448  20.876  0.00  0.00    -0.390 OA
ATOM     27  H   UNL     1      -5.843 -12.247  21.341  0.00  0.00    +0.210 HD
ENDBRANCH  13   1
TORSDOF 4
ENDMDL
MODEL 9
REMARK VINA RESULT:      -6.4     26.834     29.611
REMARK  Name = 26743656
REMARK  5 active torsions:
REMARK  status: ('A' for Active; 'I' for Inactive)
REMARK    1  A    between atoms: O_1  and  C_13
REMARK    2  A    between atoms: N_4  and  C_9
REMARK    3  A    between atoms: C_10  and  C_18
REMARK    4  A    between atoms: C_19  and  C_20
REMARK    5  A    between atoms: C_21  and  C_22
REMARK                            x       y       z     vdW  Elec       q    Type
REMARK                         _______ _______ _______ _____ _____    ______ ____
ROOT
ATOM      4  N   UNL     1     -14.735   4.958  32.735  0.00  0.00    -0.286 NA
ATOM     10  C   UNL     1     -15.262   6.332  32.609  0.00  0.00    +0.149 C 
ATOM     11  C   UNL     1     -15.606   4.266  33.684  0.00  0.00    +0.116 C 
ATOM     12  C   UNL     1     -15.955   6.612  33.956  0.00  0.00    +0.061 C 
ATOM     13  C   UNL     1     -15.805   5.324  34.754  0.00  0.00    +0.130 C 
ENDROOT
BRANCH   4   9
ATOM      3  O   UNL     1     -16.194   0.017  29.380  0.00  0.00    -0.276 OA
ATOM      5  N   UNL     1     -14.818   1.809  29.917  0.00  0.00    -0.302 N 
ATOM      9  C   UNL     1     -14.647   4.255  31.457  0.00  0.00    +0.060 C 
ATOM     14  C   UNL     1     -15.997   3.612  31.116  0.00  0.00    +0.038 C 
ATOM     15  C   UNL     1     -13.546   3.189  31.519  0.00  0.00    +0.038 C 
ATOM     16  C   UNL     1     -15.901   2.792  29.831  0.00  0.00    +0.109 C 
ATOM     17  C   UNL     1     -13.498   2.374  30.226  0.00  0.00    +0.109 C 
ATOM     19  C   UNL     1     -15.082   0.463  29.673  0.00  0.00    +0.212 C 
ATOM     20  C   UNL     1     -13.915  -0.485  29.784  0.00  0.00    +0.109 C 
ENDBRANCH   4   9
BRANCH  10  18
ATOM      2  O   UNL     1     -12.955   7.108  32.818  0.00  0.00    -0.336 OA
ATOM      6  N   UNL     1     -14.252   8.428  31.557  0.00  0.00    -0.189 NA
ATOM      7  N   UNL     1     -12.137   8.160  32.386  0.00  0.00    -0.054 NA
ATOM     18  C   UNL     1     -14.182   7.342  32.284  0.00  0.00    +0.245 A 
ATOM     21  C   UNL     1     -12.974   8.895  31.647  0.00  0.00    +0.220 A 
BRANCH  21  22
ATOM      8  N   UNL     1     -12.999  11.253  31.548  0.00  0.00    -0.252 NA
ATOM     22  C   UNL     1     -12.564  10.101  30.988  0.00  0.00    +0.111 A 
ATOM     23  C   UNL     1     -11.773  10.042  29.850  0.00  0.00    +0.031 A 
ATOM     24  C   UNL     1     -11.405  11.241  29.251  0.00  0.00    +0.004 A 
ATOM     25  C   UNL     1     -12.621  12.398  30.936  0.00  0.00    +0.111 A 
ATOM     26  C   UNL     1     -11.832  12.445  29.798  0.00  0.00    +0.020 A 
ENDBRANCH  21  22
ENDBRANCH  10  18
BRANCH  13   1
ATOM      1  O   UNL     1     -16.961   5.075  35.529  0.00  0.00    -0.390 OA
ATOM     27  H   UNL     1     -16.691   5.072  36.463  0.00  0.00    +0.210 HD
ENDBRANCH  13   1
TORSDOF 4
ENDMDL
MODEL 10
REMARK VINA RESULT:      -6.3     26.662     29.934
REMARK  Name = 26743656
REMARK  5 active torsions:
REMARK  status: ('A' for Active; 'I' for Inactive)
REMARK    1  A    between atoms: O_1  and  C_13
REMARK    2  A    between atoms: N_4  and  C_9
REMARK    3  A    between atoms: C_10  and  C_18
REMARK    4  A    between atoms: C_19  and  C_20
REMARK    5  A    between atoms: C_21  and  C_22
REMARK                            x       y       z     vdW  Elec       q    Type
REMARK                         _______ _______ _______ _____ _____    ______ ____
ROOT
ATOM      4  N   UNL     1      -9.089 -10.503  17.308  0.00  0.00    -0.286 NA
ATOM     10  C   UNL     1      -7.935 -10.231  18.188  0.00  0.00    +0.149 C 
ATOM     11  C   UNL     1     -10.243 -10.695  18.187  0.00  0.00    +0.116 C 
ATOM     12  C   UNL     1      -8.272 -10.943  19.511  0.00  0.00    +0.061 C 
ATOM     13  C   UNL     1      -9.653 -11.547  19.295  0.00  0.00    +0.130 C 
ENDROOT
BRANCH   4   9
ATOM      3  O   UNL     1     -12.593  -5.841  15.362  0.00  0.00    -0.276 OA
ATOM      5  N   UNL     1     -11.101  -7.585  15.006  0.00  0.00    -0.302 N 
ATOM      9  C   UNL     1      -9.321  -9.453  16.319  0.00  0.00    +0.060 C 
ATOM     14  C   UNL     1      -9.797  -8.171  17.014  0.00  0.00    +0.038 C 
ATOM     15  C   UNL     1     -10.357  -9.920  15.289  0.00  0.00    +0.038 C 
ATOM     16  C   UNL     1     -10.136  -7.090  15.990  0.00  0.00    +0.109 C 
ATOM     17  C   UNL     1     -10.687  -8.804  14.298  0.00  0.00    +0.109 C 
ATOM     19  C   UNL     1     -12.283  -6.883  14.779  0.00  0.00    +0.212 C 
ATOM     20  C   UNL     1     -13.225  -7.460  13.752  0.00  0.00    +0.109 C 
ENDBRANCH   4   9
BRANCH  10  18
ATOM      2  O   UNL     1      -6.185 -11.923  17.975  0.00  0.00    -0.336 OA
ATOM      6  N   UNL     1      -5.835 -10.087  16.742  0.00  0.00    -0.189 NA
ATOM      7  N   UNL     1      -4.975 -12.132  17.302  0.00  0.00    -0.054 NA
ATOM     18  C   UNL     1      -6.624 -10.697  17.589  0.00  0.00    +0.245 A 
ATOM     21  C   UNL     1      -4.837 -11.005  16.595  0.00  0.00    +0.220 A 
BRANCH  21  22
ATOM      8  N   UNL     1      -3.990 -10.727  14.410  0.00  0.00    -0.252 NA
ATOM     22  C   UNL     1      -3.715 -10.768  15.733  0.00  0.00    +0.111 A 
ATOM     23  C   UNL     1      -2.447 -10.598  16.267  0.00  0.00    +0.031 A 
ATOM     24  C   UNL     1      -1.396 -10.371  15.387  0.00  0.00    +0.004 A 
ATOM     25  C   UNL     1      -2.942 -10.505  13.585  0.00  0.00    +0.111 A 
ATOM     26  C   UNL     1      -1.639 -10.322  14.019  0.00  0.00    +0.020 A 
ENDBRANCH  21  22
ENDBRANCH  10  18
BRANCH  13   1
ATOM      1  O   UNL     1     -10.423 -11.476  20.478  0.00  0.00    -0.390 OA
ATOM     27  H   UNL     1      -9.985 -12.030  21.146  0.00  0.00    +0.210 HD
ENDBRANCH  13   1
TORSDOF 4
ENDMDL
