MODEL 1
REMARK VINA RESULT:      -6.4      0.000      0.000
REMARK  Name = 45783491
REMARK  9 active torsions:
REMARK  status: ('A' for Active; 'I' for Inactive)
REMARK    1  A    between atoms: O_3  and  C_26
REMARK    2  A    between atoms: O_3  and  C_27
REMARK    3  A    between atoms: N_4  and  C_13
REMARK    4  A    between atoms: N_8  and  C_24
REMARK    5  A    between atoms: N_8  and  C_25
REMARK    6  A    between atoms: C_9  and  C_14
REMARK    7  A    between atoms: C_13  and  C_15
REMARK    8  A    between atoms: C_16  and  C_19
REMARK    9  A    between atoms: C_25  and  C_26
REMARK                            x       y       z     vdW  Elec       q    Type
REMARK                         _______ _______ _______ _____ _____    ______ ____
ROOT
ATOM      2  O   UNL     1     -16.899   3.411  21.988  0.00  0.00    -0.336 OA
ATOM      5  N   UNL     1     -16.735   4.453  23.964  0.00  0.00    -0.190 NA
ATOM      6  N   UNL     1     -16.844   2.402  22.958  0.00  0.00    -0.056 NA
ATOM     14  C   UNL     1     -16.830   4.587  22.665  0.00  0.00    +0.245 A 
ATOM     16  C   UNL     1     -16.747   3.095  24.096  0.00  0.00    +0.204 A 
ENDROOT
BRANCH  16  19
ATOM      7  N   UNL     1     -16.981   0.485  26.734  0.00  0.00    -0.240 NA
ATOM     19  C   UNL     1     -16.661   2.462  25.380  0.00  0.00    +0.041 A 
ATOM     21  C   UNL     1     -16.195   3.157  26.491  0.00  0.00    +0.016 A 
ATOM     22  C   UNL     1     -17.038   1.141  25.553  0.00  0.00    +0.124 A 
ATOM     23  C   UNL     1     -16.122   2.517  27.724  0.00  0.00    +0.044 A 
ATOM     24  C   UNL     1     -16.524   1.193  27.791  0.00  0.00    +0.119 A 
BRANCH  24   8
ATOM      8  N   UNL     1     -16.443   0.554  29.053  0.00  0.00    -0.327 N 
ATOM     28  H   UNL     1     -16.940  -0.324  29.149  0.00  0.00    +0.148 HD
BRANCH   8  25
ATOM     25  C   UNL     1     -15.710   1.101  30.148  0.00  0.00    +0.131 C 
BRANCH  25  26
ATOM     26  C   UNL     1     -14.684   0.095  30.641  0.00  0.00    +0.178 C 
BRANCH  26   3
ATOM      3  O   UNL     1     -14.575  -0.969  29.703  0.00  0.00    -0.381 OA
ATOM     27  C   UNL     1     -13.236  -1.136  29.259  0.00  0.00    +0.194 C 
ENDBRANCH  26   3
ENDBRANCH  25  26
ENDBRANCH   8  25
ENDBRANCH  24   8
ENDBRANCH  16  19
BRANCH  14   9
ATOM      4  N   UNL     1     -15.567   6.170  21.219  0.00  0.00    -0.287 NA
ATOM      9  C   UNL     1     -16.873   5.850  21.830  0.00  0.00    +0.146 C 
ATOM     10  C   UNL     1     -17.846   5.744  20.641  0.00  0.00    +0.030 C 
ATOM     11  C   UNL     1     -17.012   6.081  19.414  0.00  0.00    +0.017 C 
ATOM     12  C   UNL     1     -15.857   6.885  19.975  0.00  0.00    +0.085 C 
BRANCH   4  13
ATOM     13  C   UNL     1     -14.692   6.933  22.099  0.00  0.00    +0.127 C 
BRANCH  13  15
ATOM      1  S   UNL     1     -13.262   9.064  21.024  0.00  0.00    -0.100 S 
ATOM     15  C   UNL     1     -13.451   7.400  21.386  0.00  0.00    +0.004 A 
ATOM     17  C   UNL     1     -12.378   6.652  20.954  0.00  0.00    +0.012 A 
ATOM     18  C   UNL     1     -11.388   7.456  20.317  0.00  0.00    +0.008 A 
ATOM     20  C   UNL     1     -11.742   8.786  20.286  0.00  0.00    +0.045 A 
ENDBRANCH  13  15
ENDBRANCH   4  13
ENDBRANCH  14   9
TORSDOF 8
ENDMDL
MODEL 2
REMARK VINA RESULT:      -6.2     27.152     31.061
REMARK  Name = 45783491
REMARK  9 active torsions:
REMARK  status: ('A' for Active; 'I' for Inactive)
REMARK    1  A    between atoms: O_3  and  C_26
REMARK    2  A    between atoms: O_3  and  C_27
REMARK    3  A    between atoms: N_4  and  C_13
REMARK    4  A    between atoms: N_8  and  C_24
REMARK    5  A    between atoms: N_8  and  C_25
REMARK    6  A    between atoms: C_9  and  C_14
REMARK    7  A    between atoms: C_13  and  C_15
REMARK    8  A    between atoms: C_16  and  C_19
REMARK    9  A    between atoms: C_25  and  C_26
REMARK                            x       y       z     vdW  Elec       q    Type
REMARK                         _______ _______ _______ _____ _____    ______ ____
ROOT
ATOM      2  O   UNL     1      12.153   7.269  18.647  0.00  0.00    -0.336 OA
ATOM      5  N   UNL     1      13.584   8.951  19.021  0.00  0.00    -0.190 NA
ATOM      6  N   UNL     1      12.612   7.679  17.388  0.00  0.00    -0.056 NA
ATOM     14  C   UNL     1      12.775   8.070  19.552  0.00  0.00    +0.245 A 
ATOM     16  C   UNL     1      13.451   8.673  17.692  0.00  0.00    +0.204 A 
ENDROOT
BRANCH  16  19
ATOM      7  N   UNL     1      15.119   9.488  14.470  0.00  0.00    -0.240 NA
ATOM     19  C   UNL     1      14.171   9.408  16.693  0.00  0.00    +0.041 A 
ATOM     21  C   UNL     1      14.615  10.703  16.937  0.00  0.00    +0.016 A 
ATOM     22  C   UNL     1      14.446   8.851  15.455  0.00  0.00    +0.124 A 
ATOM     23  C   UNL     1      15.310  11.391  15.948  0.00  0.00    +0.044 A 
ATOM     24  C   UNL     1      15.534  10.745  14.744  0.00  0.00    +0.119 A 
BRANCH  24   8
ATOM      8  N   UNL     1      16.244  11.459  13.747  0.00  0.00    -0.327 N 
ATOM     28  H   UNL     1      17.138  11.075  13.465  0.00  0.00    +0.148 HD
BRANCH   8  25
ATOM     25  C   UNL     1      15.746  12.660  13.158  0.00  0.00    +0.131 C 
BRANCH  25  26
ATOM     26  C   UNL     1      14.924  12.332  11.923  0.00  0.00    +0.178 C 
BRANCH  26   3
ATOM      3  O   UNL     1      13.558  12.175  12.292  0.00  0.00    -0.381 OA
ATOM     27  C   UNL     1      12.697  12.321  11.172  0.00  0.00    +0.194 C 
ENDBRANCH  26   3
ENDBRANCH  25  26
ENDBRANCH   8  25
ENDBRANCH  24   8
ENDBRANCH  16  19
BRANCH  14   9
ATOM      4  N   UNL     1      11.726   8.960  21.626  0.00  0.00    -0.287 NA
ATOM      9  C   UNL     1      12.443   7.825  21.009  0.00  0.00    +0.146 C 
ATOM     10  C   UNL     1      11.510   6.616  21.212  0.00  0.00    +0.030 C 
ATOM     11  C   UNL     1      10.328   7.155  22.004  0.00  0.00    +0.017 C 
ATOM     12  C   UNL     1      10.883   8.392  22.679  0.00  0.00    +0.085 C 
BRANCH   4  13
ATOM     13  C   UNL     1      12.617   9.995  22.134  0.00  0.00    +0.127 C 
BRANCH  13  15
ATOM      1  S   UNL     1      11.536  11.751  24.002  0.00  0.00    -0.100 S 
ATOM     15  C   UNL     1      11.886  11.285  22.391  0.00  0.00    +0.004 A 
ATOM     17  C   UNL     1      11.426  12.207  21.475  0.00  0.00    +0.012 A 
ATOM     18  C   UNL     1      10.779  13.309  22.104  0.00  0.00    +0.008 A 
ATOM     20  C   UNL     1      10.768  13.189  23.476  0.00  0.00    +0.045 A 
ENDBRANCH  13  15
ENDBRANCH   4  13
ENDBRANCH  14   9
TORSDOF 8
ENDMDL
MODEL 3
REMARK VINA RESULT:      -6.1     18.087     19.715
REMARK  Name = 45783491
REMARK  9 active torsions:
REMARK  status: ('A' for Active; 'I' for Inactive)
REMARK    1  A    between atoms: O_3  and  C_26
REMARK    2  A    between atoms: O_3  and  C_27
REMARK    3  A    between atoms: N_4  and  C_13
REMARK    4  A    between atoms: N_8  and  C_24
REMARK    5  A    between atoms: N_8  and  C_25
REMARK    6  A    between atoms: C_9  and  C_14
REMARK    7  A    between atoms: C_13  and  C_15
REMARK    8  A    between atoms: C_16  and  C_19
REMARK    9  A    between atoms: C_25  and  C_26
REMARK                            x       y       z     vdW  Elec       q    Type
REMARK                         _______ _______ _______ _____ _____    ______ ____
ROOT
ATOM      2  O   UNL     1      -5.000 -11.424  17.034  0.00  0.00    -0.336 OA
ATOM      5  N   UNL     1      -5.638 -10.080  15.360  0.00  0.00    -0.190 NA
ATOM      6  N   UNL     1      -6.287 -10.978  17.361  0.00  0.00    -0.056 NA
ATOM     14  C   UNL     1      -4.695 -10.849  15.842  0.00  0.00    +0.245 A 
ATOM     16  C   UNL     1      -6.595 -10.190  16.327  0.00  0.00    +0.204 A 
ENDROOT
BRANCH  16  19
ATOM      7  N   UNL     1      -9.735  -8.826  14.876  0.00  0.00    -0.240 NA
ATOM     19  C   UNL     1      -7.848  -9.499  16.229  0.00  0.00    +0.041 A 
ATOM     21  C   UNL     1      -8.396  -8.849  17.329  0.00  0.00    +0.016 A 
ATOM     22  C   UNL     1      -8.550  -9.459  15.036  0.00  0.00    +0.124 A 
ATOM     23  C   UNL     1      -9.612  -8.187  17.204  0.00  0.00    +0.044 A 
ATOM     24  C   UNL     1     -10.235  -8.206  15.967  0.00  0.00    +0.119 A 
BRANCH  24   8
ATOM      8  N   UNL     1     -11.474  -7.528  15.855  0.00  0.00    -0.327 N 
ATOM     28  H   UNL     1     -12.305  -8.106  15.819  0.00  0.00    +0.148 HD
BRANCH   8  25
ATOM     25  C   UNL     1     -11.571  -6.105  15.790  0.00  0.00    +0.131 C 
BRANCH  25  26
ATOM     26  C   UNL     1     -12.555  -5.700  14.706  0.00  0.00    +0.178 C 
BRANCH  26   3
ATOM      3  O   UNL     1     -12.176  -6.300  13.474  0.00  0.00    -0.381 OA
ATOM     27  C   UNL     1     -12.864  -5.716  12.377  0.00  0.00    +0.194 C 
ENDBRANCH  26   3
ENDBRANCH  25  26
ENDBRANCH   8  25
ENDBRANCH  24   8
ENDBRANCH  16  19
BRANCH  14   9
ATOM      4  N   UNL     1      -3.072 -10.470  13.994  0.00  0.00    -0.287 NA
ATOM      9  C   UNL     1      -3.335 -11.179  15.262  0.00  0.00    +0.146 C 
ATOM     10  C   UNL     1      -2.177 -10.764  16.190  0.00  0.00    +0.030 C 
ATOM     11  C   UNL     1      -1.284  -9.874  15.337  0.00  0.00    +0.017 C 
ATOM     12  C   UNL     1      -1.622 -10.283  13.918  0.00  0.00    +0.085 C 
BRANCH   4  13
ATOM     13  C   UNL     1      -3.596 -11.166  12.826  0.00  0.00    +0.127 C 
BRANCH  13  15
ATOM      1  S   UNL     1      -5.412  -9.403  11.671  0.00  0.00    -0.100 S 
ATOM     15  C   UNL     1      -3.904 -10.216  11.700  0.00  0.00    +0.004 A 
ATOM     17  C   UNL     1      -3.114  -9.879  10.623  0.00  0.00    +0.012 A 
ATOM     18  C   UNL     1      -3.755  -8.940   9.763  0.00  0.00    +0.008 A 
ATOM     20  C   UNL     1      -5.009  -8.597  10.214  0.00  0.00    +0.045 A 
ENDBRANCH  13  15
ENDBRANCH   4  13
ENDBRANCH  14   9
TORSDOF 8
ENDMDL
MODEL 4
REMARK VINA RESULT:      -6.0     27.136     31.458
REMARK  Name = 45783491
REMARK  9 active torsions:
REMARK  status: ('A' for Active; 'I' for Inactive)
REMARK    1  A    between atoms: O_3  and  C_26
REMARK    2  A    between atoms: O_3  and  C_27
REMARK    3  A    between atoms: N_4  and  C_13
REMARK    4  A    between atoms: N_8  and  C_24
REMARK    5  A    between atoms: N_8  and  C_25
REMARK    6  A    between atoms: C_9  and  C_14
REMARK    7  A    between atoms: C_13  and  C_15
REMARK    8  A    between atoms: C_16  and  C_19
REMARK    9  A    between atoms: C_25  and  C_26
REMARK                            x       y       z     vdW  Elec       q    Type
REMARK                         _______ _______ _______ _____ _____    ______ ____
ROOT
ATOM      2  O   UNL     1      12.243   7.047  18.712  0.00  0.00    -0.336 OA
ATOM      5  N   UNL     1      13.512   8.862  19.052  0.00  0.00    -0.190 NA
ATOM      6  N   UNL     1      12.704   7.443  17.450  0.00  0.00    -0.056 NA
ATOM     14  C   UNL     1      12.766   7.935  19.598  0.00  0.00    +0.245 A 
ATOM     16  C   UNL     1      13.444   8.519  17.733  0.00  0.00    +0.204 A 
ENDROOT
BRANCH  16  19
ATOM      7  N   UNL     1      15.086   9.360  14.505  0.00  0.00    -0.240 NA
ATOM     19  C   UNL     1      14.127   9.273  16.722  0.00  0.00    +0.041 A 
ATOM     21  C   UNL     1      14.493  10.597  16.940  0.00  0.00    +0.016 A 
ATOM     22  C   UNL     1      14.444   8.706  15.499  0.00  0.00    +0.124 A 
ATOM     23  C   UNL     1      15.155  11.303  15.941  0.00  0.00    +0.044 A 
ATOM     24  C   UNL     1      15.425  10.645  14.753  0.00  0.00    +0.119 A 
BRANCH  24   8
ATOM      8  N   UNL     1      16.100  11.377  13.745  0.00  0.00    -0.327 N 
ATOM     28  H   UNL     1      15.854  11.159  12.787  0.00  0.00    +0.148 HD
BRANCH   8  25
ATOM     25  C   UNL     1      17.080  12.370  14.040  0.00  0.00    +0.131 C 
BRANCH  25  26
ATOM     26  C   UNL     1      18.394  11.708  14.421  0.00  0.00    +0.178 C 
BRANCH  26   3
ATOM      3  O   UNL     1      19.317  12.701  14.851  0.00  0.00    -0.381 OA
ATOM     27  C   UNL     1      19.555  12.619  16.249  0.00  0.00    +0.194 C 
ENDBRANCH  26   3
ENDBRANCH  25  26
ENDBRANCH   8  25
ENDBRANCH  24   8
ENDBRANCH  16  19
BRANCH  14   9
ATOM      4  N   UNL     1      11.741   8.893  21.653  0.00  0.00    -0.287 NA
ATOM      9  C   UNL     1      12.413   7.722  21.055  0.00  0.00    +0.146 C 
ATOM     10  C   UNL     1      11.427   6.557  21.264  0.00  0.00    +0.030 C 
ATOM     11  C   UNL     1      10.263   7.155  22.040  0.00  0.00    +0.017 C 
ATOM     12  C   UNL     1      10.866   8.375  22.706  0.00  0.00    +0.085 C 
BRANCH   4  13
ATOM     13  C   UNL     1      12.671   9.895  22.158  0.00  0.00    +0.127 C 
BRANCH  13  15
ATOM      1  S   UNL     1      11.860  11.697  24.115  0.00  0.00    -0.100 S 
ATOM     15  C   UNL     1      11.976  11.190  22.483  0.00  0.00    +0.004 A 
ATOM     17  C   UNL     1      11.384  12.086  21.620  0.00  0.00    +0.012 A 
ATOM     18  C   UNL     1      10.827  13.203  22.308  0.00  0.00    +0.008 A 
ATOM     20  C   UNL     1      11.015  13.119  23.670  0.00  0.00    +0.045 A 
ENDBRANCH  13  15
ENDBRANCH   4  13
ENDBRANCH  14   9
TORSDOF 8
ENDMDL
MODEL 5
REMARK VINA RESULT:      -6.0     17.924     19.311
REMARK  Name = 45783491
REMARK  9 active torsions:
REMARK  status: ('A' for Active; 'I' for Inactive)
REMARK    1  A    between atoms: O_3  and  C_26
REMARK    2  A    between atoms: O_3  and  C_27
REMARK    3  A    between atoms: N_4  and  C_13
REMARK    4  A    between atoms: N_8  and  C_24
REMARK    5  A    between atoms: N_8  and  C_25
REMARK    6  A    between atoms: C_9  and  C_14
REMARK    7  A    between atoms: C_13  and  C_15
REMARK    8  A    between atoms: C_16  and  C_19
REMARK    9  A    between atoms: C_25  and  C_26
REMARK                            x       y       z     vdW  Elec       q    Type
REMARK                         _______ _______ _______ _____ _____    ______ ____
ROOT
ATOM      2  O   UNL     1      -5.500  -9.530  15.639  0.00  0.00    -0.336 OA
ATOM      5  N   UNL     1      -5.800 -11.253  17.038  0.00  0.00    -0.190 NA
ATOM      6  N   UNL     1      -6.698  -9.277  16.319  0.00  0.00    -0.056 NA
ATOM     14  C   UNL     1      -5.036 -10.712  16.123  0.00  0.00    +0.245 A 
ATOM     16  C   UNL     1      -6.807 -10.337  17.125  0.00  0.00    +0.204 A 
ENDROOT
BRANCH  16  19
ATOM      7  N   UNL     1      -8.780 -11.492  20.058  0.00  0.00    -0.240 NA
ATOM     19  C   UNL     1      -7.909 -10.511  18.027  0.00  0.00    +0.041 A 
ATOM     21  C   UNL     1      -9.137  -9.906  17.784  0.00  0.00    +0.016 A 
ATOM     22  C   UNL     1      -7.783 -11.287  19.167  0.00  0.00    +0.124 A 
ATOM     23  C   UNL     1     -10.186 -10.093  18.676  0.00  0.00    +0.044 A 
ATOM     24  C   UNL     1      -9.958 -10.888  19.787  0.00  0.00    +0.119 A 
BRANCH  24   8
ATOM      8  N   UNL     1     -11.037 -11.069  20.688  0.00  0.00    -0.327 N 
ATOM     28  H   UNL     1     -10.874 -10.796  21.650  0.00  0.00    +0.148 HD
BRANCH   8  25
ATOM     25  C   UNL     1     -12.295 -11.608  20.285  0.00  0.00    +0.131 C 
BRANCH  25  26
ATOM     26  C   UNL     1     -12.579 -12.891  21.048  0.00  0.00    +0.178 C 
BRANCH  26   3
ATOM      3  O   UNL     1     -11.351 -13.481  21.457  0.00  0.00    -0.381 OA
ATOM     27  C   UNL     1     -11.508 -14.237  22.649  0.00  0.00    +0.194 C 
ENDBRANCH  26   3
ENDBRANCH  25  26
ENDBRANCH   8  25
ENDBRANCH  24   8
ENDBRANCH  16  19
BRANCH  14   9
ATOM      4  N   UNL     1      -3.394 -10.562  14.260  0.00  0.00    -0.287 NA
ATOM      9  C   UNL     1      -3.732 -11.215  15.540  0.00  0.00    +0.146 C 
ATOM     10  C   UNL     1      -2.525 -10.932  16.455  0.00  0.00    +0.030 C 
ATOM     11  C   UNL     1      -1.536 -10.171  15.583  0.00  0.00    +0.017 C 
ATOM     12  C   UNL     1      -1.933 -10.555  14.172  0.00  0.00    +0.085 C 
BRANCH   4  13
ATOM     13  C   UNL     1      -4.009 -11.205  13.106  0.00  0.00    +0.127 C 
BRANCH  13  15
ATOM      1  S   UNL     1      -5.550  -9.334  11.740  0.00  0.00    -0.100 S 
ATOM     15  C   UNL     1      -4.124 -10.264  11.937  0.00  0.00    +0.004 A 
ATOM     17  C   UNL     1      -3.206 -10.020  10.939  0.00  0.00    +0.012 A 
ATOM     18  C   UNL     1      -3.678  -9.056  10.001  0.00  0.00    +0.008 A 
ATOM     20  C   UNL     1      -4.940  -8.602  10.317  0.00  0.00    +0.045 A 
ENDBRANCH  13  15
ENDBRANCH   4  13
ENDBRANCH  14   9
TORSDOF 8
ENDMDL
MODEL 6
REMARK VINA RESULT:      -5.9     17.304     20.182
REMARK  Name = 45783491
REMARK  9 active torsions:
REMARK  status: ('A' for Active; 'I' for Inactive)
REMARK    1  A    between atoms: O_3  and  C_26
REMARK    2  A    between atoms: O_3  and  C_27
REMARK    3  A    between atoms: N_4  and  C_13
REMARK    4  A    between atoms: N_8  and  C_24
REMARK    5  A    between atoms: N_8  and  C_25
REMARK    6  A    between atoms: C_9  and  C_14
REMARK    7  A    between atoms: C_13  and  C_15
REMARK    8  A    between atoms: C_16  and  C_19
REMARK    9  A    between atoms: C_25  and  C_26
REMARK                            x       y       z     vdW  Elec       q    Type
REMARK                         _______ _______ _______ _____ _____    ______ ____
ROOT
ATOM      2  O   UNL     1      -9.053 -10.985  20.272  0.00  0.00    -0.336 OA
ATOM      5  N   UNL     1      -8.931 -10.892  18.038  0.00  0.00    -0.190 NA
ATOM      6  N   UNL     1      -7.693 -10.865  19.960  0.00  0.00    -0.056 NA
ATOM     14  C   UNL     1      -9.712 -10.993  19.084  0.00  0.00    +0.245 A 
ATOM     16  C   UNL     1      -7.702 -10.816  18.625  0.00  0.00    +0.204 A 
ENDROOT
BRANCH  16  19
ATOM      7  N   UNL     1      -5.395  -9.824  15.883  0.00  0.00    -0.240 NA
ATOM     19  C   UNL     1      -6.502 -10.692  17.849  0.00  0.00    +0.041 A 
ATOM     21  C   UNL     1      -5.316 -11.285  18.264  0.00  0.00    +0.016 A 
ATOM     22  C   UNL     1      -6.490  -9.979  16.662  0.00  0.00    +0.124 A 
ATOM     23  C   UNL     1      -4.168 -11.148  17.491  0.00  0.00    +0.044 A 
ATOM     24  C   UNL     1      -4.260 -10.414  16.320  0.00  0.00    +0.119 A 
BRANCH  24   8
ATOM      8  N   UNL     1      -3.083 -10.283  15.542  0.00  0.00    -0.327 N 
ATOM     28  H   UNL     1      -2.262  -9.931  16.020  0.00  0.00    +0.148 HD
BRANCH   8  25
ATOM     25  C   UNL     1      -3.034 -10.620  14.157  0.00  0.00    +0.131 C 
BRANCH  25  26
ATOM     26  C   UNL     1      -2.040 -11.746  13.930  0.00  0.00    +0.178 C 
BRANCH  26   3
ATOM      3  O   UNL     1      -1.685 -11.794  12.553  0.00  0.00    -0.381 OA
ATOM     27  C   UNL     1      -2.201 -10.677  11.843  0.00  0.00    +0.194 C 
ENDBRANCH  26   3
ENDBRANCH  25  26
ENDBRANCH   8  25
ENDBRANCH  24   8
ENDBRANCH  16  19
BRANCH  14   9
ATOM      4  N   UNL     1     -11.677 -11.864  20.337  0.00  0.00    -0.287 NA
ATOM      9  C   UNL     1     -11.220 -11.115  19.149  0.00  0.00    +0.146 C 
ATOM     10  C   UNL     1     -11.923  -9.749  19.253  0.00  0.00    +0.030 C 
ATOM     11  C   UNL     1     -12.800  -9.846  20.493  0.00  0.00    +0.017 C 
ATOM     12  C   UNL     1     -13.001 -11.337  20.673  0.00  0.00    +0.085 C 
BRANCH   4  13
ATOM     13  C   UNL     1     -11.697 -13.307  20.135  0.00  0.00    +0.127 C 
BRANCH  13  15
ATOM      1  S   UNL     1     -11.411 -14.417  22.669  0.00  0.00    -0.100 S 
ATOM     15  C   UNL     1     -10.807 -14.021  21.116  0.00  0.00    +0.004 A 
ATOM     17  C   UNL     1      -9.502 -14.431  20.949  0.00  0.00    +0.012 A 
ATOM     18  C   UNL     1      -8.992 -15.079  22.112  0.00  0.00    +0.008 A 
ATOM     20  C   UNL     1      -9.925 -15.139  23.122  0.00  0.00    +0.045 A 
ENDBRANCH  13  15
ENDBRANCH   4  13
ENDBRANCH  14   9
TORSDOF 8
ENDMDL
MODEL 7
REMARK VINA RESULT:      -5.8     32.558     36.058
REMARK  Name = 45783491
REMARK  9 active torsions:
REMARK  status: ('A' for Active; 'I' for Inactive)
REMARK    1  A    between atoms: O_3  and  C_26
REMARK    2  A    between atoms: O_3  and  C_27
REMARK    3  A    between atoms: N_4  and  C_13
REMARK    4  A    between atoms: N_8  and  C_24
REMARK    5  A    between atoms: N_8  and  C_25
REMARK    6  A    between atoms: C_9  and  C_14
REMARK    7  A    between atoms: C_13  and  C_15
REMARK    8  A    between atoms: C_16  and  C_19
REMARK    9  A    between atoms: C_25  and  C_26
REMARK                            x       y       z     vdW  Elec       q    Type
REMARK                         _______ _______ _______ _____ _____    ______ ____
ROOT
ATOM      2  O   UNL     1      20.807   6.952  22.723  0.00  0.00    -0.336 OA
ATOM      5  N   UNL     1      20.240   5.964  20.794  0.00  0.00    -0.190 NA
ATOM      6  N   UNL     1      19.508   7.387  22.429  0.00  0.00    -0.056 NA
ATOM     14  C   UNL     1      21.162   6.118  21.711  0.00  0.00    +0.245 A 
ATOM     16  C   UNL     1      19.244   6.761  21.278  0.00  0.00    +0.204 A 
ENDROOT
BRANCH  16  19
ATOM      7  N   UNL     1      16.404   6.046  18.987  0.00  0.00    -0.240 NA
ATOM     19  C   UNL     1      17.997   6.913  20.585  0.00  0.00    +0.041 A 
ATOM     21  C   UNL     1      17.182   8.016  20.810  0.00  0.00    +0.016 A 
ATOM     22  C   UNL     1      17.567   5.964  19.672  0.00  0.00    +0.124 A 
ATOM     23  C   UNL     1      15.979   8.136  20.124  0.00  0.00    +0.044 A 
ATOM     24  C   UNL     1      15.639   7.133  19.232  0.00  0.00    +0.119 A 
BRANCH  24   8
ATOM      8  N   UNL     1      14.409   7.268  18.541  0.00  0.00    -0.327 N 
ATOM     28  H   UNL     1      14.393   6.948  17.580  0.00  0.00    +0.148 HD
BRANCH   8  25
ATOM     25  C   UNL     1      13.244   7.826  19.145  0.00  0.00    +0.131 C 
BRANCH  25  26
ATOM     26  C   UNL     1      12.633   6.829  20.116  0.00  0.00    +0.178 C 
BRANCH  26   3
ATOM      3  O   UNL     1      11.246   7.107  20.270  0.00  0.00    -0.381 OA
ATOM     27  C   UNL     1      10.989   8.503  20.240  0.00  0.00    +0.194 C 
ENDBRANCH  26   3
ENDBRANCH  25  26
ENDBRANCH   8  25
ENDBRANCH  24   8
ENDBRANCH  16  19
BRANCH  14   9
ATOM      4  N   UNL     1      22.769   4.469  20.767  0.00  0.00    -0.287 NA
ATOM      9  C   UNL     1      22.544   5.504  21.796  0.00  0.00    +0.146 C 
ATOM     10  C   UNL     1      23.667   6.534  21.567  0.00  0.00    +0.030 C 
ATOM     11  C   UNL     1      24.506   5.962  20.434  0.00  0.00    +0.017 C 
ATOM     12  C   UNL     1      24.205   4.478  20.479  0.00  0.00    +0.085 C 
BRANCH   4  13
ATOM     13  C   UNL     1      22.299   3.149  21.166  0.00  0.00    +0.127 C 
BRANCH  13  15
ATOM      1  S   UNL     1      23.818   2.455  23.390  0.00  0.00    -0.100 S 
ATOM     15  C   UNL     1      23.410   2.307  21.733  0.00  0.00    +0.004 A 
ATOM     17  C   UNL     1      24.197   1.379  21.088  0.00  0.00    +0.012 A 
ATOM     18  C   UNL     1      25.147   0.781  21.965  0.00  0.00    +0.008 A 
ATOM     20  C   UNL     1      25.052   1.275  23.247  0.00  0.00    +0.045 A 
ENDBRANCH  13  15
ENDBRANCH   4  13
ENDBRANCH  14   9
TORSDOF 8
ENDMDL
MODEL 8
REMARK VINA RESULT:      -5.8     20.387     21.736
REMARK  Name = 45783491
REMARK  9 active torsions:
REMARK  status: ('A' for Active; 'I' for Inactive)
REMARK    1  A    between atoms: O_3  and  C_26
REMARK    2  A    between atoms: O_3  and  C_27
REMARK    3  A    between atoms: N_4  and  C_13
REMARK    4  A    between atoms: N_8  and  C_24
REMARK    5  A    between atoms: N_8  and  C_25
REMARK    6  A    between atoms: C_9  and  C_14
REMARK    7  A    between atoms: C_13  and  C_15
REMARK    8  A    between atoms: C_16  and  C_19
REMARK    9  A    between atoms: C_25  and  C_26
REMARK                            x       y       z     vdW  Elec       q    Type
REMARK                         _______ _______ _______ _____ _____    ______ ____
ROOT
ATOM      2  O   UNL     1      -1.886 -10.678  12.832  0.00  0.00    -0.336 OA
ATOM      5  N   UNL     1      -4.111 -10.512  13.033  0.00  0.00    -0.190 NA
ATOM      6  N   UNL     1      -2.157 -10.712  14.205  0.00  0.00    -0.056 NA
ATOM     14  C   UNL     1      -3.090 -10.559  12.214  0.00  0.00    +0.245 A 
ATOM     16  C   UNL     1      -3.489 -10.609  14.243  0.00  0.00    +0.204 A 
ENDROOT
BRANCH  16  19
ATOM      7  N   UNL     1      -6.197  -9.908  16.693  0.00  0.00    -0.240 NA
ATOM     19  C   UNL     1      -4.228 -10.600  15.473  0.00  0.00    +0.041 A 
ATOM     21  C   UNL     1      -3.739 -11.237  16.607  0.00  0.00    +0.016 A 
ATOM     22  C   UNL     1      -5.450  -9.955  15.567  0.00  0.00    +0.124 A 
ATOM     23  C   UNL     1      -4.478 -11.211  17.785  0.00  0.00    +0.044 A 
ATOM     24  C   UNL     1      -5.689 -10.539  17.776  0.00  0.00    +0.119 A 
BRANCH  24   8
ATOM      8  N   UNL     1      -6.431 -10.522  18.983  0.00  0.00    -0.327 N 
ATOM     28  H   UNL     1      -6.782  -9.621  19.285  0.00  0.00    +0.148 HD
BRANCH   8  25
ATOM     25  C   UNL     1      -6.679 -11.698  19.751  0.00  0.00    +0.131 C 
BRANCH  25  26
ATOM     26  C   UNL     1      -8.145 -12.087  19.647  0.00  0.00    +0.178 C 
BRANCH  26   3
ATOM      3  O   UNL     1      -8.955 -10.984  20.035  0.00  0.00    -0.381 OA
ATOM     27  C   UNL     1     -10.030 -10.783  19.128  0.00  0.00    +0.194 C 
ENDBRANCH  26   3
ENDBRANCH  25  26
ENDBRANCH   8  25
ENDBRANCH  24   8
ENDBRANCH  16  19
BRANCH  14   9
ATOM      4  N   UNL     1      -4.186 -11.247  10.088  0.00  0.00    -0.287 NA
ATOM      9  C   UNL     1      -3.069 -10.500  10.701  0.00  0.00    +0.146 C 
ATOM     10  C   UNL     1      -3.215  -9.065  10.159  0.00  0.00    +0.030 C 
ATOM     11  C   UNL     1      -4.400  -9.118   9.206  0.00  0.00    +0.017 C 
ATOM     12  C   UNL     1      -4.483 -10.581   8.819  0.00  0.00    +0.085 C 
BRANCH   4  13
ATOM     13  C   UNL     1      -3.901 -12.664   9.910  0.00  0.00    +0.127 C 
BRANCH  13  15
ATOM      1  S   UNL     1      -3.083 -14.370  11.950  0.00  0.00    -0.100 S 
ATOM     15  C   UNL     1      -4.283 -13.469  11.123  0.00  0.00    +0.004 A 
ATOM     17  C   UNL     1      -5.523 -13.603  11.708  0.00  0.00    +0.012 A 
ATOM     18  C   UNL     1      -5.488 -14.455  12.849  0.00  0.00    +0.008 A 
ATOM     20  C   UNL     1      -4.222 -14.941  13.093  0.00  0.00    +0.045 A 
ENDBRANCH  13  15
ENDBRANCH   4  13
ENDBRANCH  14   9
TORSDOF 8
ENDMDL
MODEL 9
REMARK VINA RESULT:      -5.8     28.521     32.903
REMARK  Name = 45783491
REMARK  9 active torsions:
REMARK  status: ('A' for Active; 'I' for Inactive)
REMARK    1  A    between atoms: O_3  and  C_26
REMARK    2  A    between atoms: O_3  and  C_27
REMARK    3  A    between atoms: N_4  and  C_13
REMARK    4  A    between atoms: N_8  and  C_24
REMARK    5  A    between atoms: N_8  and  C_25
REMARK    6  A    between atoms: C_9  and  C_14
REMARK    7  A    between atoms: C_13  and  C_15
REMARK    8  A    between atoms: C_16  and  C_19
REMARK    9  A    between atoms: C_25  and  C_26
REMARK                            x       y       z     vdW  Elec       q    Type
REMARK                         _______ _______ _______ _____ _____    ______ ____
ROOT
ATOM      2  O   UNL     1      12.954   7.477  17.302  0.00  0.00    -0.336 OA
ATOM      5  N   UNL     1      13.569   9.434  18.203  0.00  0.00    -0.190 NA
ATOM      6  N   UNL     1      13.654   8.165  16.303  0.00  0.00    -0.056 NA
ATOM     14  C   UNL     1      12.951   8.295  18.388  0.00  0.00    +0.245 A 
ATOM     16  C   UNL     1      13.983   9.308  16.910  0.00  0.00    +0.204 A 
ENDROOT
BRANCH  16  19
ATOM      7  N   UNL     1      15.761  11.183  14.235  0.00  0.00    -0.240 NA
ATOM     19  C   UNL     1      14.725  10.346  16.252  0.00  0.00    +0.041 A 
ATOM     21  C   UNL     1      15.125  11.486  16.940  0.00  0.00    +0.016 A 
ATOM     22  C   UNL     1      15.064  10.243  14.914  0.00  0.00    +0.124 A 
ATOM     23  C   UNL     1      15.843  12.475  16.276  0.00  0.00    +0.044 A 
ATOM     24  C   UNL     1      16.133  12.277  14.936  0.00  0.00    +0.119 A 
BRANCH  24   8
ATOM      8  N   UNL     1      16.864  13.293  14.273  0.00  0.00    -0.327 N 
ATOM     28  H   UNL     1      17.183  14.066  14.844  0.00  0.00    +0.148 HD
BRANCH   8  25
ATOM     25  C   UNL     1      17.145  13.251  12.875  0.00  0.00    +0.131 C 
BRANCH  25  26
ATOM     26  C   UNL     1      18.647  13.277  12.645  0.00  0.00    +0.178 C 
BRANCH  26   3
ATOM      3  O   UNL     1      19.200  12.014  12.996  0.00  0.00    -0.381 OA
ATOM     27  C   UNL     1      20.504  12.151  13.542  0.00  0.00    +0.194 C 
ENDBRANCH  26   3
ENDBRANCH  25  26
ENDBRANCH   8  25
ENDBRANCH  24   8
ENDBRANCH  16  19
BRANCH  14   9
ATOM      4  N   UNL     1      13.052   7.938  20.849  0.00  0.00    -0.287 NA
ATOM      9  C   UNL     1      12.246   7.773  19.623  0.00  0.00    +0.146 C 
ATOM     10  C   UNL     1      10.930   8.519  19.916  0.00  0.00    +0.030 C 
ATOM     11  C   UNL     1      11.066   9.014  21.349  0.00  0.00    +0.017 C 
ATOM     12  C   UNL     1      12.102   8.088  21.951  0.00  0.00    +0.085 C 
BRANCH   4  13
ATOM     13  C   UNL     1      13.986   6.843  21.075  0.00  0.00    +0.127 C 
BRANCH  13  15
ATOM      1  S   UNL     1      15.762   8.921  21.592  0.00  0.00    -0.100 S 
ATOM     15  C   UNL     1      15.414   7.319  21.094  0.00  0.00    +0.004 A 
ATOM     17  C   UNL     1      16.554   6.625  20.752  0.00  0.00    +0.012 A 
ATOM     18  C   UNL     1      17.728   7.418  20.902  0.00  0.00    +0.008 A 
ATOM     20  C   UNL     1      17.442   8.688  21.350  0.00  0.00    +0.045 A 
ENDBRANCH  13  15
ENDBRANCH   4  13
ENDBRANCH  14   9
TORSDOF 8
ENDMDL
MODEL 10
REMARK VINA RESULT:      -5.8     19.058     20.333
REMARK  Name = 45783491
REMARK  9 active torsions:
REMARK  status: ('A' for Active; 'I' for Inactive)
REMARK    1  A    between atoms: O_3  and  C_26
REMARK    2  A    between atoms: O_3  and  C_27
REMARK    3  A    between atoms: N_4  and  C_13
REMARK    4  A    between atoms: N_8  and  C_24
REMARK    5  A    between atoms: N_8  and  C_25
REMARK    6  A    between atoms: C_9  and  C_14
REMARK    7  A    between atoms: C_13  and  C_15
REMARK    8  A    between atoms: C_16  and  C_19
REMARK    9  A    between atoms: C_25  and  C_26
REMARK                            x       y       z     vdW  Elec       q    Type
REMARK                         _______ _______ _______ _____ _____    ______ ____
ROOT
ATOM      2  O   UNL     1      -2.261 -10.689  14.723  0.00  0.00    -0.336 OA
ATOM      5  N   UNL     1      -4.479 -10.694  14.410  0.00  0.00    -0.190 NA
ATOM      6  N   UNL     1      -2.835 -10.626  15.999  0.00  0.00    -0.056 NA
ATOM     14  C   UNL     1      -3.298 -10.727  13.846  0.00  0.00    +0.245 A 
ATOM     16  C   UNL     1      -4.144 -10.633  15.731  0.00  0.00    +0.204 A 
ENDROOT
BRANCH  16  19
ATOM      7  N   UNL     1      -7.456 -10.249  17.377  0.00  0.00    -0.240 NA
ATOM     19  C   UNL     1      -5.142 -10.579  16.760  0.00  0.00    +0.041 A 
ATOM     21  C   UNL     1      -4.810 -10.790  18.093  0.00  0.00    +0.016 A 
ATOM     22  C   UNL     1      -6.467 -10.314  16.456  0.00  0.00    +0.124 A 
ATOM     23  C   UNL     1      -5.799 -10.730  19.069  0.00  0.00    +0.044 A 
ATOM     24  C   UNL     1      -7.094 -10.459  18.662  0.00  0.00    +0.119 A 
BRANCH  24   8
ATOM      8  N   UNL     1      -8.092 -10.403  19.667  0.00  0.00    -0.327 N 
ATOM     28  H   UNL     1      -7.938  -9.744  20.421  0.00  0.00    +0.148 HD
BRANCH   8  25
ATOM     25  C   UNL     1      -9.259 -11.224  19.640  0.00  0.00    +0.131 C 
BRANCH  25  26
ATOM     26  C   UNL     1     -10.505 -10.355  19.619  0.00  0.00    +0.178 C 
BRANCH  26   3
ATOM      3  O   UNL     1     -11.017 -10.295  18.293  0.00  0.00    -0.381 OA
ATOM     27  C   UNL     1     -10.855  -9.000  17.731  0.00  0.00    +0.194 C 
ENDBRANCH  26   3
ENDBRANCH  25  26
ENDBRANCH   8  25
ENDBRANCH  24   8
ENDBRANCH  16  19
BRANCH  14   9
ATOM      4  N   UNL     1      -3.877 -10.042  11.524  0.00  0.00    -0.287 NA
ATOM      9  C   UNL     1      -2.938 -10.798  12.377  0.00  0.00    +0.146 C 
ATOM     10  C   UNL     1      -1.556 -10.189  12.073  0.00  0.00    +0.030 C 
ATOM     11  C   UNL     1      -1.811  -9.144  10.996  0.00  0.00    +0.017 C 
ATOM     12  C   UNL     1      -3.111  -9.594  10.361  0.00  0.00    +0.085 C 
BRANCH   4  13
ATOM     13  C   UNL     1      -5.054 -10.812  11.142  0.00  0.00    +0.127 C 
BRANCH  13  15
ATOM      1  S   UNL     1      -6.220 -10.655   8.621  0.00  0.00    -0.100 S 
ATOM     15  C   UNL     1      -5.941 -10.046  10.198  0.00  0.00    +0.004 A 
ATOM     17  C   UNL     1      -6.604  -8.858  10.418  0.00  0.00    +0.012 A 
ATOM     18  C   UNL     1      -7.351  -8.444   9.277  0.00  0.00    +0.008 A 
ATOM     20  C   UNL     1      -7.230  -9.329   8.229  0.00  0.00    +0.045 A 
ENDBRANCH  13  15
ENDBRANCH   4  13
ENDBRANCH  14   9
TORSDOF 8
ENDMDL
