MODEL 1
REMARK VINA RESULT:      -6.9      0.000      0.000
REMARK  Name = 75536698
REMARK  8 active torsions:
REMARK  status: ('A' for Active; 'I' for Inactive)
REMARK    1  A    between atoms: S_1  and  N_7
REMARK    2  A    between atoms: S_1  and  C_18
REMARK    3  A    between atoms: O_3  and  C_10
REMARK    4  A    between atoms: N_6  and  C_8
REMARK    5  A    between atoms: N_6  and  C_9
REMARK    6  A    between atoms: N_7  and  C_17
REMARK    7  A    between atoms: C_13  and  C_17
REMARK    8  A    between atoms: C_23  and  C_24
REMARK                            x       y       z     vdW  Elec       q    Type
REMARK                         _______ _______ _______ _____ _____    ______ ____
ROOT
ATOM      2  O   UNL     1      12.653  10.255  21.158  0.00  0.00    -0.371 OA
ATOM      9  C   UNL     1      11.158  10.381  22.999  0.00  0.00    +0.111 C 
ATOM     10  C   UNL     1      10.564   9.469  21.942  0.00  0.00    +0.164 C 
ATOM     13  C   UNL     1      11.808   9.092  21.148  0.00  0.00    +0.164 C 
ATOM     16  C   UNL     1      12.194  11.145  22.190  0.00  0.00    +0.181 C 
ENDROOT
BRANCH  10   3
ATOM      3  O   UNL     1       9.929   8.333  22.495  0.00  0.00    -0.388 OA
ATOM     26  H   UNL     1      10.229   7.547  22.009  0.00  0.00    +0.210 HD
ENDBRANCH  10   3
BRANCH   9   6
ATOM      6  N   UNL     1      10.181  11.252  23.633  0.00  0.00    -0.306 NA
ATOM     25  H   UNL     1       9.746  10.776  24.423  0.00  0.00    +0.123 HD
BRANCH   6   8
ATOM      8  C   UNL     1      10.793  12.493  24.072  0.00  0.00    +0.054 C 
ATOM     11  C   UNL     1      10.850  12.617  25.590  0.00  0.00    +0.019 C 
ATOM     12  C   UNL     1       9.985  13.722  23.674  0.00  0.00    +0.019 C 
ATOM     14  C   UNL     1      11.085  14.108  25.820  0.00  0.00    +0.002 C 
ATOM     15  C   UNL     1      10.529  14.820  24.584  0.00  0.00    +0.002 C 
ENDBRANCH   6   8
ENDBRANCH   9   6
BRANCH  13  17
ATOM     17  C   UNL     1      11.507   8.688  19.716  0.00  0.00    +0.140 C 
BRANCH  17   7
ATOM      7  N   UNL     1      12.514   7.712  19.255  0.00  0.00    -0.187 NA
ATOM     27  H   UNL     1      12.690   6.920  19.885  0.00  0.00    +0.148 HD
BRANCH   7   1
ATOM      1  S   UNL     1      13.762   8.204  18.208  0.00  0.00    +0.058 S 
ATOM      4  O   UNL     1      13.720   9.646  18.057  0.00  0.00    -0.153 OA
ATOM      5  O   UNL     1      13.760   7.348  17.037  0.00  0.00    -0.153 OA
BRANCH   1  18
ATOM     18  C   UNL     1      15.203   7.796  19.145  0.00  0.00    +0.105 A 
ATOM     19  C   UNL     1      15.708   8.703  20.077  0.00  0.00    +0.029 A 
ATOM     20  C   UNL     1      15.839   6.570  18.951  0.00  0.00    +0.029 A 
ATOM     21  C   UNL     1      16.847   8.384  20.816  0.00  0.00    +0.005 A 
ATOM     22  C   UNL     1      16.978   6.250  19.689  0.00  0.00    +0.005 A 
ATOM     23  C   UNL     1      17.482   7.156  20.622  0.00  0.00    -0.050 A 
ATOM     24  C   UNL     1      18.701   6.815  21.411  0.00  0.00    +0.044 C 
ENDBRANCH   1  18
ENDBRANCH   7   1
ENDBRANCH  17   7
ENDBRANCH  13  17
TORSDOF 7
ENDMDL
MODEL 2
REMARK VINA RESULT:      -6.7     26.408     28.061
REMARK  Name = 75536698
REMARK  8 active torsions:
REMARK  status: ('A' for Active; 'I' for Inactive)
REMARK    1  A    between atoms: S_1  and  N_7
REMARK    2  A    between atoms: S_1  and  C_18
REMARK    3  A    between atoms: O_3  and  C_10
REMARK    4  A    between atoms: N_6  and  C_8
REMARK    5  A    between atoms: N_6  and  C_9
REMARK    6  A    between atoms: N_7  and  C_17
REMARK    7  A    between atoms: C_13  and  C_17
REMARK    8  A    between atoms: C_23  and  C_24
REMARK                            x       y       z     vdW  Elec       q    Type
REMARK                         _______ _______ _______ _____ _____    ______ ____
ROOT
ATOM      2  O   UNL     1      -5.785 -11.821  18.132  0.00  0.00    -0.371 OA
ATOM      9  C   UNL     1      -7.413 -10.243  17.424  0.00  0.00    +0.111 C 
ATOM     10  C   UNL     1      -6.082  -9.903  16.780  0.00  0.00    +0.164 C 
ATOM     13  C   UNL     1      -5.352 -11.235  16.892  0.00  0.00    +0.164 C 
ATOM     16  C   UNL     1      -6.972 -11.138  18.571  0.00  0.00    +0.181 C 
ENDROOT
BRANCH  10   3
ATOM      3  O   UNL     1      -6.216  -9.489  15.434  0.00  0.00    -0.388 OA
ATOM     26  H   UNL     1      -7.162  -9.368  15.244  0.00  0.00    +0.210 HD
ENDBRANCH  10   3
BRANCH   9   6
ATOM      6  N   UNL     1      -8.159  -9.078  17.870  0.00  0.00    -0.306 NA
ATOM     25  H   UNL     1      -7.673  -8.224  17.598  0.00  0.00    +0.123 HD
BRANCH   6   8
ATOM      8  C   UNL     1      -9.506  -9.081  17.329  0.00  0.00    +0.054 C 
ATOM     11  C   UNL     1      -9.995  -7.686  16.956  0.00  0.00    +0.019 C 
ATOM     12  C   UNL     1     -10.549  -9.531  18.344  0.00  0.00    +0.019 C 
ATOM     14  C   UNL     1     -11.510  -7.850  16.855  0.00  0.00    +0.002 C 
ATOM     15  C   UNL     1     -11.867  -9.041  17.749  0.00  0.00    +0.002 C 
ENDBRANCH   6   8
ENDBRANCH   9   6
BRANCH  13  17
ATOM     17  C   UNL     1      -3.841 -11.095  16.890  0.00  0.00    +0.140 C 
BRANCH  17   7
ATOM      7  N   UNL     1      -3.421 -10.286  15.729  0.00  0.00    -0.187 NA
ATOM     27  H   UNL     1      -4.155  -9.714  15.294  0.00  0.00    +0.148 HD
BRANCH   7   1
ATOM      1  S   UNL     1      -2.113 -10.793  14.766  0.00  0.00    +0.058 S 
ATOM      4  O   UNL     1      -2.011 -12.239  14.817  0.00  0.00    -0.153 OA
ATOM      5  O   UNL     1      -0.958  -9.969  15.068  0.00  0.00    -0.153 OA
BRANCH   1  18
ATOM     18  C   UNL     1      -2.660 -10.343  13.147  0.00  0.00    +0.105 A 
ATOM     19  C   UNL     1      -1.730  -9.973  12.175  0.00  0.00    +0.029 A 
ATOM     20  C   UNL     1      -4.021 -10.353  12.842  0.00  0.00    +0.029 A 
ATOM     21  C   UNL     1      -2.161  -9.615  10.897  0.00  0.00    +0.005 A 
ATOM     22  C   UNL     1      -4.452  -9.994  11.565  0.00  0.00    +0.005 A 
ATOM     23  C   UNL     1      -3.523  -9.626  10.593  0.00  0.00    -0.050 A 
ATOM     24  C   UNL     1      -3.983  -9.242   9.227  0.00  0.00    +0.044 C 
ENDBRANCH   1  18
ENDBRANCH   7   1
ENDBRANCH  17   7
ENDBRANCH  13  17
TORSDOF 7
ENDMDL
MODEL 3
REMARK VINA RESULT:      -6.6     26.969     29.575
REMARK  Name = 75536698
REMARK  8 active torsions:
REMARK  status: ('A' for Active; 'I' for Inactive)
REMARK    1  A    between atoms: S_1  and  N_7
REMARK    2  A    between atoms: S_1  and  C_18
REMARK    3  A    between atoms: O_3  and  C_10
REMARK    4  A    between atoms: N_6  and  C_8
REMARK    5  A    between atoms: N_6  and  C_9
REMARK    6  A    between atoms: N_7  and  C_17
REMARK    7  A    between atoms: C_13  and  C_17
REMARK    8  A    between atoms: C_23  and  C_24
REMARK                            x       y       z     vdW  Elec       q    Type
REMARK                         _______ _______ _______ _____ _____    ______ ____
ROOT
ATOM      2  O   UNL     1     -17.031   1.220  26.331  0.00  0.00    -0.371 OA
ATOM      9  C   UNL     1     -16.126   2.940  27.695  0.00  0.00    +0.111 C 
ATOM     10  C   UNL     1     -16.022   3.357  26.239  0.00  0.00    +0.164 C 
ATOM     13  C   UNL     1     -17.073   2.457  25.601  0.00  0.00    +0.164 C 
ATOM     16  C   UNL     1     -16.325   1.439  27.564  0.00  0.00    +0.181 C 
ENDROOT
BRANCH  10   3
ATOM      3  O   UNL     1     -16.313   4.727  26.042  0.00  0.00    -0.388 OA
ATOM     26  H   UNL     1     -15.713   5.071  25.358  0.00  0.00    +0.210 HD
ENDBRANCH  10   3
BRANCH   9   6
ATOM      6  N   UNL     1     -14.957   3.289  28.485  0.00  0.00    -0.306 NA
ATOM     25  H   UNL     1     -14.847   4.302  28.522  0.00  0.00    +0.123 HD
BRANCH   6   8
ATOM      8  C   UNL     1     -15.054   2.748  29.829  0.00  0.00    +0.054 C 
ATOM     11  C   UNL     1     -15.230   3.830  30.888  0.00  0.00    +0.019 C 
ATOM     12  C   UNL     1     -13.773   2.056  30.280  0.00  0.00    +0.019 C 
ATOM     14  C   UNL     1     -14.860   3.123  32.190  0.00  0.00    +0.002 C 
ATOM     15  C   UNL     1     -13.921   1.978  31.797  0.00  0.00    +0.002 C 
ENDBRANCH   6   8
ENDBRANCH   9   6
BRANCH  13  17
ATOM     17  C   UNL     1     -16.823   2.194  24.128  0.00  0.00    +0.140 C 
BRANCH  17   7
ATOM      7  N   UNL     1     -15.953   3.251  23.576  0.00  0.00    -0.187 NA
ATOM     27  H   UNL     1     -15.114   3.471  24.127  0.00  0.00    +0.148 HD
BRANCH   7   1
ATOM      1  S   UNL     1     -16.611   4.467  22.585  0.00  0.00    +0.058 S 
ATOM      4  O   UNL     1     -17.364   5.397  23.405  0.00  0.00    -0.153 OA
ATOM      5  O   UNL     1     -17.228   3.850  21.427  0.00  0.00    -0.153 OA
BRANCH   1  18
ATOM     18  C   UNL     1     -15.158   5.297  22.017  0.00  0.00    +0.105 A 
ATOM     19  C   UNL     1     -13.898   4.845  22.412  0.00  0.00    +0.029 A 
ATOM     20  C   UNL     1     -15.269   6.404  21.177  0.00  0.00    +0.029 A 
ATOM     21  C   UNL     1     -12.750   5.501  21.966  0.00  0.00    +0.005 A 
ATOM     22  C   UNL     1     -14.122   7.060  20.732  0.00  0.00    +0.005 A 
ATOM     23  C   UNL     1     -12.863   6.608  21.125  0.00  0.00    -0.050 A 
ATOM     24  C   UNL     1     -11.636   7.310  20.649  0.00  0.00    +0.044 C 
ENDBRANCH   1  18
ENDBRANCH   7   1
ENDBRANCH  17   7
ENDBRANCH  13  17
TORSDOF 7
ENDMDL
MODEL 4
REMARK VINA RESULT:      -6.6     26.752     29.675
REMARK  Name = 75536698
REMARK  8 active torsions:
REMARK  status: ('A' for Active; 'I' for Inactive)
REMARK    1  A    between atoms: S_1  and  N_7
REMARK    2  A    between atoms: S_1  and  C_18
REMARK    3  A    between atoms: O_3  and  C_10
REMARK    4  A    between atoms: N_6  and  C_8
REMARK    5  A    between atoms: N_6  and  C_9
REMARK    6  A    between atoms: N_7  and  C_17
REMARK    7  A    between atoms: C_13  and  C_17
REMARK    8  A    between atoms: C_23  and  C_24
REMARK                            x       y       z     vdW  Elec       q    Type
REMARK                         _______ _______ _______ _____ _____    ______ ____
ROOT
ATOM      2  O   UNL     1     -16.731   4.119  22.733  0.00  0.00    -0.371 OA
ATOM      9  C   UNL     1     -14.871   5.559  22.408  0.00  0.00    +0.111 C 
ATOM     10  C   UNL     1     -14.681   4.791  23.703  0.00  0.00    +0.164 C 
ATOM     13  C   UNL     1     -15.616   3.608  23.482  0.00  0.00    +0.164 C 
ATOM     16  C   UNL     1     -16.364   5.393  22.175  0.00  0.00    +0.181 C 
ENDROOT
BRANCH  10   3
ATOM      3  O   UNL     1     -13.344   4.375  23.901  0.00  0.00    -0.388 OA
ATOM     26  H   UNL     1     -12.772   4.894  23.310  0.00  0.00    +0.210 HD
ENDBRANCH  10   3
BRANCH   9   6
ATOM      6  N   UNL     1     -14.463   6.952  22.492  0.00  0.00    -0.306 NA
ATOM     25  H   UNL     1     -13.946   7.116  23.356  0.00  0.00    +0.123 HD
BRANCH   6   8
ATOM      8  C   UNL     1     -13.655   7.330  21.347  0.00  0.00    +0.054 C 
ATOM     11  C   UNL     1     -12.401   6.476  21.203  0.00  0.00    +0.019 C 
ATOM     12  C   UNL     1     -13.079   8.736  21.469  0.00  0.00    +0.019 C 
ATOM     14  C   UNL     1     -11.511   7.296  20.271  0.00  0.00    +0.002 C 
ATOM     15  C   UNL     1     -11.950   8.753  20.442  0.00  0.00    +0.002 C 
ENDBRANCH   6   8
ENDBRANCH   9   6
BRANCH  13  17
ATOM     17  C   UNL     1     -16.108   2.982  24.774  0.00  0.00    +0.140 C 
BRANCH  17   7
ATOM      7  N   UNL     1     -15.862   3.907  25.898  0.00  0.00    -0.187 NA
ATOM     27  H   UNL     1     -14.875   4.101  26.108  0.00  0.00    +0.148 HD
BRANCH   7   1
ATOM      1  S   UNL     1     -16.998   4.041  27.157  0.00  0.00    +0.058 S 
ATOM      4  O   UNL     1     -18.266   3.488  26.719  0.00  0.00    -0.153 OA
ATOM      5  O   UNL     1     -16.938   5.381  27.706  0.00  0.00    -0.153 OA
BRANCH   1  18
ATOM     18  C   UNL     1     -16.322   2.952  28.373  0.00  0.00    +0.105 A 
ATOM     19  C   UNL     1     -16.818   1.655  28.501  0.00  0.00    +0.029 A 
ATOM     20  C   UNL     1     -15.293   3.390  29.208  0.00  0.00    +0.029 A 
ATOM     21  C   UNL     1     -16.287   0.795  29.462  0.00  0.00    +0.005 A 
ATOM     22  C   UNL     1     -14.763   2.531  30.170  0.00  0.00    +0.005 A 
ATOM     23  C   UNL     1     -15.258   1.234  30.296  0.00  0.00    -0.050 A 
ATOM     24  C   UNL     1     -14.691   0.315  31.325  0.00  0.00    +0.044 C 
ENDBRANCH   1  18
ENDBRANCH   7   1
ENDBRANCH  17   7
ENDBRANCH  13  17
TORSDOF 7
ENDMDL
MODEL 5
REMARK VINA RESULT:      -6.3      4.388      7.446
REMARK  Name = 75536698
REMARK  8 active torsions:
REMARK  status: ('A' for Active; 'I' for Inactive)
REMARK    1  A    between atoms: S_1  and  N_7
REMARK    2  A    between atoms: S_1  and  C_18
REMARK    3  A    between atoms: O_3  and  C_10
REMARK    4  A    between atoms: N_6  and  C_8
REMARK    5  A    between atoms: N_6  and  C_9
REMARK    6  A    between atoms: N_7  and  C_17
REMARK    7  A    between atoms: C_13  and  C_17
REMARK    8  A    between atoms: C_23  and  C_24
REMARK                            x       y       z     vdW  Elec       q    Type
REMARK                         _______ _______ _______ _____ _____    ______ ____
ROOT
ATOM      2  O   UNL     1      13.821  11.825  17.211  0.00  0.00    -0.371 OA
ATOM      9  C   UNL     1      14.393  10.734  15.181  0.00  0.00    +0.111 C 
ATOM     10  C   UNL     1      14.287   9.699  16.285  0.00  0.00    +0.164 C 
ATOM     13  C   UNL     1      13.434  10.444  17.305  0.00  0.00    +0.164 C 
ATOM     16  C   UNL     1      14.544  12.016  15.984  0.00  0.00    +0.181 C 
ENDROOT
BRANCH  10   3
ATOM      3  O   UNL     1      13.668   8.502  15.855  0.00  0.00    -0.388 OA
ATOM     26  H   UNL     1      13.276   8.658  14.979  0.00  0.00    +0.210 HD
ENDBRANCH  10   3
BRANCH   9   6
ATOM      6  N   UNL     1      15.501  10.503  14.270  0.00  0.00    -0.306 NA
ATOM     25  H   UNL     1      15.166  10.066  13.412  0.00  0.00    +0.123 HD
BRANCH   6   8
ATOM      8  C   UNL     1      16.193  11.742  13.962  0.00  0.00    +0.054 C 
ATOM     11  C   UNL     1      16.254  12.027  12.466  0.00  0.00    +0.019 C 
ATOM     12  C   UNL     1      17.667  11.707  14.348  0.00  0.00    +0.019 C 
ATOM     14  C   UNL     1      17.364  13.068  12.343  0.00  0.00    +0.002 C 
ATOM     15  C   UNL     1      18.274  12.863  13.558  0.00  0.00    +0.002 C 
ENDBRANCH   6   8
ENDBRANCH   9   6
BRANCH  13  17
ATOM     17  C   UNL     1      13.630   9.950  18.726  0.00  0.00    +0.140 C 
BRANCH  17   7
ATOM      7  N   UNL     1      12.439   9.191  19.155  0.00  0.00    -0.187 NA
ATOM     27  H   UNL     1      11.821   9.669  19.822  0.00  0.00    +0.148 HD
BRANCH   7   1
ATOM      1  S   UNL     1      12.466   7.490  19.156  0.00  0.00    +0.058 S 
ATOM      4  O   UNL     1      12.317   7.008  17.796  0.00  0.00    -0.153 OA
ATOM      5  O   UNL     1      11.588   7.004  20.202  0.00  0.00    -0.153 OA
BRANCH   1  18
ATOM     18  C   UNL     1      14.122   7.154  19.673  0.00  0.00    +0.105 A 
ATOM     19  C   UNL     1      15.087   6.794  18.732  0.00  0.00    +0.029 A 
ATOM     20  C   UNL     1      14.465   7.246  21.022  0.00  0.00    +0.029 A 
ATOM     21  C   UNL     1      16.394   6.526  19.139  0.00  0.00    +0.005 A 
ATOM     22  C   UNL     1      15.772   6.978  21.429  0.00  0.00    +0.005 A 
ATOM     23  C   UNL     1      16.736   6.619  20.488  0.00  0.00    -0.050 A 
ATOM     24  C   UNL     1      18.133   6.332  20.924  0.00  0.00    +0.044 C 
ENDBRANCH   1  18
ENDBRANCH   7   1
ENDBRANCH  17   7
ENDBRANCH  13  17
TORSDOF 7
ENDMDL
MODEL 6
REMARK VINA RESULT:      -6.2     25.883     28.818
REMARK  Name = 75536698
REMARK  8 active torsions:
REMARK  status: ('A' for Active; 'I' for Inactive)
REMARK    1  A    between atoms: S_1  and  N_7
REMARK    2  A    between atoms: S_1  and  C_18
REMARK    3  A    between atoms: O_3  and  C_10
REMARK    4  A    between atoms: N_6  and  C_8
REMARK    5  A    between atoms: N_6  and  C_9
REMARK    6  A    between atoms: N_7  and  C_17
REMARK    7  A    between atoms: C_13  and  C_17
REMARK    8  A    between atoms: C_23  and  C_24
REMARK                            x       y       z     vdW  Elec       q    Type
REMARK                         _______ _______ _______ _____ _____    ______ ____
ROOT
ATOM      2  O   UNL     1     -15.469   6.567  21.415  0.00  0.00    -0.371 OA
ATOM      9  C   UNL     1     -13.348   7.283  20.622  0.00  0.00    +0.111 C 
ATOM     10  C   UNL     1     -13.144   6.322  21.778  0.00  0.00    +0.164 C 
ATOM     13  C   UNL     1     -14.482   5.593  21.792  0.00  0.00    +0.164 C 
ATOM     16  C   UNL     1     -14.798   7.693  20.823  0.00  0.00    +0.181 C 
ENDROOT
BRANCH  10   3
ATOM      3  O   UNL     1     -12.063   5.435  21.567  0.00  0.00    -0.388 OA
ATOM     26  H   UNL     1     -11.445   5.849  20.942  0.00  0.00    +0.210 HD
ENDBRANCH  10   3
BRANCH   9   6
ATOM      6  N   UNL     1     -12.434   8.414  20.636  0.00  0.00    -0.306 NA
ATOM     25  H   UNL     1     -12.047   8.542  21.571  0.00  0.00    +0.123 HD
BRANCH   6   8
ATOM      8  C   UNL     1     -11.363   8.232  19.673  0.00  0.00    +0.054 C 
ATOM     11  C   UNL     1     -10.666   9.539  19.313  0.00  0.00    +0.019 C 
ATOM     12  C   UNL     1     -11.864   7.746  18.318  0.00  0.00    +0.019 C 
ATOM     14  C   UNL     1      -9.933   9.211  18.015  0.00  0.00    +0.002 C 
ATOM     15  C   UNL     1     -10.705   8.054  17.374  0.00  0.00    +0.002 C 
ENDBRANCH   6   8
ENDBRANCH   9   6
BRANCH  13  17
ATOM     17  C   UNL     1     -14.831   5.005  23.147  0.00  0.00    +0.140 C 
BRANCH  17   7
ATOM      7  N   UNL     1     -15.194   3.583  22.991  0.00  0.00    -0.187 NA
ATOM     27  H   UNL     1     -14.650   3.056  22.297  0.00  0.00    +0.148 HD
BRANCH   7   1
ATOM      1  S   UNL     1     -16.776   3.063  23.341  0.00  0.00    +0.058 S 
ATOM      4  O   UNL     1     -17.065   1.862  22.580  0.00  0.00    -0.153 OA
ATOM      5  O   UNL     1     -17.672   4.201  23.276  0.00  0.00    -0.153 OA
BRANCH   1  18
ATOM     18  C   UNL     1     -16.640   2.608  25.043  0.00  0.00    +0.105 A 
ATOM     19  C   UNL     1     -16.880   1.291  25.434  0.00  0.00    +0.029 A 
ATOM     20  C   UNL     1     -16.296   3.566  25.997  0.00  0.00    +0.029 A 
ATOM     21  C   UNL     1     -16.775   0.931  26.778  0.00  0.00    +0.005 A 
ATOM     22  C   UNL     1     -16.193   3.207  27.340  0.00  0.00    +0.005 A 
ATOM     23  C   UNL     1     -16.431   1.890  27.731  0.00  0.00    -0.050 A 
ATOM     24  C   UNL     1     -16.320   1.506  29.168  0.00  0.00    +0.044 C 
ENDBRANCH   1  18
ENDBRANCH   7   1
ENDBRANCH  17   7
ENDBRANCH  13  17
TORSDOF 7
ENDMDL
MODEL 7
REMARK VINA RESULT:      -6.2     27.550     30.389
REMARK  Name = 75536698
REMARK  8 active torsions:
REMARK  status: ('A' for Active; 'I' for Inactive)
REMARK    1  A    between atoms: S_1  and  N_7
REMARK    2  A    between atoms: S_1  and  C_18
REMARK    3  A    between atoms: O_3  and  C_10
REMARK    4  A    between atoms: N_6  and  C_8
REMARK    5  A    between atoms: N_6  and  C_9
REMARK    6  A    between atoms: N_7  and  C_17
REMARK    7  A    between atoms: C_13  and  C_17
REMARK    8  A    between atoms: C_23  and  C_24
REMARK                            x       y       z     vdW  Elec       q    Type
REMARK                         _______ _______ _______ _____ _____    ______ ____
ROOT
ATOM      2  O   UNL     1     -18.747   4.419  23.492  0.00  0.00    -0.371 OA
ATOM      9  C   UNL     1     -16.442   4.895  23.171  0.00  0.00    +0.111 C 
ATOM     10  C   UNL     1     -16.581   3.801  24.213  0.00  0.00    +0.164 C 
ATOM     13  C   UNL     1     -17.978   3.277  23.905  0.00  0.00    +0.164 C 
ATOM     16  C   UNL     1     -17.842   5.489  23.171  0.00  0.00    +0.181 C 
ENDROOT
BRANCH  10   3
ATOM      3  O   UNL     1     -15.599   2.792  24.078  0.00  0.00    -0.388 OA
ATOM     26  H   UNL     1     -14.769   3.208  23.792  0.00  0.00    +0.210 HD
ENDBRANCH  10   3
BRANCH   9   6
ATOM      6  N   UNL     1     -15.413   5.872  23.485  0.00  0.00    -0.306 NA
ATOM     25  H   UNL     1     -14.804   5.517  24.222  0.00  0.00    +0.123 HD
BRANCH   6   8
ATOM      8  C   UNL     1     -14.632   6.205  22.308  0.00  0.00    +0.054 C 
ATOM     11  C   UNL     1     -13.322   5.430  22.231  0.00  0.00    +0.019 C 
ATOM     12  C   UNL     1     -14.154   7.653  22.307  0.00  0.00    +0.019 C 
ATOM     14  C   UNL     1     -12.490   6.227  21.229  0.00  0.00    +0.002 C 
ATOM     15  C   UNL     1     -13.028   7.660  21.277  0.00  0.00    +0.002 C 
ENDBRANCH   6   8
ENDBRANCH   9   6
BRANCH  13  17
ATOM     17  C   UNL     1     -18.645   2.610  25.094  0.00  0.00    +0.140 C 
BRANCH  17   7
ATOM      7  N   UNL     1     -17.717   2.602  26.242  0.00  0.00    -0.187 NA
ATOM     27  H   UNL     1     -17.176   3.464  26.384  0.00  0.00    +0.148 HD
BRANCH   7   1
ATOM      1  S   UNL     1     -17.062   1.134  26.800  0.00  0.00    +0.058 S 
ATOM      4  O   UNL     1     -16.182   0.586  25.785  0.00  0.00    -0.153 OA
ATOM      5  O   UNL     1     -18.128   0.323  27.356  0.00  0.00    -0.153 OA
BRANCH   1  18
ATOM     18  C   UNL     1     -16.062   1.675  28.153  0.00  0.00    +0.105 A 
ATOM     19  C   UNL     1     -15.617   0.754  29.102  0.00  0.00    +0.029 A 
ATOM     20  C   UNL     1     -15.722   3.022  28.275  0.00  0.00    +0.029 A 
ATOM     21  C   UNL     1     -14.830   1.180  30.172  0.00  0.00    +0.005 A 
ATOM     22  C   UNL     1     -14.936   3.448  29.346  0.00  0.00    +0.005 A 
ATOM     23  C   UNL     1     -14.489   2.527  30.293  0.00  0.00    -0.050 A 
ATOM     24  C   UNL     1     -13.649   2.983  31.438  0.00  0.00    +0.044 C 
ENDBRANCH   1  18
ENDBRANCH   7   1
ENDBRANCH  17   7
ENDBRANCH  13  17
TORSDOF 7
ENDMDL
MODEL 8
REMARK VINA RESULT:      -6.1     26.732     29.530
REMARK  Name = 75536698
REMARK  8 active torsions:
REMARK  status: ('A' for Active; 'I' for Inactive)
REMARK    1  A    between atoms: S_1  and  N_7
REMARK    2  A    between atoms: S_1  and  C_18
REMARK    3  A    between atoms: O_3  and  C_10
REMARK    4  A    between atoms: N_6  and  C_8
REMARK    5  A    between atoms: N_6  and  C_9
REMARK    6  A    between atoms: N_7  and  C_17
REMARK    7  A    between atoms: C_13  and  C_17
REMARK    8  A    between atoms: C_23  and  C_24
REMARK                            x       y       z     vdW  Elec       q    Type
REMARK                         _______ _______ _______ _____ _____    ______ ____
ROOT
ATOM      2  O   UNL     1      -4.816 -11.701  19.639  0.00  0.00    -0.371 OA
ATOM      9  C   UNL     1      -4.140 -11.508  17.370  0.00  0.00    +0.111 C 
ATOM     10  C   UNL     1      -5.541 -10.944  17.519  0.00  0.00    +0.164 C 
ATOM     13  C   UNL     1      -5.586 -10.660  19.014  0.00  0.00    +0.164 C 
ATOM     16  C   UNL     1      -4.019 -12.348  18.632  0.00  0.00    +0.181 C 
ENDROOT
BRANCH  10   3
ATOM      3  O   UNL     1      -5.741  -9.771  16.754  0.00  0.00    -0.388 OA
ATOM     26  H   UNL     1      -5.946 -10.032  15.841  0.00  0.00    +0.210 HD
ENDBRANCH  10   3
BRANCH   9   6
ATOM      6  N   UNL     1      -3.950 -12.282  16.155  0.00  0.00    -0.306 NA
ATOM     25  H   UNL     1      -4.797 -12.261  15.587  0.00  0.00    +0.123 HD
BRANCH   6   8
ATOM      8  C   UNL     1      -2.822 -11.783  15.388  0.00  0.00    +0.054 C 
ATOM     11  C   UNL     1      -2.054 -10.686  16.117  0.00  0.00    +0.019 C 
ATOM     12  C   UNL     1      -3.245 -11.085  14.102  0.00  0.00    +0.019 C 
ATOM     14  C   UNL     1      -1.245 -10.016  15.008  0.00  0.00    +0.002 C 
ATOM     15  C   UNL     1      -2.013 -10.275  13.709  0.00  0.00    +0.002 C 
ENDBRANCH   6   8
ENDBRANCH   9   6
BRANCH  13  17
ATOM     17  C   UNL     1      -6.994 -10.651  19.582  0.00  0.00    +0.140 C 
BRANCH  17   7
ATOM      7  N   UNL     1      -7.965 -10.917  18.502  0.00  0.00    -0.187 NA
ATOM     27  H   UNL     1      -7.678 -10.620  17.561  0.00  0.00    +0.148 HD
BRANCH   7   1
ATOM      1  S   UNL     1      -9.628 -11.001  18.852  0.00  0.00    +0.058 S 
ATOM      4  O   UNL     1      -9.833 -10.755  20.266  0.00  0.00    -0.153 OA
ATOM      5  O   UNL     1     -10.181 -12.188  18.230  0.00  0.00    -0.153 OA
BRANCH   1  18
ATOM     18  C   UNL     1     -10.255  -9.609  17.961  0.00  0.00    +0.105 A 
ATOM     19  C   UNL     1      -9.373  -8.696  17.383  0.00  0.00    +0.029 A 
ATOM     20  C   UNL     1     -11.632  -9.422  17.839  0.00  0.00    +0.029 A 
ATOM     21  C   UNL     1      -9.868  -7.596  16.682  0.00  0.00    +0.005 A 
ATOM     22  C   UNL     1     -12.126  -8.321  17.139  0.00  0.00    +0.005 A 
ATOM     23  C   UNL     1     -11.245  -7.409  16.560  0.00  0.00    -0.050 A 
ATOM     24  C   UNL     1     -11.773  -6.232  15.812  0.00  0.00    +0.044 C 
ENDBRANCH   1  18
ENDBRANCH   7   1
ENDBRANCH  17   7
ENDBRANCH  13  17
TORSDOF 7
ENDMDL
MODEL 9
REMARK VINA RESULT:      -6.0     26.935     29.295
REMARK  Name = 75536698
REMARK  8 active torsions:
REMARK  status: ('A' for Active; 'I' for Inactive)
REMARK    1  A    between atoms: S_1  and  N_7
REMARK    2  A    between atoms: S_1  and  C_18
REMARK    3  A    between atoms: O_3  and  C_10
REMARK    4  A    between atoms: N_6  and  C_8
REMARK    5  A    between atoms: N_6  and  C_9
REMARK    6  A    between atoms: N_7  and  C_17
REMARK    7  A    between atoms: C_13  and  C_17
REMARK    8  A    between atoms: C_23  and  C_24
REMARK                            x       y       z     vdW  Elec       q    Type
REMARK                         _______ _______ _______ _____ _____    ______ ____
ROOT
ATOM      2  O   UNL     1      -2.859 -11.061  17.186  0.00  0.00    -0.371 OA
ATOM      9  C   UNL     1      -3.541 -10.832  14.923  0.00  0.00    +0.111 C 
ATOM     10  C   UNL     1      -4.570 -11.663  15.668  0.00  0.00    +0.164 C 
ATOM     13  C   UNL     1      -4.280 -11.265  17.109  0.00  0.00    +0.164 C 
ATOM     16  C   UNL     1      -2.341 -10.937  15.850  0.00  0.00    +0.181 C 
ENDROOT
BRANCH  10   3
ATOM      3  O   UNL     1      -5.898 -11.351  15.293  0.00  0.00    -0.388 OA
ATOM     26  H   UNL     1      -6.489 -12.024  15.671  0.00  0.00    +0.210 HD
ENDBRANCH  10   3
BRANCH   9   6
ATOM      6  N   UNL     1      -3.263 -11.317  13.580  0.00  0.00    -0.306 NA
ATOM     25  H   UNL     1      -3.879 -12.097  13.353  0.00  0.00    +0.123 HD
BRANCH   6   8
ATOM      8  C   UNL     1      -3.416 -10.257  12.600  0.00  0.00    +0.054 C 
ATOM     11  C   UNL     1      -4.682 -10.405  11.765  0.00  0.00    +0.019 C 
ATOM     12  C   UNL     1      -2.322 -10.272  11.539  0.00  0.00    +0.019 C 
ATOM     14  C   UNL     1      -4.424  -9.508  10.556  0.00  0.00    +0.002 C 
ATOM     15  C   UNL     1      -2.901  -9.421  10.412  0.00  0.00    +0.002 C 
ENDBRANCH   6   8
ENDBRANCH   9   6
BRANCH  13  17
ATOM     17  C   UNL     1      -4.704 -12.315  18.119  0.00  0.00    +0.140 C 
BRANCH  17   7
ATOM      7  N   UNL     1      -6.177 -12.418  18.138  0.00  0.00    -0.187 NA
ATOM     27  H   UNL     1      -6.637 -12.401  17.219  0.00  0.00    +0.148 HD
BRANCH   7   1
ATOM      1  S   UNL     1      -7.053 -11.875  19.491  0.00  0.00    +0.058 S 
ATOM      4  O   UNL     1      -6.164 -11.145  20.376  0.00  0.00    -0.153 OA
ATOM      5  O   UNL     1      -7.856 -12.968  20.004  0.00  0.00    -0.153 OA
BRANCH   1  18
ATOM     18  C   UNL     1      -8.166 -10.714  18.760  0.00  0.00    +0.105 A 
ATOM     19  C   UNL     1      -9.502 -10.681  19.160  0.00  0.00    +0.029 A 
ATOM     20  C   UNL     1      -7.711  -9.832  17.779  0.00  0.00    +0.029 A 
ATOM     21  C   UNL     1     -10.382  -9.767  18.582  0.00  0.00    +0.005 A 
ATOM     22  C   UNL     1      -8.591  -8.919  17.200  0.00  0.00    +0.005 A 
ATOM     23  C   UNL     1      -9.926  -8.886  17.601  0.00  0.00    -0.050 A 
ATOM     24  C   UNL     1     -10.868  -7.909  16.982  0.00  0.00    +0.044 C 
ENDBRANCH   1  18
ENDBRANCH   7   1
ENDBRANCH  17   7
ENDBRANCH  13  17
TORSDOF 7
ENDMDL
MODEL 10
REMARK VINA RESULT:      -5.9     28.147     30.475
REMARK  Name = 75536698
REMARK  8 active torsions:
REMARK  status: ('A' for Active; 'I' for Inactive)
REMARK    1  A    between atoms: S_1  and  N_7
REMARK    2  A    between atoms: S_1  and  C_18
REMARK    3  A    between atoms: O_3  and  C_10
REMARK    4  A    between atoms: N_6  and  C_8
REMARK    5  A    between atoms: N_6  and  C_9
REMARK    6  A    between atoms: N_7  and  C_17
REMARK    7  A    between atoms: C_13  and  C_17
REMARK    8  A    between atoms: C_23  and  C_24
REMARK                            x       y       z     vdW  Elec       q    Type
REMARK                         _______ _______ _______ _____ _____    ______ ____
ROOT
ATOM      2  O   UNL     1     -10.243 -10.298  15.484  0.00  0.00    -0.371 OA
ATOM      9  C   UNL     1      -9.170  -9.365  17.386  0.00  0.00    +0.111 C 
ATOM     10  C   UNL     1      -9.649  -8.241  16.488  0.00  0.00    +0.164 C 
ATOM     13  C   UNL     1     -10.717  -8.954  15.669  0.00  0.00    +0.164 C 
ATOM     16  C   UNL     1      -9.186 -10.545  16.427  0.00  0.00    +0.181 C 
ENDROOT
BRANCH  10   3
ATOM      3  O   UNL     1     -10.182  -7.151  17.215  0.00  0.00    -0.388 OA
ATOM     26  H   UNL     1      -9.478  -6.780  17.772  0.00  0.00    +0.210 HD
ENDBRANCH  10   3
BRANCH   9   6
ATOM      6  N   UNL     1      -7.859  -9.128  17.969  0.00  0.00    -0.306 NA
ATOM     25  H   UNL     1      -7.918  -9.150  18.987  0.00  0.00    +0.123 HD
BRANCH   6   8
ATOM      8  C   UNL     1      -6.895 -10.108  17.503  0.00  0.00    +0.054 C 
ATOM     11  C   UNL     1      -5.994 -10.625  18.619  0.00  0.00    +0.019 C 
ATOM     12  C   UNL     1      -5.890  -9.524  16.517  0.00  0.00    +0.019 C 
ATOM     14  C   UNL     1      -4.819 -11.252  17.872  0.00  0.00    +0.002 C 
ATOM     15  C   UNL     1      -4.753 -10.542  16.516  0.00  0.00    +0.002 C 
ENDBRANCH   6   8
ENDBRANCH   9   6
BRANCH  13  17
ATOM     17  C   UNL     1     -10.970  -8.308  14.319  0.00  0.00    +0.140 C 
BRANCH  17   7
ATOM      7  N   UNL     1     -12.401  -7.973  14.190  0.00  0.00    -0.187 NA
ATOM     27  H   UNL     1     -12.934  -8.539  13.518  0.00  0.00    +0.148 HD
BRANCH   7   1
ATOM      1  S   UNL     1     -12.942  -6.395  14.525  0.00  0.00    +0.058 S 
ATOM      4  O   UNL     1     -12.119  -5.817  15.570  0.00  0.00    -0.153 OA
ATOM      5  O   UNL     1     -14.386  -6.409  14.658  0.00  0.00    -0.153 OA
BRANCH   1  18
ATOM     18  C   UNL     1     -12.570  -5.557  13.014  0.00  0.00    +0.105 A 
ATOM     19  C   UNL     1     -12.383  -4.175  13.011  0.00  0.00    +0.029 A 
ATOM     20  C   UNL     1     -12.467  -6.276  11.823  0.00  0.00    +0.029 A 
ATOM     21  C   UNL     1     -12.092  -3.511  11.819  0.00  0.00    +0.005 A 
ATOM     22  C   UNL     1     -12.176  -5.614  10.631  0.00  0.00    +0.005 A 
ATOM     23  C   UNL     1     -11.988  -4.232  10.629  0.00  0.00    -0.050 A 
ATOM     24  C   UNL     1     -11.678  -3.523   9.354  0.00  0.00    +0.044 C 
ENDBRANCH   1  18
ENDBRANCH   7   1
ENDBRANCH  17   7
ENDBRANCH  13  17
TORSDOF 7
ENDMDL
