MODEL 1
REMARK VINA RESULT:      -6.8      0.000      0.000
REMARK  Name = 45783354
REMARK  9 active torsions:
REMARK  status: ('A' for Active; 'I' for Inactive)
REMARK    1  A    between atoms: O_4  and  C_27
REMARK    2  A    between atoms: O_4  and  C_29
REMARK    3  A    between atoms: O_5  and  C_30
REMARK    4  A    between atoms: O_5  and  C_31
REMARK    5  A    between atoms: N_6  and  C_14
REMARK    6  A    between atoms: C_10  and  C_15
REMARK    7  A    between atoms: C_14  and  C_16
REMARK    8  A    between atoms: C_19  and  C_23
REMARK    9  A    between atoms: C_29  and  C_30
REMARK                            x       y       z     vdW  Elec       q    Type
REMARK                         _______ _______ _______ _____ _____    ______ ____
ROOT
ATOM      1  O   UNL     1      14.465   6.749  19.842  0.00  0.00    -0.336 OA
ATOM      7  N   UNL     1      15.661   8.016  21.250  0.00  0.00    -0.190 NA
ATOM      8  N   UNL     1      15.799   6.350  19.688  0.00  0.00    -0.056 NA
ATOM     15  C   UNL     1      14.473   7.732  20.780  0.00  0.00    +0.245 A 
ATOM     19  C   UNL     1      16.442   7.143  20.550  0.00  0.00    +0.202 A 
ENDROOT
BRANCH  19  23
ATOM      9  N   UNL     1      20.634   6.983  21.093  0.00  0.00    -0.221 NA
ATOM     23  C   UNL     1      17.865   7.089  20.735  0.00  0.00    +0.029 A 
ATOM     25  C   UNL     1      18.569   5.939  20.394  0.00  0.00    +0.079 A 
ATOM     26  C   UNL     1      18.543   8.186  21.254  0.00  0.00    +0.031 A 
ATOM     27  C   UNL     1      19.940   5.937  20.591  0.00  0.00    +0.215 A 
ATOM     28  C   UNL     1      19.915   8.083  21.412  0.00  0.00    +0.115 A 
BRANCH  27   4
ATOM      4  O   UNL     1      20.657   4.816  20.263  0.00  0.00    -0.474 OA
BRANCH   4  29
ATOM     29  C   UNL     1      22.050   4.841  20.551  0.00  0.00    +0.258 C 
BRANCH  29  30
ATOM     30  C   UNL     1      22.408   3.615  21.369  0.00  0.00    +0.200 C 
BRANCH  30   5
ATOM      5  O   UNL     1      23.235   4.008  22.457  0.00  0.00    -0.380 OA
ATOM     31  C   UNL     1      23.888   5.243  22.194  0.00  0.00    +0.194 C 
ENDBRANCH  30   5
ENDBRANCH  29  30
ENDBRANCH   4  29
ENDBRANCH  27   4
ENDBRANCH  19  23
BRANCH  15  10
ATOM      6  N   UNL     1      12.344   8.707  19.939  0.00  0.00    -0.287 NA
ATOM     10  C   UNL     1      13.132   8.339  21.133  0.00  0.00    +0.146 C 
ATOM     11  C   UNL     1      12.226   7.370  21.915  0.00  0.00    +0.030 C 
ATOM     12  C   UNL     1      10.932   7.302  21.118  0.00  0.00    +0.017 C 
ATOM     13  C   UNL     1      10.936   8.591  20.321  0.00  0.00    +0.085 C 
BRANCH   6  14
ATOM     14  C   UNL     1      12.664  10.032  19.424  0.00  0.00    +0.120 C 
BRANCH  14  16
ATOM      2  O   UNL     1      15.550  11.833  15.828  0.00  0.00    -0.453 OA
ATOM      3  O   UNL     1      15.219   9.897  14.431  0.00  0.00    -0.453 OA
ATOM     16  C   UNL     1      13.333   9.962  18.076  0.00  0.00    -0.030 A 
ATOM     17  C   UNL     1      14.141  11.019  17.650  0.00  0.00    +0.054 A 
ATOM     18  C   UNL     1      13.141   8.834  17.260  0.00  0.00    +0.009 A 
ATOM     20  C   UNL     1      14.736  10.910  16.408  0.00  0.00    +0.167 A 
ATOM     21  C   UNL     1      13.754   8.748  16.008  0.00  0.00    +0.050 A 
ATOM     22  C   UNL     1      14.547   9.804  15.611  0.00  0.00    +0.166 A 
ATOM     24  C   UNL     1      15.853  11.185  14.576  0.00  0.00    +0.466 C 
ENDBRANCH  14  16
ENDBRANCH   6  14
ENDBRANCH  15  10
TORSDOF 8
ENDMDL
MODEL 2
REMARK VINA RESULT:      -6.5     26.494     30.013
REMARK  Name = 45783354
REMARK  9 active torsions:
REMARK  status: ('A' for Active; 'I' for Inactive)
REMARK    1  A    between atoms: O_4  and  C_27
REMARK    2  A    between atoms: O_4  and  C_29
REMARK    3  A    between atoms: O_5  and  C_30
REMARK    4  A    between atoms: O_5  and  C_31
REMARK    5  A    between atoms: N_6  and  C_14
REMARK    6  A    between atoms: C_10  and  C_15
REMARK    7  A    between atoms: C_14  and  C_16
REMARK    8  A    between atoms: C_19  and  C_23
REMARK    9  A    between atoms: C_29  and  C_30
REMARK                            x       y       z     vdW  Elec       q    Type
REMARK                         _______ _______ _______ _____ _____    ______ ____
ROOT
ATOM      1  O   UNL     1      -4.075 -11.407  17.882  0.00  0.00    -0.336 OA
ATOM      7  N   UNL     1      -5.377 -10.564  16.266  0.00  0.00    -0.190 NA
ATOM      8  N   UNL     1      -5.297 -11.096  18.489  0.00  0.00    -0.056 NA
ATOM     15  C   UNL     1      -4.207 -11.063  16.574  0.00  0.00    +0.245 A 
ATOM     19  C   UNL     1      -6.012 -10.603  17.473  0.00  0.00    +0.202 A 
ENDROOT
BRANCH  19  23
ATOM      9  N   UNL     1      -9.990  -9.243  17.935  0.00  0.00    -0.221 NA
ATOM     23  C   UNL     1      -7.362 -10.142  17.630  0.00  0.00    +0.029 A 
ATOM     25  C   UNL     1      -7.851  -9.127  16.814  0.00  0.00    +0.079 A 
ATOM     26  C   UNL     1      -8.184 -10.708  18.597  0.00  0.00    +0.031 A 
ATOM     27  C   UNL     1      -9.161  -8.716  17.007  0.00  0.00    +0.215 A 
ATOM     28  C   UNL     1      -9.479 -10.228  18.708  0.00  0.00    +0.115 A 
BRANCH  27   4
ATOM      4  O   UNL     1      -9.666  -7.718  16.216  0.00  0.00    -0.474 OA
BRANCH   4  29
ATOM     29  C   UNL     1     -11.077  -7.534  16.244  0.00  0.00    +0.258 C 
BRANCH  29  30
ATOM     30  C   UNL     1     -11.381  -6.047  16.251  0.00  0.00    +0.200 C 
BRANCH  30   5
ATOM      5  O   UNL     1     -12.549  -5.810  15.475  0.00  0.00    -0.380 OA
ATOM     31  C   UNL     1     -12.222  -5.406  14.152  0.00  0.00    +0.194 C 
ENDBRANCH  30   5
ENDBRANCH  29  30
ENDBRANCH   4  29
ENDBRANCH  27   4
ENDBRANCH  19  23
BRANCH  15  10
ATOM      6  N   UNL     1      -3.163 -10.721  14.341  0.00  0.00    -0.287 NA
ATOM     10  C   UNL     1      -3.003 -11.304  15.688  0.00  0.00    +0.146 C 
ATOM     11  C   UNL     1      -1.717 -10.662  16.241  0.00  0.00    +0.030 C 
ATOM     12  C   UNL     1      -1.195  -9.782  15.116  0.00  0.00    +0.017 C 
ATOM     13  C   UNL     1      -1.818 -10.386  13.873  0.00  0.00    +0.085 C 
BRANCH   6  14
ATOM     14  C   UNL     1      -3.863 -11.600  13.413  0.00  0.00    +0.120 C 
BRANCH  14  16
ATOM      2  O   UNL     1      -4.318 -10.681   8.571  0.00  0.00    -0.453 OA
ATOM      3  O   UNL     1      -5.866  -8.871   8.940  0.00  0.00    -0.453 OA
ATOM     16  C   UNL     1      -4.419 -10.844  12.235  0.00  0.00    -0.030 A 
ATOM     17  C   UNL     1      -4.036 -11.200  10.940  0.00  0.00    +0.054 A 
ATOM     18  C   UNL     1      -5.322  -9.788  12.450  0.00  0.00    +0.009 A 
ATOM     20  C   UNL     1      -4.574 -10.481   9.892  0.00  0.00    +0.167 A 
ATOM     21  C   UNL     1      -5.853  -9.076  11.372  0.00  0.00    +0.050 A 
ATOM     22  C   UNL     1      -5.458  -9.447  10.103  0.00  0.00    +0.166 A 
ATOM     24  C   UNL     1      -5.140  -9.658   7.973  0.00  0.00    +0.466 C 
ENDBRANCH  14  16
ENDBRANCH   6  14
ENDBRANCH  15  10
TORSDOF 8
ENDMDL
MODEL 3
REMARK VINA RESULT:      -6.4      2.984      7.270
REMARK  Name = 45783354
REMARK  9 active torsions:
REMARK  status: ('A' for Active; 'I' for Inactive)
REMARK    1  A    between atoms: O_4  and  C_27
REMARK    2  A    between atoms: O_4  and  C_29
REMARK    3  A    between atoms: O_5  and  C_30
REMARK    4  A    between atoms: O_5  and  C_31
REMARK    5  A    between atoms: N_6  and  C_14
REMARK    6  A    between atoms: C_10  and  C_15
REMARK    7  A    between atoms: C_14  and  C_16
REMARK    8  A    between atoms: C_19  and  C_23
REMARK    9  A    between atoms: C_29  and  C_30
REMARK                            x       y       z     vdW  Elec       q    Type
REMARK                         _______ _______ _______ _____ _____    ______ ____
ROOT
ATOM      1  O   UNL     1      13.525   8.179  15.906  0.00  0.00    -0.336 OA
ATOM      7  N   UNL     1      14.132   9.819  17.306  0.00  0.00    -0.190 NA
ATOM      8  N   UNL     1      14.304   9.066  15.153  0.00  0.00    -0.056 NA
ATOM     15  C   UNL     1      13.474   8.696  17.162  0.00  0.00    +0.245 A 
ATOM     19  C   UNL     1      14.625  10.006  16.048  0.00  0.00    +0.202 A 
ENDROOT
BRANCH  19  23
ATOM      9  N   UNL     1      17.004  13.363  15.067  0.00  0.00    -0.221 NA
ATOM     23  C   UNL     1      15.432  11.145  15.715  0.00  0.00    +0.029 A 
ATOM     25  C   UNL     1      16.162  11.160  14.532  0.00  0.00    +0.079 A 
ATOM     26  C   UNL     1      15.486  12.236  16.575  0.00  0.00    +0.031 A 
ATOM     27  C   UNL     1      16.926  12.283  14.257  0.00  0.00    +0.215 A 
ATOM     28  C   UNL     1      16.279  13.311  16.208  0.00  0.00    +0.115 A 
BRANCH  27   4
ATOM      4  O   UNL     1      17.655  12.323  13.098  0.00  0.00    -0.474 OA
BRANCH   4  29
ATOM     29  C   UNL     1      19.060  12.503  13.231  0.00  0.00    +0.258 C 
BRANCH  29  30
ATOM     30  C   UNL     1      19.750  11.932  12.006  0.00  0.00    +0.200 C 
BRANCH  30   5
ATOM      5  O   UNL     1      20.609  10.873  12.410  0.00  0.00    -0.380 OA
ATOM     31  C   UNL     1      20.603  10.707  13.821  0.00  0.00    +0.194 C 
ENDBRANCH  30   5
ENDBRANCH  29  30
ENDBRANCH   4  29
ENDBRANCH  27   4
ENDBRANCH  19  23
BRANCH  15  10
ATOM      6  N   UNL     1      13.325   7.890  19.511  0.00  0.00    -0.287 NA
ATOM     10  C   UNL     1      12.679   7.911  18.183  0.00  0.00    +0.146 C 
ATOM     11  C   UNL     1      11.282   8.506  18.437  0.00  0.00    +0.030 C 
ATOM     12  C   UNL     1      11.212   8.733  19.940  0.00  0.00    +0.017 C 
ATOM     13  C   UNL     1      12.247   7.773  20.493  0.00  0.00    +0.085 C 
BRANCH   6  14
ATOM     14  C   UNL     1      14.314   6.830  19.654  0.00  0.00    +0.120 C 
BRANCH  14  16
ATOM      2  O   UNL     1      19.085   6.338  20.874  0.00  0.00    -0.453 OA
ATOM      3  O   UNL     1      19.316   8.680  21.395  0.00  0.00    -0.453 OA
ATOM     16  C   UNL     1      15.642   7.361  20.126  0.00  0.00    -0.030 A 
ATOM     17  C   UNL     1      16.729   6.493  20.255  0.00  0.00    +0.054 A 
ATOM     18  C   UNL     1      15.777   8.727  20.430  0.00  0.00    +0.009 A 
ATOM     20  C   UNL     1      17.926   7.026  20.688  0.00  0.00    +0.167 A 
ATOM     21  C   UNL     1      17.000   9.241  20.867  0.00  0.00    +0.050 A 
ATOM     22  C   UNL     1      18.057   8.363  20.986  0.00  0.00    +0.166 A 
ATOM     24  C   UNL     1      19.962   7.393  21.321  0.00  0.00    +0.466 C 
ENDBRANCH  14  16
ENDBRANCH   6  14
ENDBRANCH  15  10
TORSDOF 8
ENDMDL
MODEL 4
REMARK VINA RESULT:      -6.4     16.574     20.369
REMARK  Name = 45783354
REMARK  9 active torsions:
REMARK  status: ('A' for Active; 'I' for Inactive)
REMARK    1  A    between atoms: O_4  and  C_27
REMARK    2  A    between atoms: O_4  and  C_29
REMARK    3  A    between atoms: O_5  and  C_30
REMARK    4  A    between atoms: O_5  and  C_31
REMARK    5  A    between atoms: N_6  and  C_14
REMARK    6  A    between atoms: C_10  and  C_15
REMARK    7  A    between atoms: C_14  and  C_16
REMARK    8  A    between atoms: C_19  and  C_23
REMARK    9  A    between atoms: C_29  and  C_30
REMARK                            x       y       z     vdW  Elec       q    Type
REMARK                         _______ _______ _______ _____ _____    ______ ____
ROOT
ATOM      1  O   UNL     1      12.297   2.825   1.880  0.00  0.00    -0.336 OA
ATOM      7  N   UNL     1      12.002   5.007   1.466  0.00  0.00    -0.190 NA
ATOM      8  N   UNL     1      11.370   3.279   2.825  0.00  0.00    -0.056 NA
ATOM     15  C   UNL     1      12.618   3.905   1.119  0.00  0.00    +0.245 A 
ATOM     19  C   UNL     1      11.248   4.574   2.517  0.00  0.00    +0.202 A 
ENDROOT
BRANCH  19  23
ATOM      9  N   UNL     1       8.699   7.189   4.651  0.00  0.00    -0.221 NA
ATOM     23  C   UNL     1      10.382   5.461   3.241  0.00  0.00    +0.029 A 
ATOM     25  C   UNL     1      10.042   5.181   4.560  0.00  0.00    +0.079 A 
ATOM     26  C   UNL     1       9.883   6.604   2.626  0.00  0.00    +0.031 A 
ATOM     27  C   UNL     1       9.203   6.068   5.215  0.00  0.00    +0.215 A 
ATOM     28  C   UNL     1       9.053   7.428   3.368  0.00  0.00    +0.115 A 
BRANCH  27   4
ATOM      4  O   UNL     1       8.852   5.815   6.514  0.00  0.00    -0.474 OA
BRANCH   4  29
ATOM     29  C   UNL     1       9.917   5.643   7.442  0.00  0.00    +0.258 C 
BRANCH  29  30
ATOM     30  C   UNL     1       9.826   4.255   8.048  0.00  0.00    +0.200 C 
BRANCH  30   5
ATOM      5  O   UNL     1      10.118   4.335   9.438  0.00  0.00    -0.380 OA
ATOM     31  C   UNL     1       8.966   4.689  10.192  0.00  0.00    +0.194 C 
ENDBRANCH  30   5
ENDBRANCH  29  30
ENDBRANCH   4  29
ENDBRANCH  27   4
ENDBRANCH  19  23
BRANCH  15  10
ATOM      6  N   UNL     1      13.085   4.040  -1.322  0.00  0.00    -0.287 NA
ATOM     10  C   UNL     1      13.618   3.675   0.006  0.00  0.00    +0.146 C 
ATOM     11  C   UNL     1      14.891   4.526   0.164  0.00  0.00    +0.030 C 
ATOM     12  C   UNL     1      15.025   5.290  -1.145  0.00  0.00    +0.017 C 
ATOM     13  C   UNL     1      14.234   4.452  -2.129  0.00  0.00    +0.085 C 
BRANCH   6  14
ATOM     14  C   UNL     1      12.328   2.967  -1.953  0.00  0.00    +0.120 C 
BRANCH  14  16
ATOM      2  O   UNL     1       8.577   6.150  -2.498  0.00  0.00    -0.453 OA
ATOM      3  O   UNL     1       7.726   4.998  -4.436  0.00  0.00    -0.453 OA
ATOM     16  C   UNL     1      11.093   3.483  -2.644  0.00  0.00    -0.030 A 
ATOM     17  C   UNL     1      10.455   4.626  -2.157  0.00  0.00    +0.054 A 
ATOM     18  C   UNL     1      10.596   2.811  -3.774  0.00  0.00    +0.009 A 
ATOM     20  C   UNL     1       9.328   5.063  -2.825  0.00  0.00    +0.167 A 
ATOM     21  C   UNL     1       9.454   3.274  -4.432  0.00  0.00    +0.050 A 
ATOM     22  C   UNL     1       8.842   4.405  -3.931  0.00  0.00    +0.166 A 
ATOM     24  C   UNL     1       7.565   6.104  -3.524  0.00  0.00    +0.466 C 
ENDBRANCH  14  16
ENDBRANCH   6  14
ENDBRANCH  15  10
TORSDOF 8
ENDMDL
MODEL 5
REMARK VINA RESULT:      -6.3     26.428     29.844
REMARK  Name = 45783354
REMARK  9 active torsions:
REMARK  status: ('A' for Active; 'I' for Inactive)
REMARK    1  A    between atoms: O_4  and  C_27
REMARK    2  A    between atoms: O_4  and  C_29
REMARK    3  A    between atoms: O_5  and  C_30
REMARK    4  A    between atoms: O_5  and  C_31
REMARK    5  A    between atoms: N_6  and  C_14
REMARK    6  A    between atoms: C_10  and  C_15
REMARK    7  A    between atoms: C_14  and  C_16
REMARK    8  A    between atoms: C_19  and  C_23
REMARK    9  A    between atoms: C_29  and  C_30
REMARK                            x       y       z     vdW  Elec       q    Type
REMARK                         _______ _______ _______ _____ _____    ______ ____
ROOT
ATOM      1  O   UNL     1      -4.455 -12.930  15.073  0.00  0.00    -0.336 OA
ATOM      7  N   UNL     1      -4.387 -11.312  16.622  0.00  0.00    -0.190 NA
ATOM      8  N   UNL     1      -5.641 -13.044  15.809  0.00  0.00    -0.056 NA
ATOM     15  C   UNL     1      -3.775 -11.886  15.617  0.00  0.00    +0.245 A 
ATOM     19  C   UNL     1      -5.527 -12.057  16.703  0.00  0.00    +0.202 A 
ENDROOT
BRANCH  19  23
ATOM      9  N   UNL     1      -8.494 -11.272  19.613  0.00  0.00    -0.221 NA
ATOM     23  C   UNL     1      -6.534 -11.790  17.690  0.00  0.00    +0.029 A 
ATOM     25  C   UNL     1      -7.589 -10.934  17.397  0.00  0.00    +0.079 A 
ATOM     26  C   UNL     1      -6.457 -12.388  18.943  0.00  0.00    +0.031 A 
ATOM     27  C   UNL     1      -8.535 -10.708  18.384  0.00  0.00    +0.215 A 
ATOM     28  C   UNL     1      -7.454 -12.099  19.861  0.00  0.00    +0.115 A 
BRANCH  27   4
ATOM      4  O   UNL     1      -9.585  -9.869  18.120  0.00  0.00    -0.474 OA
BRANCH   4  29
ATOM     29  C   UNL     1      -9.534  -9.149  16.894  0.00  0.00    +0.258 C 
BRANCH  29  30
ATOM     30  C   UNL     1     -10.025  -7.733  17.131  0.00  0.00    +0.200 C 
BRANCH  30   5
ATOM      5  O   UNL     1     -10.182  -7.081  15.877  0.00  0.00    -0.380 OA
ATOM     31  C   UNL     1     -11.094  -5.995  15.966  0.00  0.00    +0.194 C 
ENDBRANCH  30   5
ENDBRANCH  29  30
ENDBRANCH   4  29
ENDBRANCH  27   4
ENDBRANCH  19  23
BRANCH  15  10
ATOM      6  N   UNL     1      -2.565 -10.639  13.835  0.00  0.00    -0.287 NA
ATOM     10  C   UNL     1      -2.438 -11.552  14.989  0.00  0.00    +0.146 C 
ATOM     11  C   UNL     1      -1.490 -10.825  15.960  0.00  0.00    +0.030 C 
ATOM     12  C   UNL     1      -1.089  -9.544  15.243  0.00  0.00    +0.017 C 
ATOM     13  C   UNL     1      -1.323  -9.867  13.781  0.00  0.00    +0.085 C 
BRANCH   6  14
ATOM     14  C   UNL     1      -2.837 -11.330  12.582  0.00  0.00    +0.120 C 
BRANCH  14  16
ATOM      2  O   UNL     1      -7.157  -9.418  11.106  0.00  0.00    -0.453 OA
ATOM      3  O   UNL     1      -6.149  -8.282   9.234  0.00  0.00    -0.453 OA
ATOM     16  C   UNL     1      -3.697 -10.504  11.661  0.00  0.00    -0.030 A 
ATOM     17  C   UNL     1      -5.069 -10.401  11.902  0.00  0.00    +0.054 A 
ATOM     18  C   UNL     1      -3.109  -9.841  10.569  0.00  0.00    +0.009 A 
ATOM     20  C   UNL     1      -5.815  -9.631  11.032  0.00  0.00    +0.167 A 
ATOM     21  C   UNL     1      -3.887  -9.068   9.704  0.00  0.00    +0.050 A 
ATOM     22  C   UNL     1      -5.240  -8.983   9.964  0.00  0.00    +0.166 A 
ATOM     24  C   UNL     1      -7.362  -8.561   9.964  0.00  0.00    +0.466 C 
ENDBRANCH  14  16
ENDBRANCH   6  14
ENDBRANCH  15  10
TORSDOF 8
ENDMDL
MODEL 6
REMARK VINA RESULT:      -6.2      4.679      8.351
REMARK  Name = 45783354
REMARK  9 active torsions:
REMARK  status: ('A' for Active; 'I' for Inactive)
REMARK    1  A    between atoms: O_4  and  C_27
REMARK    2  A    between atoms: O_4  and  C_29
REMARK    3  A    between atoms: O_5  and  C_30
REMARK    4  A    between atoms: O_5  and  C_31
REMARK    5  A    between atoms: N_6  and  C_14
REMARK    6  A    between atoms: C_10  and  C_15
REMARK    7  A    between atoms: C_14  and  C_16
REMARK    8  A    between atoms: C_19  and  C_23
REMARK    9  A    between atoms: C_29  and  C_30
REMARK                            x       y       z     vdW  Elec       q    Type
REMARK                         _______ _______ _______ _____ _____    ______ ____
ROOT
ATOM      1  O   UNL     1      12.470  11.054  20.074  0.00  0.00    -0.336 OA
ATOM      7  N   UNL     1      11.259  10.745  21.933  0.00  0.00    -0.190 NA
ATOM      8  N   UNL     1      12.410  12.299  20.711  0.00  0.00    -0.056 NA
ATOM     15  C   UNL     1      11.767  10.195  20.859  0.00  0.00    +0.245 A 
ATOM     19  C   UNL     1      11.680  12.036  21.800  0.00  0.00    +0.202 A 
ENDROOT
BRANCH  19  23
ATOM      9  N   UNL     1      10.714  14.997  24.661  0.00  0.00    -0.221 NA
ATOM     23  C   UNL     1      11.352  13.040  22.771  0.00  0.00    +0.029 A 
ATOM     25  C   UNL     1      12.227  13.311  23.817  0.00  0.00    +0.079 A 
ATOM     26  C   UNL     1      10.159  13.747  22.668  0.00  0.00    +0.031 A 
ATOM     27  C   UNL     1      11.864  14.290  24.729  0.00  0.00    +0.215 A 
ATOM     28  C   UNL     1       9.889  14.707  23.629  0.00  0.00    +0.115 A 
BRANCH  27   4
ATOM      4  O   UNL     1      12.709  14.575  25.768  0.00  0.00    -0.474 OA
BRANCH   4  29
ATOM     29  C   UNL     1      13.900  13.802  25.855  0.00  0.00    +0.258 C 
BRANCH  29  30
ATOM     30  C   UNL     1      14.070  13.311  27.281  0.00  0.00    +0.200 C 
BRANCH  30   5
ATOM      5  O   UNL     1      14.481  11.951  27.258  0.00  0.00    -0.380 OA
ATOM     31  C   UNL     1      14.724  11.503  25.931  0.00  0.00    +0.194 C 
ENDBRANCH  30   5
ENDBRANCH  29  30
ENDBRANCH   4  29
ENDBRANCH  27   4
ENDBRANCH  19  23
BRANCH  15  10
ATOM      6  N   UNL     1      12.953   8.030  20.547  0.00  0.00    -0.287 NA
ATOM     10  C   UNL     1      11.681   8.761  20.381  0.00  0.00    +0.146 C 
ATOM     11  C   UNL     1      10.648   7.933  21.168  0.00  0.00    +0.030 C 
ATOM     12  C   UNL     1      11.418   6.728  21.688  0.00  0.00    +0.017 C 
ATOM     13  C   UNL     1      12.599   6.624  20.744  0.00  0.00    +0.085 C 
BRANCH   6  14
ATOM     14  C   UNL     1      13.871   8.213  19.430  0.00  0.00    +0.120 C 
BRANCH  14  16
ATOM      2  O   UNL     1      18.143   8.417  21.920  0.00  0.00    -0.453 OA
ATOM      3  O   UNL     1      19.048   6.509  20.757  0.00  0.00    -0.453 OA
ATOM     16  C   UNL     1      15.258   7.729  19.759  0.00  0.00    -0.030 A 
ATOM     17  C   UNL     1      16.007   8.388  20.737  0.00  0.00    +0.054 A 
ATOM     18  C   UNL     1      15.787   6.616  19.081  0.00  0.00    +0.009 A 
ATOM     20  C   UNL     1      17.273   7.907  21.007  0.00  0.00    +0.167 A 
ATOM     21  C   UNL     1      17.071   6.150  19.373  0.00  0.00    +0.050 A 
ATOM     22  C   UNL     1      17.789   6.818  20.343  0.00  0.00    +0.166 A 
ATOM     24  C   UNL     1      19.266   7.526  21.757  0.00  0.00    +0.466 C 
ENDBRANCH  14  16
ENDBRANCH   6  14
ENDBRANCH  15  10
TORSDOF 8
ENDMDL
MODEL 7
REMARK VINA RESULT:      -6.1     27.675     30.046
REMARK  Name = 45783354
REMARK  9 active torsions:
REMARK  status: ('A' for Active; 'I' for Inactive)
REMARK    1  A    between atoms: O_4  and  C_27
REMARK    2  A    between atoms: O_4  and  C_29
REMARK    3  A    between atoms: O_5  and  C_30
REMARK    4  A    between atoms: O_5  and  C_31
REMARK    5  A    between atoms: N_6  and  C_14
REMARK    6  A    between atoms: C_10  and  C_15
REMARK    7  A    between atoms: C_14  and  C_16
REMARK    8  A    between atoms: C_19  and  C_23
REMARK    9  A    between atoms: C_29  and  C_30
REMARK                            x       y       z     vdW  Elec       q    Type
REMARK                         _______ _______ _______ _____ _____    ______ ____
ROOT
ATOM      1  O   UNL     1      -7.872  -9.917  11.520  0.00  0.00    -0.336 OA
ATOM      7  N   UNL     1      -5.899  -9.188  12.289  0.00  0.00    -0.190 NA
ATOM      8  N   UNL     1      -7.808 -10.310  12.862  0.00  0.00    -0.056 NA
ATOM     15  C   UNL     1      -6.709  -9.262  11.264  0.00  0.00    +0.245 A 
ATOM     19  C   UNL     1      -6.615  -9.845  13.246  0.00  0.00    +0.202 A 
ENDROOT
BRANCH  19  23
ATOM      9  N   UNL     1      -5.129 -10.366  17.172  0.00  0.00    -0.221 NA
ATOM     23  C   UNL     1      -6.111 -10.021  14.578  0.00  0.00    +0.029 A 
ATOM     25  C   UNL     1      -6.941  -9.807  15.673  0.00  0.00    +0.079 A 
ATOM     26  C   UNL     1      -4.790 -10.408  14.778  0.00  0.00    +0.031 A 
ATOM     27  C   UNL     1      -6.406  -9.990  16.938  0.00  0.00    +0.215 A 
ATOM     28  C   UNL     1      -4.352 -10.566  16.083  0.00  0.00    +0.115 A 
BRANCH  27   4
ATOM      4  O   UNL     1      -7.204  -9.785  18.032  0.00  0.00    -0.474 OA
BRANCH   4  29
ATOM     29  C   UNL     1      -7.018 -10.668  19.133  0.00  0.00    +0.258 C 
BRANCH  29  30
ATOM     30  C   UNL     1      -8.288 -11.473  19.341  0.00  0.00    +0.200 C 
BRANCH  30   5
ATOM      5  O   UNL     1      -9.127 -10.786  20.261  0.00  0.00    -0.380 OA
ATOM     31  C   UNL     1     -10.464 -10.707  19.786  0.00  0.00    +0.194 C 
ENDBRANCH  30   5
ENDBRANCH  29  30
ENDBRANCH   4  29
ENDBRANCH  27   4
ENDBRANCH  19  23
BRANCH  15  10
ATOM      6  N   UNL     1      -5.632  -9.567   9.041  0.00  0.00    -0.287 NA
ATOM     10  C   UNL     1      -6.531  -8.728   9.859  0.00  0.00    +0.146 C 
ATOM     11  C   UNL     1      -7.850  -8.682   9.067  0.00  0.00    +0.030 C 
ATOM     12  C   UNL     1      -7.580  -9.472   7.795  0.00  0.00    +0.017 C 
ATOM     13  C   UNL     1      -6.072  -9.415   7.654  0.00  0.00    +0.085 C 
BRANCH   6  14
ATOM     14  C   UNL     1      -4.223  -9.236   9.210  0.00  0.00    +0.120 C 
BRANCH  14  16
ATOM      2  O   UNL     1      -3.492 -13.590  11.445  0.00  0.00    -0.453 OA
ATOM      3  O   UNL     1      -1.796 -12.691  12.903  0.00  0.00    -0.453 OA
ATOM     16  C   UNL     1      -3.552 -10.134  10.215  0.00  0.00    -0.030 A 
ATOM     17  C   UNL     1      -3.915 -11.481  10.291  0.00  0.00    +0.054 A 
ATOM     18  C   UNL     1      -2.563  -9.610  11.066  0.00  0.00    +0.009 A 
ATOM     20  C   UNL     1      -3.270 -12.266  11.226  0.00  0.00    +0.167 A 
ATOM     21  C   UNL     1      -1.925 -10.426  12.003  0.00  0.00    +0.050 A 
ATOM     22  C   UNL     1      -2.303 -11.752  12.058  0.00  0.00    +0.166 A 
ATOM     24  C   UNL     1      -2.553 -13.854  12.508  0.00  0.00    +0.466 C 
ENDBRANCH  14  16
ENDBRANCH   6  14
ENDBRANCH  15  10
TORSDOF 8
ENDMDL
MODEL 8
REMARK VINA RESULT:      -6.1     27.540     29.573
REMARK  Name = 45783354
REMARK  9 active torsions:
REMARK  status: ('A' for Active; 'I' for Inactive)
REMARK    1  A    between atoms: O_4  and  C_27
REMARK    2  A    between atoms: O_4  and  C_29
REMARK    3  A    between atoms: O_5  and  C_30
REMARK    4  A    between atoms: O_5  and  C_31
REMARK    5  A    between atoms: N_6  and  C_14
REMARK    6  A    between atoms: C_10  and  C_15
REMARK    7  A    between atoms: C_14  and  C_16
REMARK    8  A    between atoms: C_19  and  C_23
REMARK    9  A    between atoms: C_29  and  C_30
REMARK                            x       y       z     vdW  Elec       q    Type
REMARK                         _______ _______ _______ _____ _____    ______ ____
ROOT
ATOM      1  O   UNL     1     -12.181  11.777  19.315  0.00  0.00    -0.336 OA
ATOM      7  N   UNL     1     -11.321  10.265  20.727  0.00  0.00    -0.190 NA
ATOM      8  N   UNL     1     -12.891  11.915  20.513  0.00  0.00    -0.056 NA
ATOM     15  C   UNL     1     -11.276  10.785  19.526  0.00  0.00    +0.245 A 
ATOM     19  C   UNL     1     -12.326  10.991  21.296  0.00  0.00    +0.202 A 
ENDROOT
BRANCH  19  23
ATOM      9  N   UNL     1     -13.562  10.329  25.287  0.00  0.00    -0.221 NA
ATOM     23  C   UNL     1     -12.745  10.766  22.650  0.00  0.00    +0.029 A 
ATOM     25  C   UNL     1     -11.947  11.190  23.707  0.00  0.00    +0.079 A 
ATOM     26  C   UNL     1     -13.951  10.124  22.909  0.00  0.00    +0.031 A 
ATOM     27  C   UNL     1     -12.396  10.948  24.996  0.00  0.00    +0.215 A 
ATOM     28  C   UNL     1     -14.311   9.932  24.233  0.00  0.00    +0.115 A 
BRANCH  27   4
ATOM      4  O   UNL     1     -11.628  11.356  26.054  0.00  0.00    -0.474 OA
BRANCH   4  29
ATOM     29  C   UNL     1     -10.677  10.423  26.551  0.00  0.00    +0.258 C 
BRANCH  29  30
ATOM     30  C   UNL     1     -11.163   9.881  27.882  0.00  0.00    +0.200 C 
BRANCH  30   5
ATOM      5  O   UNL     1     -11.686  10.953  28.656  0.00  0.00    -0.380 OA
ATOM     31  C   UNL     1     -12.984  10.654  29.150  0.00  0.00    +0.194 C 
ENDBRANCH  30   5
ENDBRANCH  29  30
ENDBRANCH   4  29
ENDBRANCH  27   4
ENDBRANCH  19  23
BRANCH  15  10
ATOM      6  N   UNL     1     -11.021   9.543  17.385  0.00  0.00    -0.287 NA
ATOM     10  C   UNL     1     -10.370  10.438  18.363  0.00  0.00    +0.146 C 
ATOM     11  C   UNL     1      -9.952  11.673  17.545  0.00  0.00    +0.030 C 
ATOM     12  C   UNL     1     -10.353  11.357  16.112  0.00  0.00    +0.017 C 
ATOM     13  C   UNL     1     -10.418   9.843  16.086  0.00  0.00    +0.085 C 
BRANCH   6  14
ATOM     14  C   UNL     1     -10.905   8.132  17.731  0.00  0.00    +0.120 C 
BRANCH  14  16
ATOM      2  O   UNL     1     -15.483   7.773  19.579  0.00  0.00    -0.453 OA
ATOM      3  O   UNL     1     -14.714   6.683  21.587  0.00  0.00    -0.453 OA
ATOM     16  C   UNL     1     -11.900   7.731  18.788  0.00  0.00    -0.030 A 
ATOM     17  C   UNL     1     -13.259   7.991  18.595  0.00  0.00    +0.054 A 
ATOM     18  C   UNL     1     -11.452   7.095  19.960  0.00  0.00    +0.009 A 
ATOM     20  C   UNL     1     -14.133   7.603  19.590  0.00  0.00    +0.167 A 
ATOM     21  C   UNL     1     -12.357   6.712  20.952  0.00  0.00    +0.050 A 
ATOM     22  C   UNL     1     -13.693   6.981  20.736  0.00  0.00    +0.166 A 
ATOM     24  C   UNL     1     -15.845   7.188  20.846  0.00  0.00    +0.466 C 
ENDBRANCH  14  16
ENDBRANCH   6  14
ENDBRANCH  15  10
TORSDOF 8
ENDMDL
MODEL 9
REMARK VINA RESULT:      -6.0      1.579      2.013
REMARK  Name = 45783354
REMARK  9 active torsions:
REMARK  status: ('A' for Active; 'I' for Inactive)
REMARK    1  A    between atoms: O_4  and  C_27
REMARK    2  A    between atoms: O_4  and  C_29
REMARK    3  A    between atoms: O_5  and  C_30
REMARK    4  A    between atoms: O_5  and  C_31
REMARK    5  A    between atoms: N_6  and  C_14
REMARK    6  A    between atoms: C_10  and  C_15
REMARK    7  A    between atoms: C_14  and  C_16
REMARK    8  A    between atoms: C_19  and  C_23
REMARK    9  A    between atoms: C_29  and  C_30
REMARK                            x       y       z     vdW  Elec       q    Type
REMARK                         _______ _______ _______ _____ _____    ______ ____
ROOT
ATOM      1  O   UNL     1      15.214   9.618  21.870  0.00  0.00    -0.336 OA
ATOM      7  N   UNL     1      15.055   7.633  20.843  0.00  0.00    -0.190 NA
ATOM      8  N   UNL     1      16.520   9.126  21.769  0.00  0.00    -0.056 NA
ATOM     15  C   UNL     1      14.413   8.678  21.301  0.00  0.00    +0.245 A 
ATOM     19  C   UNL     1      16.345   7.953  21.153  0.00  0.00    +0.202 A 
ENDROOT
BRANCH  19  23
ATOM      9  N   UNL     1      19.560   5.369  20.217  0.00  0.00    -0.221 NA
ATOM     23  C   UNL     1      17.436   7.076  20.835  0.00  0.00    +0.029 A 
ATOM     25  C   UNL     1      18.564   7.045  21.647  0.00  0.00    +0.079 A 
ATOM     26  C   UNL     1      17.367   6.255  19.715  0.00  0.00    +0.031 A 
ATOM     27  C   UNL     1      19.591   6.182  21.297  0.00  0.00    +0.215 A 
ATOM     28  C   UNL     1      18.446   5.427  19.452  0.00  0.00    +0.115 A 
BRANCH  27   4
ATOM      4  O   UNL     1      20.713   6.133  22.080  0.00  0.00    -0.474 OA
BRANCH   4  29
ATOM     29  C   UNL     1      21.898   6.703  21.537  0.00  0.00    +0.258 C 
BRANCH  29  30
ATOM     30  C   UNL     1      21.975   8.163  21.942  0.00  0.00    +0.200 C 
BRANCH  30   5
ATOM      5  O   UNL     1      22.999   8.800  21.189  0.00  0.00    -0.380 OA
ATOM     31  C   UNL     1      23.542   7.928  20.207  0.00  0.00    +0.194 C 
ENDBRANCH  30   5
ENDBRANCH  29  30
ENDBRANCH   4  29
ENDBRANCH  27   4
ENDBRANCH  19  23
BRANCH  15  10
ATOM      6  N   UNL     1      12.374   9.016  19.915  0.00  0.00    -0.287 NA
ATOM     10  C   UNL     1      12.929   8.977  21.283  0.00  0.00    +0.146 C 
ATOM     11  C   UNL     1      12.097   7.907  22.013  0.00  0.00    +0.030 C 
ATOM     12  C   UNL     1      11.063   7.444  20.996  0.00  0.00    +0.017 C 
ATOM     13  C   UNL     1      10.974   8.604  20.025  0.00  0.00    +0.085 C 
BRANCH   6  14
ATOM     14  C   UNL     1      12.515  10.316  19.273  0.00  0.00    +0.120 C 
BRANCH  14  16
ATOM      2  O   UNL     1      15.834  11.820  15.924  0.00  0.00    -0.453 OA
ATOM      3  O   UNL     1      15.263  10.050  14.390  0.00  0.00    -0.453 OA
ATOM     16  C   UNL     1      13.231  10.215  17.952  0.00  0.00    -0.030 A 
ATOM     17  C   UNL     1      14.221  11.146  17.629  0.00  0.00    +0.054 A 
ATOM     18  C   UNL     1      12.898   9.184  17.057  0.00  0.00    +0.009 A 
ATOM     20  C   UNL     1      14.852  11.012  16.408  0.00  0.00    +0.167 A 
ATOM     21  C   UNL     1      13.551   9.070  15.828  0.00  0.00    +0.050 A 
ATOM     22  C   UNL     1      14.525  10.002  15.533  0.00  0.00    +0.166 A 
ATOM     24  C   UNL     1      16.090  11.205  14.645  0.00  0.00    +0.466 C 
ENDBRANCH  14  16
ENDBRANCH   6  14
ENDBRANCH  15  10
TORSDOF 8
ENDMDL
MODEL 10
REMARK VINA RESULT:      -6.0     27.618     30.464
REMARK  Name = 45783354
REMARK  9 active torsions:
REMARK  status: ('A' for Active; 'I' for Inactive)
REMARK    1  A    between atoms: O_4  and  C_27
REMARK    2  A    between atoms: O_4  and  C_29
REMARK    3  A    between atoms: O_5  and  C_30
REMARK    4  A    between atoms: O_5  and  C_31
REMARK    5  A    between atoms: N_6  and  C_14
REMARK    6  A    between atoms: C_10  and  C_15
REMARK    7  A    between atoms: C_14  and  C_16
REMARK    8  A    between atoms: C_19  and  C_23
REMARK    9  A    between atoms: C_29  and  C_30
REMARK                            x       y       z     vdW  Elec       q    Type
REMARK                         _______ _______ _______ _____ _____    ______ ____
ROOT
ATOM      1  O   UNL     1     -11.569   7.685  20.878  0.00  0.00    -0.336 OA
ATOM      7  N   UNL     1     -13.703   8.335  21.080  0.00  0.00    -0.190 NA
ATOM      8  N   UNL     1     -12.323   6.512  21.007  0.00  0.00    -0.056 NA
ATOM     15  C   UNL     1     -12.458   8.712  20.931  0.00  0.00    +0.245 A 
ATOM     19  C   UNL     1     -13.571   6.978  21.121  0.00  0.00    +0.202 A 
ENDROOT
BRANCH  19  23
ATOM      9  N   UNL     1     -16.915   4.432  21.592  0.00  0.00    -0.221 NA
ATOM     23  C   UNL     1     -14.705   6.113  21.281  0.00  0.00    +0.029 A 
ATOM     25  C   UNL     1     -14.670   5.081  22.212  0.00  0.00    +0.079 A 
ATOM     26  C   UNL     1     -15.843   6.306  20.505  0.00  0.00    +0.031 A 
ATOM     27  C   UNL     1     -15.791   4.274  22.327  0.00  0.00    +0.215 A 
ATOM     28  C   UNL     1     -16.912   5.446  20.698  0.00  0.00    +0.115 A 
BRANCH  27   4
ATOM      4  O   UNL     1     -15.782   3.251  23.237  0.00  0.00    -0.474 OA
BRANCH   4  29
ATOM     29  C   UNL     1     -15.518   3.601  24.591  0.00  0.00    +0.258 C 
BRANCH  29  30
ATOM     30  C   UNL     1     -16.349   2.716  25.502  0.00  0.00    +0.200 C 
BRANCH  30   5
ATOM      5  O   UNL     1     -16.232   1.366  25.069  0.00  0.00    -0.380 OA
ATOM     31  C   UNL     1     -17.466   0.672  25.194  0.00  0.00    +0.194 C 
ENDBRANCH  30   5
ENDBRANCH  29  30
ENDBRANCH   4  29
ENDBRANCH  27   4
ENDBRANCH  19  23
BRANCH  15  10
ATOM      6  N   UNL     1     -12.003  10.655  19.446  0.00  0.00    -0.287 NA
ATOM     10  C   UNL     1     -11.886  10.108  20.812  0.00  0.00    +0.146 C 
ATOM     11  C   UNL     1     -12.613  11.128  21.706  0.00  0.00    +0.030 C 
ATOM     12  C   UNL     1     -13.053  12.241  20.766  0.00  0.00    +0.017 C 
ATOM     13  C   UNL     1     -12.106  12.108  19.590  0.00  0.00    +0.085 C 
BRANCH   6  14
ATOM     14  C   UNL     1     -10.903  10.267  18.573  0.00  0.00    +0.120 C 
BRANCH  14  16
ATOM      2  O   UNL     1     -10.233   7.744  14.368  0.00  0.00    -0.453 OA
ATOM      3  O   UNL     1     -12.594   7.695  13.883  0.00  0.00    -0.453 OA
ATOM     16  C   UNL     1     -11.393   9.587  17.322  0.00  0.00    -0.030 A 
ATOM     17  C   UNL     1     -10.475   8.988  16.456  0.00  0.00    +0.054 A 
ATOM     18  C   UNL     1     -12.769   9.558  17.038  0.00  0.00    +0.009 A 
ATOM     20  C   UNL     1     -10.971   8.374  15.323  0.00  0.00    +0.167 A 
ATOM     21  C   UNL     1     -13.245   8.930  15.885  0.00  0.00    +0.050 A 
ATOM     22  C   UNL     1     -12.318   8.347  15.046  0.00  0.00    +0.166 A 
ATOM     24  C   UNL     1     -11.268   7.315  13.460  0.00  0.00    +0.466 C 
ENDBRANCH  14  16
ENDBRANCH   6  14
ENDBRANCH  15  10
TORSDOF 8
ENDMDL
