MODEL 1
REMARK VINA RESULT:      -6.7      0.000      0.000
REMARK  Name = 75536760
REMARK  6 active torsions:
REMARK  status: ('A' for Active; 'I' for Inactive)
REMARK    1  A    between atoms: O_2  and  C_11
REMARK    2  A    between atoms: N_5  and  C_10
REMARK    3  A    between atoms: N_5  and  C_15
REMARK    4  A    between atoms: N_6  and  C_14
REMARK    5  A    between atoms: C_12  and  C_14
REMARK    6  A    between atoms: C_15  and  C_19
REMARK                            x       y       z     vdW  Elec       q    Type
REMARK                         _______ _______ _______ _____ _____    ______ ____
ROOT
ATOM      1  O   UNL     1      11.112   8.890  20.261  0.00  0.00    -0.371 OA
ATOM     10  C   UNL     1      12.409   6.977  19.713  0.00  0.00    +0.111 C 
ATOM     11  C   UNL     1      12.060   6.932  21.189  0.00  0.00    +0.164 C 
ATOM     12  C   UNL     1      10.857   7.864  21.235  0.00  0.00    +0.165 C 
ATOM     13  C   UNL     1      12.166   8.442  19.391  0.00  0.00    +0.181 C 
ENDROOT
BRANCH  11   2
ATOM      2  O   UNL     1      11.735   5.629  21.634  0.00  0.00    -0.388 OA
ATOM     26  H   UNL     1      12.486   5.044  21.440  0.00  0.00    +0.210 HD
ENDBRANCH  11   2
BRANCH  10   5
ATOM      5  N   UNL     1      13.767   6.551  19.420  0.00  0.00    -0.302 NA
ATOM     24  H   UNL     1      14.066   6.970  18.539  0.00  0.00    +0.123 HD
BRANCH   5  15
ATOM     15  C   UNL     1      14.686   6.963  20.474  0.00  0.00    +0.156 C 
BRANCH  15  19
ATOM      8  N   UNL     1      16.426   5.897  19.019  0.00  0.00    -0.347 N 
ATOM      9  N   UNL     1      17.166   6.799  20.910  0.00  0.00    -0.240 NA
ATOM     19  C   UNL     1      16.106   6.568  20.167  0.00  0.00    +0.121 A 
ATOM     22  C   UNL     1      17.776   5.686  19.032  0.00  0.00    +0.104 A 
ATOM     23  C   UNL     1      18.210   6.251  20.208  0.00  0.00    +0.130 A 
ATOM     27  H   UNL     1      15.784   5.610  18.294  0.00  0.00    +0.167 HD
ENDBRANCH  15  19
ENDBRANCH   5  15
ENDBRANCH  10   5
BRANCH  12  14
ATOM     14  C   UNL     1      10.638   8.494  22.599  0.00  0.00    +0.140 C 
BRANCH  14   6
ATOM      3  O   UNL     1      14.712  12.910  24.857  0.00  0.00    -0.377 OA
ATOM      4  O   UNL     1      10.269  11.040  23.743  0.00  0.00    -0.253 OA
ATOM      6  N   UNL     1      11.688   9.434  22.922  0.00  0.00    -0.297 N 
ATOM      7  N   UNL     1      12.546  11.481  23.737  0.00  0.00    -0.281 N 
ATOM     16  C   UNL     1      11.422  10.676  23.487  0.00  0.00    +0.302 C 
ATOM     17  C   UNL     1      12.358  12.809  24.325  0.00  0.00    +0.137 C 
ATOM     18  C   UNL     1      13.928  11.192  23.327  0.00  0.00    +0.137 C 
ATOM     20  C   UNL     1      13.400  13.084  25.396  0.00  0.00    +0.179 C 
ATOM     21  C   UNL     1      14.910  11.561  24.433  0.00  0.00    +0.179 C 
ATOM     25  H   UNL     1      12.628   9.143  22.696  0.00  0.00    +0.150 HD
ENDBRANCH  14   6
ENDBRANCH  12  14
TORSDOF 6
ENDMDL
MODEL 2
REMARK VINA RESULT:      -6.3      1.777      2.136
REMARK  Name = 75536760
REMARK  6 active torsions:
REMARK  status: ('A' for Active; 'I' for Inactive)
REMARK    1  A    between atoms: O_2  and  C_11
REMARK    2  A    between atoms: N_5  and  C_10
REMARK    3  A    between atoms: N_5  and  C_15
REMARK    4  A    between atoms: N_6  and  C_14
REMARK    5  A    between atoms: C_12  and  C_14
REMARK    6  A    between atoms: C_15  and  C_19
REMARK                            x       y       z     vdW  Elec       q    Type
REMARK                         _______ _______ _______ _____ _____    ______ ____
ROOT
ATOM      1  O   UNL     1      10.980   8.767  20.072  0.00  0.00    -0.371 OA
ATOM     10  C   UNL     1      12.390   6.909  19.622  0.00  0.00    +0.111 C 
ATOM     11  C   UNL     1      12.115   6.972  21.113  0.00  0.00    +0.164 C 
ATOM     12  C   UNL     1      10.848   7.816  21.143  0.00  0.00    +0.165 C 
ATOM     13  C   UNL     1      12.023   8.319  19.190  0.00  0.00    +0.181 C 
ENDROOT
BRANCH  11   2
ATOM      2  O   UNL     1      11.910   5.694  21.684  0.00  0.00    -0.388 OA
ATOM     26  H   UNL     1      12.693   5.149  21.502  0.00  0.00    +0.210 HD
ENDBRANCH  11   2
BRANCH  10   5
ATOM      5  N   UNL     1      13.761   6.556  19.296  0.00  0.00    -0.302 NA
ATOM     24  H   UNL     1      14.040   7.047  18.445  0.00  0.00    +0.123 HD
BRANCH   5  15
ATOM     15  C   UNL     1      14.671   6.929  20.373  0.00  0.00    +0.156 C 
BRANCH  15  19
ATOM      8  N   UNL     1      16.415   5.853  18.931  0.00  0.00    -0.347 N 
ATOM      9  N   UNL     1      17.157   6.817  20.789  0.00  0.00    -0.240 NA
ATOM     19  C   UNL     1      16.094   6.549  20.063  0.00  0.00    +0.121 A 
ATOM     22  C   UNL     1      17.768   5.664  18.937  0.00  0.00    +0.104 A 
ATOM     23  C   UNL     1      18.204   6.268  20.093  0.00  0.00    +0.130 A 
ATOM     27  H   UNL     1      15.771   5.536  18.219  0.00  0.00    +0.167 HD
ENDBRANCH  15  19
ENDBRANCH   5  15
ENDBRANCH  10   5
BRANCH  12  14
ATOM     14  C   UNL     1      10.645   8.548  22.457  0.00  0.00    +0.140 C 
BRANCH  14   6
ATOM      3  O   UNL     1      12.345  14.629  21.304  0.00  0.00    -0.377 OA
ATOM      4  O   UNL     1      13.096   9.922  22.631  0.00  0.00    -0.253 OA
ATOM      6  N   UNL     1      10.826   9.974  22.301  0.00  0.00    -0.297 N 
ATOM      7  N   UNL     1      12.087  11.973  22.235  0.00  0.00    -0.281 N 
ATOM     16  C   UNL     1      12.074  10.578  22.402  0.00  0.00    +0.302 C 
ATOM     17  C   UNL     1      13.359  12.692  22.332  0.00  0.00    +0.137 C 
ATOM     18  C   UNL     1      10.908  12.843  22.112  0.00  0.00    +0.137 C 
ATOM     20  C   UNL     1      13.471  13.752  21.247  0.00  0.00    +0.179 C 
ATOM     21  C   UNL     1      11.134  13.916  21.052  0.00  0.00    +0.179 C 
ATOM     25  H   UNL     1       9.987  10.511  22.132  0.00  0.00    +0.150 HD
ENDBRANCH  14   6
ENDBRANCH  12  14
TORSDOF 6
ENDMDL
MODEL 3
REMARK VINA RESULT:      -6.3      4.021      6.124
REMARK  Name = 75536760
REMARK  6 active torsions:
REMARK  status: ('A' for Active; 'I' for Inactive)
REMARK    1  A    between atoms: O_2  and  C_11
REMARK    2  A    between atoms: N_5  and  C_10
REMARK    3  A    between atoms: N_5  and  C_15
REMARK    4  A    between atoms: N_6  and  C_14
REMARK    5  A    between atoms: C_12  and  C_14
REMARK    6  A    between atoms: C_15  and  C_19
REMARK                            x       y       z     vdW  Elec       q    Type
REMARK                         _______ _______ _______ _____ _____    ______ ____
ROOT
ATOM      1  O   UNL     1      11.312   7.617  19.525  0.00  0.00    -0.371 OA
ATOM     10  C   UNL     1      13.302   7.757  20.815  0.00  0.00    +0.111 C 
ATOM     11  C   UNL     1      13.523   8.456  19.486  0.00  0.00    +0.164 C 
ATOM     12  C   UNL     1      12.088   8.734  19.058  0.00  0.00    +0.165 C 
ATOM     13  C   UNL     1      12.083   6.902  20.505  0.00  0.00    +0.181 C 
ENDROOT
BRANCH  11   2
ATOM      2  O   UNL     1      14.274   9.648  19.615  0.00  0.00    -0.388 OA
ATOM     26  H   UNL     1      15.125   9.429  20.030  0.00  0.00    +0.210 HD
ENDBRANCH  11   2
BRANCH  10   5
ATOM      5  N   UNL     1      14.443   6.975  21.260  0.00  0.00    -0.302 NA
ATOM     24  H   UNL     1      14.111   6.183  21.813  0.00  0.00    +0.123 HD
BRANCH   5  15
ATOM     15  C   UNL     1      15.209   6.470  20.127  0.00  0.00    +0.156 C 
BRANCH  15  19
ATOM      8  N   UNL     1      17.189   6.906  21.601  0.00  0.00    -0.347 N 
ATOM      9  N   UNL     1      17.643   6.078  19.590  0.00  0.00    -0.240 NA
ATOM     19  C   UNL     1      16.689   6.470  20.405  0.00  0.00    +0.121 A 
ATOM     22  C   UNL     1      18.548   6.783  21.544  0.00  0.00    +0.104 A 
ATOM     23  C   UNL     1      18.805   6.270  20.294  0.00  0.00    +0.130 A 
ATOM     27  H   UNL     1      16.652   7.255  22.383  0.00  0.00    +0.167 HD
ENDBRANCH  15  19
ENDBRANCH   5  15
ENDBRANCH  10   5
BRANCH  12  14
ATOM     14  C   UNL     1      11.928   8.877  17.555  0.00  0.00    +0.140 C 
BRANCH  14   6
ATOM      3  O   UNL     1      15.448  13.147  14.305  0.00  0.00    -0.377 OA
ATOM      4  O   UNL     1      13.721   8.641  15.398  0.00  0.00    -0.253 OA
ATOM      6  N   UNL     1      12.762   9.936  17.032  0.00  0.00    -0.297 N 
ATOM      7  N   UNL     1      14.375  10.860  15.572  0.00  0.00    -0.281 N 
ATOM     16  C   UNL     1      13.625   9.738  15.960  0.00  0.00    +0.302 C 
ATOM     17  C   UNL     1      15.315  10.740  14.455  0.00  0.00    +0.137 C 
ATOM     18  C   UNL     1      14.434  12.150  16.276  0.00  0.00    +0.137 C 
ATOM     20  C   UNL     1      15.240  11.955  13.545  0.00  0.00    +0.179 C 
ATOM     21  C   UNL     1      14.423  13.309  15.285  0.00  0.00    +0.179 C 
ATOM     25  H   UNL     1      12.695  10.826  17.504  0.00  0.00    +0.150 HD
ENDBRANCH  14   6
ENDBRANCH  12  14
TORSDOF 6
ENDMDL
MODEL 4
REMARK VINA RESULT:      -6.2      3.093      7.030
REMARK  Name = 75536760
REMARK  6 active torsions:
REMARK  status: ('A' for Active; 'I' for Inactive)
REMARK    1  A    between atoms: O_2  and  C_11
REMARK    2  A    between atoms: N_5  and  C_10
REMARK    3  A    between atoms: N_5  and  C_15
REMARK    4  A    between atoms: N_6  and  C_14
REMARK    5  A    between atoms: C_12  and  C_14
REMARK    6  A    between atoms: C_15  and  C_19
REMARK                            x       y       z     vdW  Elec       q    Type
REMARK                         _______ _______ _______ _____ _____    ______ ____
ROOT
ATOM      1  O   UNL     1      12.183   6.158  20.812  0.00  0.00    -0.371 OA
ATOM     10  C   UNL     1      10.629   7.930  21.105  0.00  0.00    +0.111 C 
ATOM     11  C   UNL     1      11.794   8.427  20.269  0.00  0.00    +0.164 C 
ATOM     12  C   UNL     1      12.367   7.114  19.754  0.00  0.00    +0.165 C 
ATOM     13  C   UNL     1      11.227   6.688  21.745  0.00  0.00    +0.181 C 
ENDROOT
BRANCH  11   2
ATOM      2  O   UNL     1      11.386   9.275  19.213  0.00  0.00    -0.388 OA
ATOM     26  H   UNL     1      11.442  10.195  19.521  0.00  0.00    +0.210 HD
ENDBRANCH  11   2
BRANCH  10   5
ATOM      5  N   UNL     1      10.156   8.898  22.080  0.00  0.00    -0.302 NA
ATOM     24  H   UNL     1       9.408   8.477  22.633  0.00  0.00    +0.123 HD
BRANCH   5  15
ATOM     15  C   UNL     1      11.229   9.310  22.976  0.00  0.00    +0.156 C 
BRANCH  15  19
ATOM      8  N   UNL     1      10.738  11.748  22.662  0.00  0.00    -0.347 N 
ATOM      9  N   UNL     1      11.068  11.090  24.758  0.00  0.00    -0.240 NA
ATOM     19  C   UNL     1      11.018  10.706  23.502  0.00  0.00    +0.121 A 
ATOM     22  C   UNL     1      10.603  12.868  23.432  0.00  0.00    +0.104 A 
ATOM     23  C   UNL     1      10.811  12.437  24.721  0.00  0.00    +0.130 A 
ATOM     27  H   UNL     1      10.648  11.700  21.656  0.00  0.00    +0.167 HD
ENDBRANCH  15  19
ENDBRANCH   5  15
ENDBRANCH  10   5
BRANCH  12  14
ATOM     14  C   UNL     1      13.839   7.202  19.391  0.00  0.00    +0.140 C 
BRANCH  14   6
ATOM      3  O   UNL     1      14.526  12.480  15.804  0.00  0.00    -0.377 OA
ATOM      4  O   UNL     1      13.963   7.631  16.612  0.00  0.00    -0.253 OA
ATOM      6  N   UNL     1      14.150   8.457  18.745  0.00  0.00    -0.297 N 
ATOM      7  N   UNL     1      14.516   9.867  16.882  0.00  0.00    -0.281 N 
ATOM     16  C   UNL     1      14.191   8.587  17.361  0.00  0.00    +0.302 C 
ATOM     17  C   UNL     1      14.589  10.093  15.437  0.00  0.00    +0.137 C 
ATOM     18  C   UNL     1      14.948  11.013  17.696  0.00  0.00    +0.137 C 
ATOM     20  C   UNL     1      13.938  11.413  15.057  0.00  0.00    +0.179 C 
ATOM     21  C   UNL     1      14.301  12.303  17.203  0.00  0.00    +0.179 C 
ATOM     25  H   UNL     1      14.354   9.233  19.358  0.00  0.00    +0.150 HD
ENDBRANCH  14   6
ENDBRANCH  12  14
TORSDOF 6
ENDMDL
MODEL 5
REMARK VINA RESULT:      -6.2      2.899      7.113
REMARK  Name = 75536760
REMARK  6 active torsions:
REMARK  status: ('A' for Active; 'I' for Inactive)
REMARK    1  A    between atoms: O_2  and  C_11
REMARK    2  A    between atoms: N_5  and  C_10
REMARK    3  A    between atoms: N_5  and  C_15
REMARK    4  A    between atoms: N_6  and  C_14
REMARK    5  A    between atoms: C_12  and  C_14
REMARK    6  A    between atoms: C_15  and  C_19
REMARK                            x       y       z     vdW  Elec       q    Type
REMARK                         _______ _______ _______ _____ _____    ______ ____
ROOT
ATOM      1  O   UNL     1      14.267   6.998  21.171  0.00  0.00    -0.371 OA
ATOM     10  C   UNL     1      11.973   7.431  20.734  0.00  0.00    +0.111 C 
ATOM     11  C   UNL     1      12.748   7.509  19.432  0.00  0.00    +0.164 C 
ATOM     12  C   UNL     1      13.999   6.716  19.786  0.00  0.00    +0.165 C 
ATOM     13  C   UNL     1      13.089   7.577  21.756  0.00  0.00    +0.181 C 
ENDROOT
BRANCH  11   2
ATOM      2  O   UNL     1      12.049   6.932  18.345  0.00  0.00    -0.388 OA
ATOM     26  H   UNL     1      12.534   7.135  17.528  0.00  0.00    +0.210 HD
ENDBRANCH  11   2
BRANCH  10   5
ATOM      5  N   UNL     1      10.949   8.453  20.865  0.00  0.00    -0.302 NA
ATOM     24  H   UNL     1      10.473   8.337  21.761  0.00  0.00    +0.123 HD
BRANCH   5  15
ATOM     15  C   UNL     1      11.529   9.790  20.810  0.00  0.00    +0.156 C 
BRANCH  15  19
ATOM      8  N   UNL     1      11.041  11.940  22.002  0.00  0.00    -0.347 N 
ATOM      9  N   UNL     1      11.101  10.120  23.275  0.00  0.00    -0.240 NA
ATOM     19  C   UNL     1      11.225  10.586  22.051  0.00  0.00    +0.121 A 
ATOM     22  C   UNL     1      10.785  12.364  23.275  0.00  0.00    +0.104 A 
ATOM     23  C   UNL     1      10.827  11.224  24.042  0.00  0.00    +0.130 A 
ATOM     27  H   UNL     1      11.087  12.521  21.176  0.00  0.00    +0.167 HD
ENDBRANCH  15  19
ENDBRANCH   5  15
ENDBRANCH  10   5
BRANCH  12  14
ATOM     14  C   UNL     1      15.205   7.090  18.944  0.00  0.00    +0.140 C 
BRANCH  14   6
ATOM      3  O   UNL     1      20.943   7.725  21.750  0.00  0.00    -0.377 OA
ATOM      4  O   UNL     1      17.538   5.514  18.922  0.00  0.00    -0.253 OA
ATOM      6  N   UNL     1      16.377   7.306  19.763  0.00  0.00    -0.297 N 
ATOM      7  N   UNL     1      18.549   6.812  20.557  0.00  0.00    -0.281 N 
ATOM     16  C   UNL     1      17.493   6.479  19.693  0.00  0.00    +0.302 C 
ATOM     17  C   UNL     1      19.761   5.991  20.554  0.00  0.00    +0.137 C 
ATOM     18  C   UNL     1      18.519   7.843  21.605  0.00  0.00    +0.137 C 
ATOM     20  C   UNL     1      21.008   6.858  20.617  0.00  0.00    +0.179 C 
ATOM     21  C   UNL     1      19.832   8.617  21.642  0.00  0.00    +0.179 C 
ATOM     25  H   UNL     1      16.331   8.084  20.405  0.00  0.00    +0.150 HD
ENDBRANCH  14   6
ENDBRANCH  12  14
TORSDOF 6
ENDMDL
MODEL 6
REMARK VINA RESULT:      -5.9     28.099     30.608
REMARK  Name = 75536760
REMARK  6 active torsions:
REMARK  status: ('A' for Active; 'I' for Inactive)
REMARK    1  A    between atoms: O_2  and  C_11
REMARK    2  A    between atoms: N_5  and  C_10
REMARK    3  A    between atoms: N_5  and  C_15
REMARK    4  A    between atoms: N_6  and  C_14
REMARK    5  A    between atoms: C_12  and  C_14
REMARK    6  A    between atoms: C_15  and  C_19
REMARK                            x       y       z     vdW  Elec       q    Type
REMARK                         _______ _______ _______ _____ _____    ______ ____
ROOT
ATOM      1  O   UNL     1     -18.278   2.742  26.702  0.00  0.00    -0.371 OA
ATOM     10  C   UNL     1     -17.207   2.342  24.621  0.00  0.00    +0.111 C 
ATOM     11  C   UNL     1     -17.074   1.106  25.492  0.00  0.00    +0.164 C 
ATOM     12  C   UNL     1     -18.208   1.322  26.484  0.00  0.00    +0.165 C 
ATOM     13  C   UNL     1     -17.548   3.402  25.655  0.00  0.00    +0.181 C 
ENDROOT
BRANCH  11   2
ATOM      2  O   UNL     1     -17.233  -0.096  24.762  0.00  0.00    -0.388 OA
ATOM     26  H   UNL     1     -17.491  -0.797  25.383  0.00  0.00    +0.210 HD
ENDBRANCH  11   2
BRANCH  10   5
ATOM      5  N   UNL     1     -16.007   2.655  23.864  0.00  0.00    -0.302 NA
ATOM     24  H   UNL     1     -16.270   2.908  22.910  0.00  0.00    +0.123 HD
BRANCH   5  15
ATOM     15  C   UNL     1     -15.282   3.768  24.464  0.00  0.00    +0.156 C 
BRANCH  15  19
ATOM      8  N   UNL     1     -13.924   4.364  22.444  0.00  0.00    -0.347 N 
ATOM      9  N   UNL     1     -15.115   6.016  23.329  0.00  0.00    -0.240 NA
ATOM     19  C   UNL     1     -14.794   4.745  23.427  0.00  0.00    +0.121 A 
ATOM     22  C   UNL     1     -13.674   5.462  21.670  0.00  0.00    +0.104 A 
ATOM     23  C   UNL     1     -14.421   6.469  22.236  0.00  0.00    +0.130 A 
ATOM     27  H   UNL     1     -13.535   3.440  22.312  0.00  0.00    +0.167 HD
ENDBRANCH  15  19
ENDBRANCH   5  15
ENDBRANCH  10   5
BRANCH  12  14
ATOM     14  C   UNL     1     -17.991   0.610  27.808  0.00  0.00    +0.140 C 
BRANCH  14   6
ATOM      3  O   UNL     1     -14.109   4.068  31.572  0.00  0.00    -0.377 OA
ATOM      4  O   UNL     1     -15.504   0.070  29.012  0.00  0.00    -0.253 OA
ATOM      6  N   UNL     1     -17.313   1.460  28.761  0.00  0.00    -0.297 N 
ATOM      7  N   UNL     1     -15.554   2.044  30.229  0.00  0.00    -0.281 N 
ATOM     16  C   UNL     1     -16.083   1.120  29.312  0.00  0.00    +0.302 C 
ATOM     17  C   UNL     1     -14.265   1.763  30.863  0.00  0.00    +0.137 C 
ATOM     18  C   UNL     1     -16.240   3.234  30.754  0.00  0.00    +0.137 C 
ATOM     20  C   UNL     1     -13.400   3.012  30.919  0.00  0.00    +0.179 C 
ATOM     21  C   UNL     1     -15.283   4.418  30.839  0.00  0.00    +0.179 C 
ATOM     25  H   UNL     1     -17.795   2.308  29.019  0.00  0.00    +0.150 HD
ENDBRANCH  14   6
ENDBRANCH  12  14
TORSDOF 6
ENDMDL
MODEL 7
REMARK VINA RESULT:      -5.8      1.779      2.222
REMARK  Name = 75536760
REMARK  6 active torsions:
REMARK  status: ('A' for Active; 'I' for Inactive)
REMARK    1  A    between atoms: O_2  and  C_11
REMARK    2  A    between atoms: N_5  and  C_10
REMARK    3  A    between atoms: N_5  and  C_15
REMARK    4  A    between atoms: N_6  and  C_14
REMARK    5  A    between atoms: C_12  and  C_14
REMARK    6  A    between atoms: C_15  and  C_19
REMARK                            x       y       z     vdW  Elec       q    Type
REMARK                         _______ _______ _______ _____ _____    ______ ____
ROOT
ATOM      1  O   UNL     1      12.645  10.367  22.318  0.00  0.00    -0.371 OA
ATOM     10  C   UNL     1      12.578   8.224  21.297  0.00  0.00    +0.111 C 
ATOM     11  C   UNL     1      11.469   8.316  22.328  0.00  0.00    +0.164 C 
ATOM     12  C   UNL     1      11.322   9.825  22.469  0.00  0.00    +0.165 C 
ATOM     13  C   UNL     1      13.488   9.360  21.733  0.00  0.00    +0.181 C 
ENDROOT
BRANCH  11   2
ATOM      2  O   UNL     1      10.267   7.708  21.893  0.00  0.00    -0.388 OA
ATOM     26  H   UNL     1       9.606   8.405  21.751  0.00  0.00    +0.210 HD
ENDBRANCH  11   2
BRANCH  10   5
ATOM      5  N   UNL     1      13.251   6.936  21.276  0.00  0.00    -0.302 NA
ATOM     24  H   UNL     1      12.564   6.198  21.437  0.00  0.00    +0.123 HD
BRANCH   5  15
ATOM     15  C   UNL     1      13.900   6.703  19.991  0.00  0.00    +0.156 C 
BRANCH  15  19
ATOM      8  N   UNL     1      16.166   6.112  19.100  0.00  0.00    -0.347 N 
ATOM      9  N   UNL     1      16.110   6.827  21.202  0.00  0.00    -0.240 NA
ATOM     19  C   UNL     1      15.392   6.559  20.134  0.00  0.00    +0.121 A 
ATOM     22  C   UNL     1      17.461   6.093  19.537  0.00  0.00    +0.104 A 
ATOM     23  C   UNL     1      17.401   6.539  20.837  0.00  0.00    +0.130 A 
ATOM     27  H   UNL     1      15.842   5.844  18.181  0.00  0.00    +0.167 HD
ENDBRANCH  15  19
ENDBRANCH   5  15
ENDBRANCH  10   5
BRANCH  12  14
ATOM     14  C   UNL     1      10.743  10.249  23.806  0.00  0.00    +0.140 C 
BRANCH  14   6
ATOM      3  O   UNL     1      13.835  14.558  27.422  0.00  0.00    -0.377 OA
ATOM      4  O   UNL     1      10.108  12.860  24.645  0.00  0.00    -0.253 OA
ATOM      6  N   UNL     1      11.631  11.150  24.506  0.00  0.00    -0.297 N 
ATOM      7  N   UNL     1      12.217  13.188  25.552  0.00  0.00    -0.281 N 
ATOM     16  C   UNL     1      11.240  12.429  24.887  0.00  0.00    +0.302 C 
ATOM     17  C   UNL     1      11.893  14.549  25.984  0.00  0.00    +0.137 C 
ATOM     18  C   UNL     1      13.626  12.811  25.744  0.00  0.00    +0.137 C 
ATOM     20  C   UNL     1      12.431  14.822  27.379  0.00  0.00    +0.179 C 
ATOM     21  C   UNL     1      14.100  13.183  27.145  0.00  0.00    +0.179 C 
ATOM     25  H   UNL     1      12.562  10.802  24.687  0.00  0.00    +0.150 HD
ENDBRANCH  14   6
ENDBRANCH  12  14
TORSDOF 6
ENDMDL
MODEL 8
REMARK VINA RESULT:      -5.8     28.074     30.027
REMARK  Name = 75536760
REMARK  6 active torsions:
REMARK  status: ('A' for Active; 'I' for Inactive)
REMARK    1  A    between atoms: O_2  and  C_11
REMARK    2  A    between atoms: N_5  and  C_10
REMARK    3  A    between atoms: N_5  and  C_15
REMARK    4  A    between atoms: N_6  and  C_14
REMARK    5  A    between atoms: C_12  and  C_14
REMARK    6  A    between atoms: C_15  and  C_19
REMARK                            x       y       z     vdW  Elec       q    Type
REMARK                         _______ _______ _______ _____ _____    ______ ____
ROOT
ATOM      1  O   UNL     1     -12.470  -7.690  14.230  0.00  0.00    -0.371 OA
ATOM     10  C   UNL     1     -10.731  -7.891  15.834  0.00  0.00    +0.111 C 
ATOM     11  C   UNL     1     -11.073  -6.423  15.656  0.00  0.00    +0.164 C 
ATOM     12  C   UNL     1     -12.472  -6.517  15.062  0.00  0.00    +0.165 C 
ATOM     13  C   UNL     1     -11.329  -8.493  14.574  0.00  0.00    +0.181 C 
ENDROOT
BRANCH  11   2
ATOM      2  O   UNL     1     -11.067  -5.709  16.878  0.00  0.00    -0.388 OA
ATOM     26  H   UNL     1     -10.199  -5.830  17.298  0.00  0.00    +0.210 HD
ENDBRANCH  11   2
BRANCH  10   5
ATOM      5  N   UNL     1      -9.306  -8.146  15.963  0.00  0.00    -0.302 NA
ATOM     24  H   UNL     1      -8.791  -7.297  15.727  0.00  0.00    +0.123 HD
BRANCH   5  15
ATOM     15  C   UNL     1      -8.964  -8.540  17.324  0.00  0.00    +0.156 C 
BRANCH  15  19
ATOM      8  N   UNL     1      -7.262  -9.936  18.523  0.00  0.00    -0.347 N 
ATOM      9  N   UNL     1      -6.817  -9.484  16.394  0.00  0.00    -0.240 NA
ATOM     19  C   UNL     1      -7.672  -9.313  17.377  0.00  0.00    +0.121 A 
ATOM     22  C   UNL     1      -6.068 -10.543  18.253  0.00  0.00    +0.104 A 
ATOM     23  C   UNL     1      -5.814 -10.250  16.933  0.00  0.00    +0.130 A 
ATOM     27  H   UNL     1      -7.750  -9.946  19.408  0.00  0.00    +0.167 HD
ENDBRANCH  15  19
ENDBRANCH   5  15
ENDBRANCH  10   5
BRANCH  12  14
ATOM     14  C   UNL     1     -12.856  -5.302  14.236  0.00  0.00    +0.140 C 
BRANCH  14   6
ATOM      3  O   UNL     1     -10.569  -5.261   8.239  0.00  0.00    -0.377 OA
ATOM      4  O   UNL     1     -12.167  -3.231  12.459  0.00  0.00    -0.253 OA
ATOM      6  N   UNL     1     -12.491  -5.470  12.847  0.00  0.00    -0.297 N 
ATOM      7  N   UNL     1     -11.837  -4.712  10.705  0.00  0.00    -0.281 N 
ATOM     16  C   UNL     1     -12.163  -4.391  12.033  0.00  0.00    +0.302 C 
ATOM     17  C   UNL     1     -11.485  -3.637   9.775  0.00  0.00    +0.137 C 
ATOM     18  C   UNL     1     -11.954  -6.038  10.080  0.00  0.00    +0.137 C 
ATOM     20  C   UNL     1     -10.298  -4.030   8.911  0.00  0.00    +0.179 C 
ATOM     21  C   UNL     1     -10.756  -6.320   9.179  0.00  0.00    +0.179 C 
ATOM     25  H   UNL     1     -12.506  -6.416  12.496  0.00  0.00    +0.150 HD
ENDBRANCH  14   6
ENDBRANCH  12  14
TORSDOF 6
ENDMDL
MODEL 9
REMARK VINA RESULT:      -5.7     26.046     28.615
REMARK  Name = 75536760
REMARK  6 active torsions:
REMARK  status: ('A' for Active; 'I' for Inactive)
REMARK    1  A    between atoms: O_2  and  C_11
REMARK    2  A    between atoms: N_5  and  C_10
REMARK    3  A    between atoms: N_5  and  C_15
REMARK    4  A    between atoms: N_6  and  C_14
REMARK    5  A    between atoms: C_12  and  C_14
REMARK    6  A    between atoms: C_15  and  C_19
REMARK                            x       y       z     vdW  Elec       q    Type
REMARK                         _______ _______ _______ _____ _____    ______ ____
ROOT
ATOM      1  O   UNL     1      -7.080 -12.587  18.174  0.00  0.00    -0.371 OA
ATOM     10  C   UNL     1      -4.971 -13.316  17.360  0.00  0.00    +0.111 C 
ATOM     11  C   UNL     1      -4.781 -12.031  18.144  0.00  0.00    +0.164 C 
ATOM     12  C   UNL     1      -6.045 -12.015  18.993  0.00  0.00    +0.165 C 
ATOM     13  C   UNL     1      -6.463 -13.274  17.073  0.00  0.00    +0.181 C 
ENDROOT
BRANCH  11   2
ATOM      2  O   UNL     1      -3.611 -12.046  18.941  0.00  0.00    -0.388 OA
ATOM     26  H   UNL     1      -2.859 -12.282  18.374  0.00  0.00    +0.210 HD
ENDBRANCH  11   2
BRANCH  10   5
ATOM      5  N   UNL     1      -4.164 -13.389  16.154  0.00  0.00    -0.302 NA
ATOM     24  H   UNL     1      -4.412 -14.233  15.636  0.00  0.00    +0.123 HD
BRANCH   5  15
ATOM     15  C   UNL     1      -4.391 -12.229  15.299  0.00  0.00    +0.156 C 
BRANCH  15  19
ATOM      8  N   UNL     1      -2.165 -11.371  16.069  0.00  0.00    -0.347 N 
ATOM      9  N   UNL     1      -2.819 -10.695  14.056  0.00  0.00    -0.240 NA
ATOM     19  C   UNL     1      -3.135 -11.420  15.107  0.00  0.00    +0.121 A 
ATOM     22  C   UNL     1      -1.167 -10.563  15.602  0.00  0.00    +0.104 A 
ATOM     23  C   UNL     1      -1.593 -10.158  14.359  0.00  0.00    +0.130 A 
ATOM     27  H   UNL     1      -2.182 -11.845  16.962  0.00  0.00    +0.167 HD
ENDBRANCH  15  19
ENDBRANCH   5  15
ENDBRANCH  10   5
BRANCH  12  14
ATOM     14  C   UNL     1      -6.452 -10.622  19.437  0.00  0.00    +0.140 C 
BRANCH  14   6
ATOM      3  O   UNL     1     -11.750  -9.173  16.116  0.00  0.00    -0.377 OA
ATOM      4  O   UNL     1      -6.887  -9.235  17.026  0.00  0.00    -0.253 OA
ATOM      6  N   UNL     1      -7.742 -10.251  18.898  0.00  0.00    -0.297 N 
ATOM      7  N   UNL     1      -9.189  -9.268  17.308  0.00  0.00    -0.281 N 
ATOM     16  C   UNL     1      -7.872  -9.564  17.696  0.00  0.00    +0.302 C 
ATOM     17  C   UNL     1      -9.420  -8.541  16.058  0.00  0.00    +0.137 C 
ATOM     18  C   UNL     1     -10.400  -9.486  18.113  0.00  0.00    +0.137 C 
ATOM     20  C   UNL     1     -10.587  -9.135  15.287  0.00  0.00    +0.179 C 
ATOM     21  C   UNL     1     -11.538 -10.017  17.248  0.00  0.00    +0.179 C 
ATOM     25  H   UNL     1      -8.544 -10.504  19.456  0.00  0.00    +0.150 HD
ENDBRANCH  14   6
ENDBRANCH  12  14
TORSDOF 6
ENDMDL
MODEL 10
REMARK VINA RESULT:      -5.7     26.495     28.679
REMARK  Name = 75536760
REMARK  6 active torsions:
REMARK  status: ('A' for Active; 'I' for Inactive)
REMARK    1  A    between atoms: O_2  and  C_11
REMARK    2  A    between atoms: N_5  and  C_10
REMARK    3  A    between atoms: N_5  and  C_15
REMARK    4  A    between atoms: N_6  and  C_14
REMARK    5  A    between atoms: C_12  and  C_14
REMARK    6  A    between atoms: C_15  and  C_19
REMARK                            x       y       z     vdW  Elec       q    Type
REMARK                         _______ _______ _______ _____ _____    ______ ____
ROOT
ATOM      1  O   UNL     1      -4.131 -10.661  14.333  0.00  0.00    -0.371 OA
ATOM     10  C   UNL     1      -3.693 -11.229  16.597  0.00  0.00    +0.111 C 
ATOM     11  C   UNL     1      -2.426 -11.420  15.785  0.00  0.00    +0.164 C 
ATOM     12  C   UNL     1      -2.718 -10.545  14.574  0.00  0.00    +0.165 C 
ATOM     13  C   UNL     1      -4.750 -11.217  15.505  0.00  0.00    +0.181 C 
ENDROOT
BRANCH  11   2
ATOM      2  O   UNL     1      -1.266 -10.994  16.475  0.00  0.00    -0.388 OA
ATOM     26  H   UNL     1      -1.522 -10.295  17.100  0.00  0.00    +0.210 HD
ENDBRANCH  11   2
BRANCH  10   5
ATOM      5  N   UNL     1      -3.914 -12.269  17.588  0.00  0.00    -0.302 NA
ATOM     24  H   UNL     1      -3.054 -12.806  17.706  0.00  0.00    +0.123 HD
BRANCH   5  15
ATOM     15  C   UNL     1      -4.293 -11.697  18.874  0.00  0.00    +0.156 C 
BRANCH  15  19
ATOM      8  N   UNL     1      -6.525 -12.836  18.912  0.00  0.00    -0.347 N 
ATOM      9  N   UNL     1      -6.537 -10.669  19.401  0.00  0.00    -0.240 NA
ATOM     19  C   UNL     1      -5.786 -11.697  19.071  0.00  0.00    +0.121 A 
ATOM     22  C   UNL     1      -7.831 -12.513  19.156  0.00  0.00    +0.104 A 
ATOM     23  C   UNL     1      -7.813 -11.172  19.456  0.00  0.00    +0.130 A 
ATOM     27  H   UNL     1      -6.173 -13.749  18.660  0.00  0.00    +0.167 HD
ENDBRANCH  15  19
ENDBRANCH   5  15
ENDBRANCH  10   5
BRANCH  12  14
ATOM     14  C   UNL     1      -1.950 -10.963  13.333  0.00  0.00    +0.140 C 
BRANCH  14   6
ATOM      3  O   UNL     1      -5.349  -9.470   8.097  0.00  0.00    -0.377 OA
ATOM      4  O   UNL     1      -3.088 -12.513  11.277  0.00  0.00    -0.253 OA
ATOM      6  N   UNL     1      -2.566 -10.448  12.130  0.00  0.00    -0.297 N 
ATOM      7  N   UNL     1      -3.663 -10.634  10.045  0.00  0.00    -0.281 N 
ATOM     16  C   UNL     1      -3.107 -11.283  11.160  0.00  0.00    +0.302 C 
ATOM     17  C   UNL     1      -4.250 -11.437   8.970  0.00  0.00    +0.137 C 
ATOM     18  C   UNL     1      -3.593  -9.194   9.755  0.00  0.00    +0.137 C 
ATOM     20  C   UNL     1      -5.557 -10.830   8.486  0.00  0.00    +0.179 C 
ATOM     21  C   UNL     1      -4.923  -8.685   9.211  0.00  0.00    +0.179 C 
ATOM     25  H   UNL     1      -2.564  -9.444  12.027  0.00  0.00    +0.150 HD
ENDBRANCH  14   6
ENDBRANCH  12  14
TORSDOF 6
ENDMDL
