MODEL 1
REMARK VINA RESULT:      -7.0      0.000      0.000
REMARK  Name = 45783666
REMARK  5 active torsions:
REMARK  status: ('A' for Active; 'I' for Inactive)
REMARK    1  A    between atoms: N_2  and  C_9
REMARK    2  A    between atoms: N_3  and  C_19
REMARK    3  A    between atoms: N_7  and  C_25
REMARK    4  A    between atoms: C_10  and  C_18
REMARK    5  A    between atoms: C_20  and  C_21
REMARK                            x       y       z     vdW  Elec       q    Type
REMARK                         _______ _______ _______ _____ _____    ______ ____
ROOT
ATOM      1  O   UNL     1      16.758   9.183  21.633  0.00  0.00    -0.336 OA
ATOM      4  N   UNL     1      16.820   7.045  20.965  0.00  0.00    -0.190 NA
ATOM      5  N   UNL     1      18.060   8.733  21.886  0.00  0.00    -0.056 NA
ATOM     18  C   UNL     1      16.094   8.128  21.091  0.00  0.00    +0.245 A 
ATOM     20  C   UNL     1      18.018   7.466  21.466  0.00  0.00    +0.204 A 
ENDROOT
BRANCH  20  21
ATOM      6  N   UNL     1      20.989   5.688  22.823  0.00  0.00    -0.237 NA
ATOM     21  C   UNL     1      19.154   6.592  21.534  0.00  0.00    +0.041 A 
ATOM     22  C   UNL     1      19.534   5.824  20.440  0.00  0.00    +0.017 A 
ATOM     23  C   UNL     1      19.907   6.489  22.692  0.00  0.00    +0.124 A 
ATOM     24  C   UNL     1      20.641   4.987  20.536  0.00  0.00    +0.047 A 
ATOM     25  C   UNL     1      21.328   4.956  21.738  0.00  0.00    +0.139 A 
BRANCH  25   7
ATOM      7  N   UNL     1      22.432   4.124  21.839  0.00  0.00    -0.290 N 
ATOM      8  N   UNL     1      23.840   2.627  22.681  0.00  0.00    -0.244 NA
ATOM     26  C   UNL     1      23.430   3.988  20.916  0.00  0.00    +0.114 A 
ATOM     27  C   UNL     1      22.721   3.287  22.881  0.00  0.00    +0.205 A 
ATOM     28  C   UNL     1      24.287   3.059  21.458  0.00  0.00    +0.130 A 
ENDBRANCH  25   7
ENDBRANCH  20  21
BRANCH  18  10
ATOM      2  N   UNL     1      14.274   7.715  19.445  0.00  0.00    -0.288 NA
ATOM     10  C   UNL     1      14.645   8.360  20.721  0.00  0.00    +0.146 C 
ATOM     11  C   UNL     1      12.850   7.392  19.544  0.00  0.00    +0.085 C 
ATOM     14  C   UNL     1      13.666   7.774  21.755  0.00  0.00    +0.030 C 
ATOM     15  C   UNL     1      12.747   6.858  20.958  0.00  0.00    +0.017 C 
BRANCH   2   9
ATOM      3  N   UNL     1      13.650  10.339  16.161  0.00  0.00    -0.305 NA
ATOM      9  C   UNL     1      14.571   8.539  18.276  0.00  0.00    +0.060 C 
ATOM     12  C   UNL     1      13.817   8.032  17.043  0.00  0.00    +0.034 C 
ATOM     13  C   UNL     1      14.204   9.999  18.549  0.00  0.00    +0.034 C 
ATOM     16  C   UNL     1      14.041   8.959  15.845  0.00  0.00    +0.085 C 
ATOM     17  C   UNL     1      14.415  10.861  17.302  0.00  0.00    +0.085 C 
ATOM     19  C   UNL     1      13.823  11.202  14.992  0.00  0.00    +0.104 C 
ENDBRANCH   2   9
ENDBRANCH  18  10
TORSDOF 4
ENDMDL
MODEL 2
REMARK VINA RESULT:      -6.9      2.588      9.798
REMARK  Name = 45783666
REMARK  5 active torsions:
REMARK  status: ('A' for Active; 'I' for Inactive)
REMARK    1  A    between atoms: N_2  and  C_9
REMARK    2  A    between atoms: N_3  and  C_19
REMARK    3  A    between atoms: N_7  and  C_25
REMARK    4  A    between atoms: C_10  and  C_18
REMARK    5  A    between atoms: C_20  and  C_21
REMARK                            x       y       z     vdW  Elec       q    Type
REMARK                         _______ _______ _______ _____ _____    ______ ____
ROOT
ATOM      1  O   UNL     1      20.048   5.155  20.058  0.00  0.00    -0.336 OA
ATOM      4  N   UNL     1      19.104   6.808  21.239  0.00  0.00    -0.190 NA
ATOM      5  N   UNL     1      18.694   5.165  19.701  0.00  0.00    -0.056 NA
ATOM     18  C   UNL     1      20.205   6.153  20.967  0.00  0.00    +0.245 A 
ATOM     20  C   UNL     1      18.205   6.165  20.439  0.00  0.00    +0.204 A 
ENDROOT
BRANCH  20  21
ATOM      6  N   UNL     1      14.864   7.332  21.581  0.00  0.00    -0.237 NA
ATOM     21  C   UNL     1      16.823   6.548  20.400  0.00  0.00    +0.041 A 
ATOM     22  C   UNL     1      16.102   6.515  19.212  0.00  0.00    +0.017 A 
ATOM     23  C   UNL     1      16.164   6.961  21.547  0.00  0.00    +0.124 A 
ATOM     24  C   UNL     1      14.763   6.890  19.207  0.00  0.00    +0.047 A 
ATOM     25  C   UNL     1      14.196   7.287  20.406  0.00  0.00    +0.139 A 
BRANCH  25   7
ATOM      7  N   UNL     1      12.862   7.662  20.406  0.00  0.00    -0.290 N 
ATOM      8  N   UNL     1      10.889   8.330  19.636  0.00  0.00    -0.244 NA
ATOM     26  C   UNL     1      12.039   7.732  21.494  0.00  0.00    +0.114 A 
ATOM     27  C   UNL     1      12.127   8.031  19.313  0.00  0.00    +0.205 A 
ATOM     28  C   UNL     1      10.827   8.146  20.994  0.00  0.00    +0.130 A 
ENDBRANCH  25   7
ENDBRANCH  20  21
BRANCH  18  10
ATOM      2  N   UNL     1      22.651   5.908  20.576  0.00  0.00    -0.288 NA
ATOM     10  C   UNL     1      21.602   6.354  21.516  0.00  0.00    +0.146 C 
ATOM     11  C   UNL     1      23.825   6.740  20.843  0.00  0.00    +0.085 C 
ATOM     14  C   UNL     1      21.925   7.834  21.791  0.00  0.00    +0.030 C 
ATOM     15  C   UNL     1      23.204   8.113  21.013  0.00  0.00    +0.017 C 
BRANCH   2   9
ATOM      3  N   UNL     1      24.717   2.342  21.613  0.00  0.00    -0.305 NA
ATOM      9  C   UNL     1      22.952   4.483  20.683  0.00  0.00    +0.060 C 
ATOM     12  C   UNL     1      24.269   4.146  19.978  0.00  0.00    +0.034 C 
ATOM     13  C   UNL     1      23.025   4.066  22.154  0.00  0.00    +0.034 C 
ATOM     16  C   UNL     1      24.640   2.675  20.184  0.00  0.00    +0.085 C 
ATOM     17  C   UNL     1      23.437   2.597  22.289  0.00  0.00    +0.085 C 
ATOM     19  C   UNL     1      25.121   0.948  21.793  0.00  0.00    +0.104 C 
ENDBRANCH   2   9
ENDBRANCH  18  10
TORSDOF 4
ENDMDL
MODEL 3
REMARK VINA RESULT:      -6.8      2.412      4.019
REMARK  Name = 45783666
REMARK  5 active torsions:
REMARK  status: ('A' for Active; 'I' for Inactive)
REMARK    1  A    between atoms: N_2  and  C_9
REMARK    2  A    between atoms: N_3  and  C_19
REMARK    3  A    between atoms: N_7  and  C_25
REMARK    4  A    between atoms: C_10  and  C_18
REMARK    5  A    between atoms: C_20  and  C_21
REMARK                            x       y       z     vdW  Elec       q    Type
REMARK                         _______ _______ _______ _____ _____    ______ ____
ROOT
ATOM      1  O   UNL     1      15.429   6.225  18.244  0.00  0.00    -0.336 OA
ATOM      4  N   UNL     1      16.143   7.694  19.778  0.00  0.00    -0.190 NA
ATOM      5  N   UNL     1      16.616   5.697  18.766  0.00  0.00    -0.056 NA
ATOM     18  C   UNL     1      15.222   7.400  18.893  0.00  0.00    +0.245 A 
ATOM     20  C   UNL     1      16.976   6.619  19.663  0.00  0.00    +0.204 A 
ENDROOT
BRANCH  20  21
ATOM      6  N   UNL     1      19.454   7.237  22.367  0.00  0.00    -0.237 NA
ATOM     21  C   UNL     1      18.163   6.499  20.460  0.00  0.00    +0.041 A 
ATOM     22  C   UNL     1      19.154   5.578  20.137  0.00  0.00    +0.017 A 
ATOM     23  C   UNL     1      18.359   7.297  21.574  0.00  0.00    +0.124 A 
ATOM     24  C   UNL     1      20.294   5.486  20.928  0.00  0.00    +0.047 A 
ATOM     25  C   UNL     1      20.395   6.330  22.021  0.00  0.00    +0.139 A 
BRANCH  25   7
ATOM      7  N   UNL     1      21.529   6.241  22.812  0.00  0.00    -0.290 N 
ATOM      8  N   UNL     1      23.315   5.362  23.798  0.00  0.00    -0.244 NA
ATOM     26  C   UNL     1      22.077   7.245  23.560  0.00  0.00    +0.114 A 
ATOM     27  C   UNL     1      22.307   5.130  22.988  0.00  0.00    +0.205 A 
ATOM     28  C   UNL     1      23.177   6.679  24.159  0.00  0.00    +0.130 A 
ENDBRANCH  25   7
ENDBRANCH  20  21
BRANCH  18  10
ATOM      2  N   UNL     1      13.953   9.532  19.093  0.00  0.00    -0.288 NA
ATOM     10  C   UNL     1      13.982   8.178  18.505  0.00  0.00    +0.146 C 
ATOM     11  C   UNL     1      13.195  10.370  18.164  0.00  0.00    +0.085 C 
ATOM     14  C   UNL     1      13.876   8.408  16.987  0.00  0.00    +0.030 C 
ATOM     15  C   UNL     1      13.731   9.914  16.821  0.00  0.00    +0.017 C 
BRANCH   2   9
ATOM      3  N   UNL     1      11.554  10.751  22.382  0.00  0.00    -0.305 NA
ATOM      9  C   UNL     1      13.394   9.562  20.442  0.00  0.00    +0.060 C 
ATOM     12  C   UNL     1      13.681  10.903  21.125  0.00  0.00    +0.034 C 
ATOM     13  C   UNL     1      11.885   9.312  20.396  0.00  0.00    +0.034 C 
ATOM     16  C   UNL     1      13.001  10.977  22.495  0.00  0.00    +0.085 C 
ATOM     17  C   UNL     1      11.264   9.438  21.790  0.00  0.00    +0.085 C 
ATOM     19  C   UNL     1      10.913  10.875  23.691  0.00  0.00    +0.104 C 
ENDBRANCH   2   9
ENDBRANCH  18  10
TORSDOF 4
ENDMDL
MODEL 4
REMARK VINA RESULT:      -6.8      1.765      2.457
REMARK  Name = 45783666
REMARK  5 active torsions:
REMARK  status: ('A' for Active; 'I' for Inactive)
REMARK    1  A    between atoms: N_2  and  C_9
REMARK    2  A    between atoms: N_3  and  C_19
REMARK    3  A    between atoms: N_7  and  C_25
REMARK    4  A    between atoms: C_10  and  C_18
REMARK    5  A    between atoms: C_20  and  C_21
REMARK                            x       y       z     vdW  Elec       q    Type
REMARK                         _______ _______ _______ _____ _____    ______ ____
ROOT
ATOM      1  O   UNL     1      14.448   6.765  19.295  0.00  0.00    -0.336 OA
ATOM      4  N   UNL     1      15.674   7.796  20.863  0.00  0.00    -0.190 NA
ATOM      5  N   UNL     1      15.727   6.199  19.225  0.00  0.00    -0.056 NA
ATOM     18  C   UNL     1      14.503   7.696  20.284  0.00  0.00    +0.245 A 
ATOM     20  C   UNL     1      16.392   6.858  20.178  0.00  0.00    +0.204 A 
ENDROOT
BRANCH  20  21
ATOM      6  N   UNL     1      19.756   5.276  20.089  0.00  0.00    -0.237 NA
ATOM     21  C   UNL     1      17.773   6.605  20.472  0.00  0.00    +0.041 A 
ATOM     22  C   UNL     1      18.468   7.391  21.385  0.00  0.00    +0.017 A 
ATOM     23  C   UNL     1      18.456   5.570  19.857  0.00  0.00    +0.124 A 
ATOM     24  C   UNL     1      19.806   7.121  21.651  0.00  0.00    +0.047 A 
ATOM     25  C   UNL     1      20.398   6.062  20.982  0.00  0.00    +0.139 A 
BRANCH  25   7
ATOM      7  N   UNL     1      21.731   5.789  21.244  0.00  0.00    -0.290 N 
ATOM      8  N   UNL     1      23.769   4.942  20.995  0.00  0.00    -0.244 NA
ATOM     26  C   UNL     1      22.460   6.247  22.305  0.00  0.00    +0.114 A 
ATOM     27  C   UNL     1      22.560   5.009  20.485  0.00  0.00    +0.205 A 
ATOM     28  C   UNL     1      23.714   5.711  22.129  0.00  0.00    +0.130 A 
ENDBRANCH  25   7
ENDBRANCH  20  21
BRANCH  18  10
ATOM      2  N   UNL     1      12.235   8.328  19.476  0.00  0.00    -0.288 NA
ATOM     10  C   UNL     1      13.226   8.460  20.564  0.00  0.00    +0.146 C 
ATOM     11  C   UNL     1      10.918   8.453  20.100  0.00  0.00    +0.085 C 
ATOM     14  C   UNL     1      12.495   7.956  21.822  0.00  0.00    +0.030 C 
ATOM     15  C   UNL     1      11.085   7.622  21.356  0.00  0.00    +0.017 C 
BRANCH   2   9
ATOM      3  N   UNL     1      14.153  10.477  16.351  0.00  0.00    -0.305 NA
ATOM      9  C   UNL     1      12.429   9.297  18.401  0.00  0.00    +0.060 C 
ATOM     12  C   UNL     1      13.552  10.281  18.745  0.00  0.00    +0.034 C 
ATOM     13  C   UNL     1      12.750   8.576  17.089  0.00  0.00    +0.034 C 
ATOM     16  C   UNL     1      13.830  11.226  17.573  0.00  0.00    +0.085 C 
ATOM     17  C   UNL     1      13.054   9.578  15.972  0.00  0.00    +0.085 C 
ATOM     19  C   UNL     1      14.464  11.394  15.255  0.00  0.00    +0.104 C 
ENDBRANCH   2   9
ENDBRANCH  18  10
TORSDOF 4
ENDMDL
MODEL 5
REMARK VINA RESULT:      -6.8      2.843      4.368
REMARK  Name = 45783666
REMARK  5 active torsions:
REMARK  status: ('A' for Active; 'I' for Inactive)
REMARK    1  A    between atoms: N_2  and  C_9
REMARK    2  A    between atoms: N_3  and  C_19
REMARK    3  A    between atoms: N_7  and  C_25
REMARK    4  A    between atoms: C_10  and  C_18
REMARK    5  A    between atoms: C_20  and  C_21
REMARK                            x       y       z     vdW  Elec       q    Type
REMARK                         _______ _______ _______ _____ _____    ______ ____
ROOT
ATOM      1  O   UNL     1      13.870   7.216  20.258  0.00  0.00    -0.336 OA
ATOM      4  N   UNL     1      15.736   8.346  19.744  0.00  0.00    -0.190 NA
ATOM      5  N   UNL     1      14.939   6.366  20.569  0.00  0.00    -0.056 NA
ATOM     18  C   UNL     1      14.426   8.360  19.779  0.00  0.00    +0.245 A 
ATOM     20  C   UNL     1      16.003   7.102  20.238  0.00  0.00    +0.204 A 
ENDROOT
BRANCH  20  21
ATOM      6  N   UNL     1      19.093   5.111  19.675  0.00  0.00    -0.237 NA
ATOM     21  C   UNL     1      17.348   6.625  20.388  0.00  0.00    +0.041 A 
ATOM     22  C   UNL     1      18.200   7.168  21.344  0.00  0.00    +0.017 A 
ATOM     23  C   UNL     1      17.839   5.609  19.585  0.00  0.00    +0.124 A 
ATOM     24  C   UNL     1      19.498   6.683  21.466  0.00  0.00    +0.047 A 
ATOM     25  C   UNL     1      19.892   5.664  20.615  0.00  0.00    +0.139 A 
BRANCH  25   7
ATOM      7  N   UNL     1      21.185   5.178  20.734  0.00  0.00    -0.290 N 
ATOM      8  N   UNL     1      22.845   3.748  21.097  0.00  0.00    -0.244 NA
ATOM     26  C   UNL     1      22.337   5.885  20.540  0.00  0.00    +0.114 A 
ATOM     27  C   UNL     1      21.540   3.900  21.067  0.00  0.00    +0.205 A 
ATOM     28  C   UNL     1      23.348   4.982  20.770  0.00  0.00    +0.130 A 
ENDBRANCH  25   7
ENDBRANCH  20  21
BRANCH  18  10
ATOM      2  N   UNL     1      13.810  10.764  19.961  0.00  0.00    -0.288 NA
ATOM     10  C   UNL     1      13.467   9.456  19.367  0.00  0.00    +0.146 C 
ATOM     11  C   UNL     1      13.342  11.782  19.019  0.00  0.00    +0.085 C 
ATOM     14  C   UNL     1      13.466   9.705  17.847  0.00  0.00    +0.030 C 
ATOM     15  C   UNL     1      13.758  11.190  17.687  0.00  0.00    +0.017 C 
BRANCH   2   9
ATOM      3  N   UNL     1      11.231  12.159  23.038  0.00  0.00    -0.305 NA
ATOM      9  C   UNL     1      13.252  10.954  21.297  0.00  0.00    +0.060 C 
ATOM     12  C   UNL     1      13.302  12.428  21.709  0.00  0.00    +0.034 C 
ATOM     13  C   UNL     1      11.809  10.447  21.346  0.00  0.00    +0.034 C 
ATOM     16  C   UNL     1      12.618  12.644  23.061  0.00  0.00    +0.085 C 
ATOM     17  C   UNL     1      11.173  10.727  22.710  0.00  0.00    +0.085 C 
ATOM     19  C   UNL     1      10.576  12.417  24.320  0.00  0.00    +0.104 C 
ENDBRANCH   2   9
ENDBRANCH  18  10
TORSDOF 4
ENDMDL
MODEL 6
REMARK VINA RESULT:      -6.7      2.698      9.531
REMARK  Name = 45783666
REMARK  5 active torsions:
REMARK  status: ('A' for Active; 'I' for Inactive)
REMARK    1  A    between atoms: N_2  and  C_9
REMARK    2  A    between atoms: N_3  and  C_19
REMARK    3  A    between atoms: N_7  and  C_25
REMARK    4  A    between atoms: C_10  and  C_18
REMARK    5  A    between atoms: C_20  and  C_21
REMARK                            x       y       z     vdW  Elec       q    Type
REMARK                         _______ _______ _______ _____ _____    ______ ____
ROOT
ATOM      1  O   UNL     1      21.036   6.004  22.311  0.00  0.00    -0.336 OA
ATOM      4  N   UNL     1      20.173   5.066  20.468  0.00  0.00    -0.190 NA
ATOM      5  N   UNL     1      19.803   6.632  22.095  0.00  0.00    -0.056 NA
ATOM     18  C   UNL     1      21.177   5.097  21.309  0.00  0.00    +0.245 A 
ATOM     20  C   UNL     1      19.356   6.026  20.992  0.00  0.00    +0.204 A 
ENDROOT
BRANCH  20  21
ATOM      6  N   UNL     1      16.481   5.953  18.633  0.00  0.00    -0.237 NA
ATOM     21  C   UNL     1      18.098   6.356  20.386  0.00  0.00    +0.041 A 
ATOM     22  C   UNL     1      17.286   7.353  20.916  0.00  0.00    +0.017 A 
ATOM     23  C   UNL     1      17.654   5.692  19.255  0.00  0.00    +0.124 A 
ATOM     24  C   UNL     1      16.073   7.651  20.305  0.00  0.00    +0.047 A 
ATOM     25  C   UNL     1      15.719   6.929  19.177  0.00  0.00    +0.139 A 
BRANCH  25   7
ATOM      7  N   UNL     1      14.511   7.223  18.566  0.00  0.00    -0.290 N 
ATOM      8  N   UNL     1      13.067   7.792  16.977  0.00  0.00    -0.244 NA
ATOM     26  C   UNL     1      13.280   7.213  19.158  0.00  0.00    +0.114 A 
ATOM     27  C   UNL     1      14.332   7.576  17.257  0.00  0.00    +0.205 A 
ATOM     28  C   UNL     1      12.405   7.568  18.158  0.00  0.00    +0.130 A 
ENDBRANCH  25   7
ENDBRANCH  20  21
BRANCH  18  10
ATOM      2  N   UNL     1      23.640   5.071  21.666  0.00  0.00    -0.288 NA
ATOM     10  C   UNL     1      22.447   4.273  21.317  0.00  0.00    +0.146 C 
ATOM     11  C   UNL     1      24.577   4.153  22.313  0.00  0.00    +0.085 C 
ATOM     14  C   UNL     1      22.415   3.142  22.361  0.00  0.00    +0.030 C 
ATOM     15  C   UNL     1      23.659   3.351  23.214  0.00  0.00    +0.017 C 
BRANCH   2   9
ATOM      3  N   UNL     1      26.459   7.254  19.353  0.00  0.00    -0.305 NA
ATOM      9  C   UNL     1      24.237   5.746  20.516  0.00  0.00    +0.060 C 
ATOM     12  C   UNL     1      24.456   7.234  20.807  0.00  0.00    +0.034 C 
ATOM     13  C   UNL     1      25.567   5.085  20.146  0.00  0.00    +0.034 C 
ATOM     16  C   UNL     1      25.182   7.918  19.646  0.00  0.00    +0.085 C 
ATOM     17  C   UNL     1      26.256   5.840  19.006  0.00  0.00    +0.085 C 
ATOM     19  C   UNL     1      27.163   7.949  18.275  0.00  0.00    +0.104 C 
ENDBRANCH   2   9
ENDBRANCH  18  10
TORSDOF 4
ENDMDL
MODEL 7
REMARK VINA RESULT:      -6.6     32.025     33.239
REMARK  Name = 45783666
REMARK  5 active torsions:
REMARK  status: ('A' for Active; 'I' for Inactive)
REMARK    1  A    between atoms: N_2  and  C_9
REMARK    2  A    between atoms: N_3  and  C_19
REMARK    3  A    between atoms: N_7  and  C_25
REMARK    4  A    between atoms: C_10  and  C_18
REMARK    5  A    between atoms: C_20  and  C_21
REMARK                            x       y       z     vdW  Elec       q    Type
REMARK                         _______ _______ _______ _____ _____    ______ ____
ROOT
ATOM      1  O   UNL     1     -14.458  -5.485  14.051  0.00  0.00    -0.336 OA
ATOM      4  N   UNL     1     -12.227  -5.643  14.182  0.00  0.00    -0.190 NA
ATOM      5  N   UNL     1     -14.192  -6.431  15.048  0.00  0.00    -0.056 NA
ATOM     18  C   UNL     1     -13.248  -5.071  13.593  0.00  0.00    +0.245 A 
ATOM     20  C   UNL     1     -12.857  -6.469  15.067  0.00  0.00    +0.204 A 
ENDROOT
BRANCH  20  21
ATOM      6  N   UNL     1     -12.021  -9.364  17.246  0.00  0.00    -0.237 NA
ATOM     21  C   UNL     1     -12.121  -7.322  15.955  0.00  0.00    +0.041 A 
ATOM     22  C   UNL     1     -10.847  -6.975  16.391  0.00  0.00    +0.017 A 
ATOM     23  C   UNL     1     -12.658  -8.516  16.407  0.00  0.00    +0.124 A 
ATOM     24  C   UNL     1     -10.159  -7.821  17.254  0.00  0.00    +0.047 A 
ATOM     25  C   UNL     1     -10.784  -8.993  17.648  0.00  0.00    +0.139 A 
BRANCH  25   7
ATOM      7  N   UNL     1     -10.102  -9.840  18.508  0.00  0.00    -0.290 N 
ATOM      8  N   UNL     1      -9.674 -11.085  20.296  0.00  0.00    -0.244 NA
ATOM     26  C   UNL     1      -8.859 -10.370  18.306  0.00  0.00    +0.114 A 
ATOM     27  C   UNL     1     -10.551 -10.297  19.716  0.00  0.00    +0.205 A 
ATOM     28  C   UNL     1      -8.617 -11.135  19.423  0.00  0.00    +0.130 A 
ENDBRANCH  25   7
ENDBRANCH  20  21
BRANCH  18  10
ATOM      2  N   UNL     1     -13.311  -4.629  11.144  0.00  0.00    -0.288 NA
ATOM     10  C   UNL     1     -13.262  -4.030  12.493  0.00  0.00    +0.146 C 
ATOM     11  C   UNL     1     -14.005  -3.666  10.289  0.00  0.00    +0.085 C 
ATOM     14  C   UNL     1     -14.496  -3.112  12.559  0.00  0.00    +0.030 C 
ATOM     15  C   UNL     1     -15.142  -3.214  11.184  0.00  0.00    +0.017 C 
BRANCH   2   9
ATOM      3  N   UNL     1     -10.302  -5.756   8.362  0.00  0.00    -0.305 NA
ATOM      9  C   UNL     1     -11.993  -4.979  10.621  0.00  0.00    +0.060 C 
ATOM     12  C   UNL     1     -11.987  -6.403  10.057  0.00  0.00    +0.034 C 
ATOM     13  C   UNL     1     -11.573  -3.985   9.535  0.00  0.00    +0.034 C 
ATOM     16  C   UNL     1     -10.639  -6.730   9.410  0.00  0.00    +0.085 C 
ATOM     17  C   UNL     1     -10.238  -4.392   8.905  0.00  0.00    +0.085 C 
ATOM     19  C   UNL     1      -9.037  -6.111   7.720  0.00  0.00    +0.104 C 
ENDBRANCH   2   9
ENDBRANCH  18  10
TORSDOF 4
ENDMDL
MODEL 8
REMARK VINA RESULT:      -6.5      6.772      8.990
REMARK  Name = 45783666
REMARK  5 active torsions:
REMARK  status: ('A' for Active; 'I' for Inactive)
REMARK    1  A    between atoms: N_2  and  C_9
REMARK    2  A    between atoms: N_3  and  C_19
REMARK    3  A    between atoms: N_7  and  C_25
REMARK    4  A    between atoms: C_10  and  C_18
REMARK    5  A    between atoms: C_20  and  C_21
REMARK                            x       y       z     vdW  Elec       q    Type
REMARK                         _______ _______ _______ _____ _____    ______ ____
ROOT
ATOM      1  O   UNL     1      11.990   7.710  18.348  0.00  0.00    -0.336 OA
ATOM      4  N   UNL     1      13.501   9.308  18.775  0.00  0.00    -0.190 NA
ATOM      5  N   UNL     1      12.388   8.213  17.103  0.00  0.00    -0.056 NA
ATOM     18  C   UNL     1      12.692   8.409  19.278  0.00  0.00    +0.245 A 
ATOM     20  C   UNL     1      13.279   9.150  17.438  0.00  0.00    +0.204 A 
ENDROOT
BRANCH  20  21
ATOM      6  N   UNL     1      15.138  10.070  14.352  0.00  0.00    -0.237 NA
ATOM     21  C   UNL     1      13.964   9.948  16.462  0.00  0.00    +0.041 A 
ATOM     22  C   UNL     1      14.133  11.316  16.644  0.00  0.00    +0.017 A 
ATOM     23  C   UNL     1      14.481   9.378  15.310  0.00  0.00    +0.124 A 
ATOM     24  C   UNL     1      14.803  12.062  15.680  0.00  0.00    +0.047 A 
ATOM     25  C   UNL     1      15.282  11.398  14.563  0.00  0.00    +0.139 A 
BRANCH  25   7
ATOM      7  N   UNL     1      15.951  12.138  13.600  0.00  0.00    -0.290 N 
ATOM      8  N   UNL     1      17.189  13.748  12.702  0.00  0.00    -0.244 NA
ATOM     26  C   UNL     1      16.011  11.863  12.264  0.00  0.00    +0.114 A 
ATOM     27  C   UNL     1      16.673  13.279  13.816  0.00  0.00    +0.205 A 
ATOM     28  C   UNL     1      16.780  12.870  11.731  0.00  0.00    +0.130 A 
ENDBRANCH  25   7
ENDBRANCH  20  21
BRANCH  18  10
ATOM      2  N   UNL     1      11.329   8.823  21.320  0.00  0.00    -0.288 NA
ATOM     10  C   UNL     1      12.439   8.049  20.727  0.00  0.00    +0.146 C 
ATOM     11  C   UNL     1      10.738   7.972  22.353  0.00  0.00    +0.085 C 
ATOM     14  C   UNL     1      12.031   6.576  20.910  0.00  0.00    +0.030 C 
ATOM     15  C   UNL     1      10.711   6.620  21.668  0.00  0.00    +0.017 C 
BRANCH   2   9
ATOM      3  N   UNL     1      12.746  11.726  24.081  0.00  0.00    -0.305 NA
ATOM      9  C   UNL     1      11.749  10.118  21.848  0.00  0.00    +0.060 C 
ATOM     12  C   UNL     1      10.848  10.556  23.007  0.00  0.00    +0.034 C 
ATOM     13  C   UNL     1      13.205  10.053  22.316  0.00  0.00    +0.034 C 
ATOM     16  C   UNL     1      11.353  11.858  23.632  0.00  0.00    +0.085 C 
ATOM     17  C   UNL     1      13.633  11.372  22.964  0.00  0.00    +0.085 C 
ATOM     19  C   UNL     1      13.197  12.962  24.721  0.00  0.00    +0.104 C 
ENDBRANCH   2   9
ENDBRANCH  18  10
TORSDOF 4
ENDMDL
MODEL 9
REMARK VINA RESULT:      -6.5      2.802      9.694
REMARK  Name = 45783666
REMARK  5 active torsions:
REMARK  status: ('A' for Active; 'I' for Inactive)
REMARK    1  A    between atoms: N_2  and  C_9
REMARK    2  A    between atoms: N_3  and  C_19
REMARK    3  A    between atoms: N_7  and  C_25
REMARK    4  A    between atoms: C_10  and  C_18
REMARK    5  A    between atoms: C_20  and  C_21
REMARK                            x       y       z     vdW  Elec       q    Type
REMARK                         _______ _______ _______ _____ _____    ______ ____
ROOT
ATOM      1  O   UNL     1      12.789   7.563  17.184  0.00  0.00    -0.336 OA
ATOM      4  N   UNL     1      14.372   9.089  17.614  0.00  0.00    -0.190 NA
ATOM      5  N   UNL     1      12.794   8.438  16.091  0.00  0.00    -0.056 NA
ATOM     18  C   UNL     1      13.747   8.017  18.034  0.00  0.00    +0.245 A 
ATOM     20  C   UNL     1      13.753   9.309  16.418  0.00  0.00    +0.204 A 
ENDROOT
BRANCH  20  21
ATOM      6  N   UNL     1      13.498  11.963  13.825  0.00  0.00    -0.237 NA
ATOM     21  C   UNL     1      14.115  10.410  15.574  0.00  0.00    +0.041 A 
ATOM     22  C   UNL     1      15.377  10.990  15.654  0.00  0.00    +0.017 A 
ATOM     23  C   UNL     1      13.221  10.929  14.652  0.00  0.00    +0.124 A 
ATOM     24  C   UNL     1      15.700  12.056  14.821  0.00  0.00    +0.047 A 
ATOM     25  C   UNL     1      14.734  12.501  13.933  0.00  0.00    +0.139 A 
BRANCH  25   7
ATOM      7  N   UNL     1      15.052  13.563  13.100  0.00  0.00    -0.290 N 
ATOM      8  N   UNL     1      14.782  15.219  11.646  0.00  0.00    -0.244 NA
ATOM     26  C   UNL     1      16.295  14.096  12.905  0.00  0.00    +0.114 A 
ATOM     27  C   UNL     1      14.177  14.270  12.323  0.00  0.00    +0.205 A 
ATOM     28  C   UNL     1      16.103  15.116  12.004  0.00  0.00    +0.130 A 
ENDBRANCH  25   7
ENDBRANCH  20  21
BRANCH  18  10
ATOM      2  N   UNL     1      14.756   7.959  20.309  0.00  0.00    -0.288 NA
ATOM     10  C   UNL     1      13.944   7.231  19.313  0.00  0.00    +0.146 C 
ATOM     11  C   UNL     1      14.306   7.502  21.624  0.00  0.00    +0.085 C 
ATOM     14  C   UNL     1      12.618   6.929  20.035  0.00  0.00    +0.030 C 
ATOM     15  C   UNL     1      12.801   7.470  21.447  0.00  0.00    +0.017 C 
BRANCH   2   9
ATOM      3  N   UNL     1      18.694   6.488  20.936  0.00  0.00    -0.305 NA
ATOM      9  C   UNL     1      16.194   7.774  20.125  0.00  0.00    +0.060 C 
ATOM     12  C   UNL     1      16.966   8.206  21.374  0.00  0.00    +0.034 C 
ATOM     13  C   UNL     1      16.502   6.311  19.799  0.00  0.00    +0.034 C 
ATOM     16  C   UNL     1      18.461   7.910  21.224  0.00  0.00    +0.085 C 
ATOM     17  C   UNL     1      18.012   6.077  19.701  0.00  0.00    +0.085 C 
ATOM     19  C   UNL     1      20.128   6.212  20.845  0.00  0.00    +0.104 C 
ENDBRANCH   2   9
ENDBRANCH  18  10
TORSDOF 4
ENDMDL
MODEL 10
REMARK VINA RESULT:      -6.4     28.373     32.246
REMARK  Name = 45783666
REMARK  5 active torsions:
REMARK  status: ('A' for Active; 'I' for Inactive)
REMARK    1  A    between atoms: N_2  and  C_9
REMARK    2  A    between atoms: N_3  and  C_19
REMARK    3  A    between atoms: N_7  and  C_25
REMARK    4  A    between atoms: C_10  and  C_18
REMARK    5  A    between atoms: C_20  and  C_21
REMARK                            x       y       z     vdW  Elec       q    Type
REMARK                         _______ _______ _______ _____ _____    ______ ____
ROOT
ATOM      1  O   UNL     1      -9.174 -11.629  16.157  0.00  0.00    -0.336 OA
ATOM      4  N   UNL     1      -8.714  -9.472  16.551  0.00  0.00    -0.190 NA
ATOM      5  N   UNL     1     -10.144 -10.891  15.467  0.00  0.00    -0.056 NA
ATOM     18  C   UNL     1      -8.372 -10.718  16.768  0.00  0.00    +0.245 A 
ATOM     20  C   UNL     1      -9.806  -9.630  15.748  0.00  0.00    +0.204 A 
ENDROOT
BRANCH  20  21
ATOM      6  N   UNL     1     -12.090  -7.609  13.620  0.00  0.00    -0.237 NA
ATOM     21  C   UNL     1     -10.539  -8.504  15.244  0.00  0.00    +0.041 A 
ATOM     22  C   UNL     1     -10.431  -7.253  15.841  0.00  0.00    +0.017 A 
ATOM     23  C   UNL     1     -11.374  -8.628  14.147  0.00  0.00    +0.124 A 
ATOM     24  C   UNL     1     -11.152  -6.180  15.329  0.00  0.00    +0.047 A 
ATOM     25  C   UNL     1     -11.961  -6.408  14.227  0.00  0.00    +0.139 A 
BRANCH  25   7
ATOM      7  N   UNL     1     -12.681  -5.342  13.714  0.00  0.00    -0.290 N 
ATOM      8  N   UNL     1     -13.103  -3.412  12.699  0.00  0.00    -0.244 NA
ATOM     26  C   UNL     1     -14.037  -5.184  13.758  0.00  0.00    +0.114 A 
ATOM     27  C   UNL     1     -12.163  -4.253  13.068  0.00  0.00    +0.205 A 
ATOM     28  C   UNL     1     -14.274  -3.986  13.126  0.00  0.00    +0.130 A 
ENDBRANCH  25   7
ENDBRANCH  20  21
BRANCH  18  10
ATOM      2  N   UNL     1      -5.967 -10.528  17.378  0.00  0.00    -0.288 NA
ATOM     10  C   UNL     1      -7.227 -11.270  17.590  0.00  0.00    +0.146 C 
ATOM     11  C   UNL     1      -5.209 -10.637  18.625  0.00  0.00    +0.085 C 
ATOM     14  C   UNL     1      -7.485 -11.179  19.105  0.00  0.00    +0.030 C 
ATOM     15  C   UNL     1      -6.289 -10.423  19.668  0.00  0.00    +0.017 C 
BRANCH   2   9
ATOM      3  N   UNL     1      -3.146 -10.541  14.200  0.00  0.00    -0.305 NA
ATOM      9  C   UNL     1      -5.204 -11.006  16.228  0.00  0.00    +0.060 C 
ATOM     12  C   UNL     1      -5.450 -10.122  15.002  0.00  0.00    +0.034 C 
ATOM     13  C   UNL     1      -3.709 -11.036  16.559  0.00  0.00    +0.034 C 
ATOM     16  C   UNL     1      -4.567 -10.555  13.828  0.00  0.00    +0.085 C 
ATOM     17  C   UNL     1      -2.884 -11.438  15.335  0.00  0.00    +0.085 C 
ATOM     19  C   UNL     1      -2.313 -10.909  13.055  0.00  0.00    +0.104 C 
ENDBRANCH   2   9
ENDBRANCH  18  10
TORSDOF 4
ENDMDL
