MODEL 1
REMARK VINA RESULT:      -7.6      0.000      0.000
REMARK  Name = 40777681
REMARK  7 active torsions:
REMARK  status: ('A' for Active; 'I' for Inactive)
REMARK    1  A    between atoms: N_5  and  C_9
REMARK    2  A    between atoms: N_6  and  C_25
REMARK    3  A    between atoms: C_8  and  C_17
REMARK    4  A    between atoms: C_12  and  C_18
REMARK    5  A    between atoms: C_21  and  C_23
REMARK    6  A    between atoms: C_22  and  C_24
REMARK    7  A    between atoms: C_30  and  C_31
REMARK                            x       y       z     vdW  Elec       q    Type
REMARK                         _______ _______ _______ _____ _____    ______ ____
ROOT
ATOM      6  N   UNL     1      17.327   7.528  20.642  0.00  0.00    -0.236 N 
ATOM      7  N   UNL     1      17.785   8.334  21.615  0.00  0.00    -0.171 NA
ATOM     18  C   UNL     1      19.317   6.732  21.060  0.00  0.00    +0.003 A 
ATOM     21  C   UNL     1      18.206   6.552  20.274  0.00  0.00    +0.046 A 
ATOM     22  C   UNL     1      19.002   7.843  21.866  0.00  0.00    +0.064 A 
ATOM     23  C   UNL     1      17.915   5.552  19.226  0.00  0.00    +0.066 C 
ATOM     24  C   UNL     1      19.839   8.476  22.900  0.00  0.00    +0.068 C 
ENDROOT
BRANCH   6  25
ATOM     25  C   UNL     1      16.053   7.740  20.111  0.00  0.00    +0.066 A 
ATOM     26  C   UNL     1      15.084   6.740  20.202  0.00  0.00    +0.028 A 
ATOM     27  C   UNL     1      15.751   8.951  19.488  0.00  0.00    +0.028 A 
ATOM     28  C   UNL     1      13.814   6.951  19.668  0.00  0.00    +0.014 A 
ATOM     29  C   UNL     1      14.479   9.161  18.953  0.00  0.00    +0.014 A 
ATOM     30  C   UNL     1      13.511   8.161  19.044  0.00  0.00    +0.055 A 
BRANCH  30  31
ATOM      1  F   UNL     1      11.794   7.461  17.532  0.00  0.00    -0.166 F 
ATOM      2  F   UNL     1      12.033   9.598  17.858  0.00  0.00    -0.166 F 
ATOM      3  F   UNL     1      11.153   8.348  19.405  0.00  0.00    -0.166 F 
ATOM     31  C   UNL     1      12.151   8.385  18.473  0.00  0.00    +0.417 C 
ENDBRANCH  30  31
ENDBRANCH   6  25
BRANCH  18  12
ATOM      9  C   UNL     1      23.019   6.202  21.274  0.00  0.00    +0.097 C 
ATOM     12  C   UNL     1      20.591   5.919  21.059  0.00  0.00    +0.047 C 
ATOM     13  C   UNL     1      21.800   6.680  20.476  0.00  0.00    +0.039 C 
ATOM     19  C   UNL     1      22.408   5.676  22.531  0.00  0.00    -0.009 C 
ATOM     20  C   UNL     1      21.084   5.524  22.420  0.00  0.00    -0.021 C 
BRANCH   9   5
ATOM      4  O   UNL     1      25.744   5.347  21.772  0.00  0.00    -0.275 OA
ATOM      5  N   UNL     1      23.734   5.140  20.617  0.00  0.00    -0.309 N 
ATOM     17  C   UNL     1      25.042   4.803  20.925  0.00  0.00    +0.217 C 
ATOM     32  H   UNL     1      23.223   4.571  19.948  0.00  0.00    +0.149 HD
BRANCH  17   8
ATOM      8  C   UNL     1      25.537   3.645  20.107  0.00  0.00    +0.075 C 
ATOM     10  C   UNL     1      24.410   2.632  19.895  0.00  0.00    +0.013 C 
ATOM     11  C   UNL     1      26.784   3.022  20.737  0.00  0.00    +0.013 C 
ATOM     14  C   UNL     1      24.128   1.783  21.134  0.00  0.00    +0.001 C 
ATOM     15  C   UNL     1      26.480   2.154  21.958  0.00  0.00    +0.001 C 
ATOM     16  C   UNL     1      25.394   1.123  21.665  0.00  0.00    +0.000 C 
ENDBRANCH  17   8
ENDBRANCH   9   5
ENDBRANCH  18  12
TORSDOF 5
ENDMDL
MODEL 2
REMARK VINA RESULT:      -7.0     30.226     33.125
REMARK  Name = 40777681
REMARK  7 active torsions:
REMARK  status: ('A' for Active; 'I' for Inactive)
REMARK    1  A    between atoms: N_5  and  C_9
REMARK    2  A    between atoms: N_6  and  C_25
REMARK    3  A    between atoms: C_8  and  C_17
REMARK    4  A    between atoms: C_12  and  C_18
REMARK    5  A    between atoms: C_21  and  C_23
REMARK    6  A    between atoms: C_22  and  C_24
REMARK    7  A    between atoms: C_30  and  C_31
REMARK                            x       y       z     vdW  Elec       q    Type
REMARK                         _______ _______ _______ _____ _____    ______ ____
ROOT
ATOM      6  N   UNL     1      -9.523 -11.091  19.301  0.00  0.00    -0.236 N 
ATOM      7  N   UNL     1      -8.459 -10.816  20.075  0.00  0.00    -0.171 NA
ATOM     18  C   UNL     1      -7.840 -11.234  17.916  0.00  0.00    +0.003 A 
ATOM     21  C   UNL     1      -9.206 -11.349  17.999  0.00  0.00    +0.046 A 
ATOM     22  C   UNL     1      -7.434 -10.904  19.223  0.00  0.00    +0.064 A 
ATOM     23  C   UNL     1     -10.213 -11.677  16.970  0.00  0.00    +0.066 C 
ATOM     24  C   UNL     1      -6.064 -10.664  19.711  0.00  0.00    +0.068 C 
ENDROOT
BRANCH   6  25
ATOM     25  C   UNL     1     -10.802 -11.092  19.859  0.00  0.00    +0.066 A 
ATOM     26  C   UNL     1     -11.350 -12.278  20.346  0.00  0.00    +0.028 A 
ATOM     27  C   UNL     1     -11.534  -9.906  19.925  0.00  0.00    +0.028 A 
ATOM     28  C   UNL     1     -12.630 -12.279  20.900  0.00  0.00    +0.014 A 
ATOM     29  C   UNL     1     -12.815  -9.907  20.478  0.00  0.00    +0.014 A 
ATOM     30  C   UNL     1     -13.362 -11.093  20.966  0.00  0.00    +0.055 A 
BRANCH  30  31
ATOM      1  F   UNL     1     -14.767 -11.524  22.854  0.00  0.00    -0.166 F 
ATOM      2  F   UNL     1     -15.595 -11.906  20.880  0.00  0.00    -0.166 F 
ATOM      3  F   UNL     1     -15.322  -9.864  21.574  0.00  0.00    -0.166 F 
ATOM     31  C   UNL     1     -14.732 -11.096  21.557  0.00  0.00    +0.417 C 
ENDBRANCH  30  31
ENDBRANCH   6  25
BRANCH  18  12
ATOM      9  C   UNL     1      -5.101 -10.352  15.518  0.00  0.00    +0.097 C 
ATOM     12  C   UNL     1      -6.970 -11.422  16.694  0.00  0.00    +0.047 C 
ATOM     13  C   UNL     1      -6.510 -10.091  16.064  0.00  0.00    +0.039 C 
ATOM     19  C   UNL     1      -4.654 -11.540  16.306  0.00  0.00    -0.009 C 
ATOM     20  C   UNL     1      -5.670 -12.124  16.952  0.00  0.00    -0.021 C 
BRANCH   9   5
ATOM      4  O   UNL     1      -2.824 -10.380  13.723  0.00  0.00    -0.275 OA
ATOM      5  N   UNL     1      -5.098 -10.686  14.119  0.00  0.00    -0.309 N 
ATOM     17  C   UNL     1      -3.954 -10.671  13.338  0.00  0.00    +0.217 C 
ATOM     32  H   UNL     1      -5.968 -11.017  13.711  0.00  0.00    +0.149 HD
BRANCH  17   8
ATOM      8  C   UNL     1      -4.228 -11.083  11.921  0.00  0.00    +0.075 C 
ATOM     10  C   UNL     1      -2.955 -10.957  11.081  0.00  0.00    +0.013 C 
ATOM     11  C   UNL     1      -5.403 -10.296  11.337  0.00  0.00    +0.013 C 
ATOM     14  C   UNL     1      -2.620  -9.512  10.715  0.00  0.00    +0.001 C 
ATOM     15  C   UNL     1      -5.043  -8.862  10.951  0.00  0.00    +0.001 C 
ATOM     16  C   UNL     1      -3.804  -8.807  10.064  0.00  0.00    +0.000 C 
ENDBRANCH  17   8
ENDBRANCH   9   5
ENDBRANCH  18  12
TORSDOF 5
ENDMDL
MODEL 3
REMARK VINA RESULT:      -6.9     29.969     34.753
REMARK  Name = 40777681
REMARK  7 active torsions:
REMARK  status: ('A' for Active; 'I' for Inactive)
REMARK    1  A    between atoms: N_5  and  C_9
REMARK    2  A    between atoms: N_6  and  C_25
REMARK    3  A    between atoms: C_8  and  C_17
REMARK    4  A    between atoms: C_12  and  C_18
REMARK    5  A    between atoms: C_21  and  C_23
REMARK    6  A    between atoms: C_22  and  C_24
REMARK    7  A    between atoms: C_30  and  C_31
REMARK                            x       y       z     vdW  Elec       q    Type
REMARK                         _______ _______ _______ _____ _____    ______ ____
ROOT
ATOM      6  N   UNL     1      -7.355 -10.025  16.980  0.00  0.00    -0.236 N 
ATOM      7  N   UNL     1      -7.857  -8.785  16.854  0.00  0.00    -0.171 NA
ATOM     18  C   UNL     1      -9.385 -10.220  17.762  0.00  0.00    +0.003 A 
ATOM     21  C   UNL     1      -8.230 -10.923  17.520  0.00  0.00    +0.046 A 
ATOM     22  C   UNL     1      -9.098  -8.911  17.333  0.00  0.00    +0.064 A 
ATOM     23  C   UNL     1      -7.896 -12.342  17.750  0.00  0.00    +0.066 C 
ATOM     24  C   UNL     1      -9.986  -7.735  17.361  0.00  0.00    +0.068 C 
ENDROOT
BRANCH   6  25
ATOM     25  C   UNL     1      -6.046 -10.287  16.573  0.00  0.00    +0.066 A 
ATOM     26  C   UNL     1      -5.032 -10.416  17.522  0.00  0.00    +0.028 A 
ATOM     27  C   UNL     1      -5.751 -10.415  15.215  0.00  0.00    +0.028 A 
ATOM     28  C   UNL     1      -3.724 -10.672  17.114  0.00  0.00    +0.014 A 
ATOM     29  C   UNL     1      -4.442 -10.672  14.807  0.00  0.00    +0.014 A 
ATOM     30  C   UNL     1      -3.429 -10.801  15.756  0.00  0.00    +0.055 A 
BRANCH  30  31
ATOM      1  F   UNL     1      -1.848 -12.333  14.820  0.00  0.00    -0.166 F 
ATOM      2  F   UNL     1      -1.129 -10.953  16.339  0.00  0.00    -0.166 F 
ATOM      3  F   UNL     1      -1.587 -10.235  14.338  0.00  0.00    -0.166 F 
ATOM     31  C   UNL     1      -2.029 -11.075  15.321  0.00  0.00    +0.417 C 
ENDBRANCH  30  31
ENDBRANCH   6  25
BRANCH  18  12
ATOM      9  C   UNL     1     -12.442 -10.073  19.923  0.00  0.00    +0.097 C 
ATOM     12  C   UNL     1     -10.674 -10.740  18.356  0.00  0.00    +0.047 C 
ATOM     13  C   UNL     1     -10.923 -10.248  19.797  0.00  0.00    +0.039 C 
ATOM     19  C   UNL     1     -12.879  -9.935  18.501  0.00  0.00    -0.009 C 
ATOM     20  C   UNL     1     -11.917 -10.294  17.644  0.00  0.00    -0.021 C 
BRANCH   9   5
ATOM      4  O   UNL     1     -15.085 -10.184  21.110  0.00  0.00    -0.275 OA
ATOM      5  N   UNL     1     -13.088 -11.218  20.506  0.00  0.00    -0.309 N 
ATOM     17  C   UNL     1     -14.360 -11.174  21.052  0.00  0.00    +0.217 C 
ATOM     32  H   UNL     1     -12.609 -12.112  20.445  0.00  0.00    +0.149 HD
BRANCH  17   8
ATOM      8  C   UNL     1     -14.802 -12.512  21.570  0.00  0.00    +0.075 C 
ATOM     10  C   UNL     1     -16.037 -12.350  22.460  0.00  0.00    +0.013 C 
ATOM     11  C   UNL     1     -13.654 -13.235  22.277  0.00  0.00    +0.013 C 
ATOM     14  C   UNL     1     -15.707 -11.796  23.845  0.00  0.00    +0.001 C 
ATOM     15  C   UNL     1     -13.357 -12.686  23.672  0.00  0.00    +0.001 C 
ATOM     16  C   UNL     1     -14.614 -12.607  24.531  0.00  0.00    +0.000 C 
ENDBRANCH  17   8
ENDBRANCH   9   5
ENDBRANCH  18  12
TORSDOF 5
ENDMDL
MODEL 4
REMARK VINA RESULT:      -6.9      1.547      2.340
REMARK  Name = 40777681
REMARK  7 active torsions:
REMARK  status: ('A' for Active; 'I' for Inactive)
REMARK    1  A    between atoms: N_5  and  C_9
REMARK    2  A    between atoms: N_6  and  C_25
REMARK    3  A    between atoms: C_8  and  C_17
REMARK    4  A    between atoms: C_12  and  C_18
REMARK    5  A    between atoms: C_21  and  C_23
REMARK    6  A    between atoms: C_22  and  C_24
REMARK    7  A    between atoms: C_30  and  C_31
REMARK                            x       y       z     vdW  Elec       q    Type
REMARK                         _______ _______ _______ _____ _____    ______ ____
ROOT
ATOM      6  N   UNL     1      16.806   8.423  21.177  0.00  0.00    -0.236 N 
ATOM      7  N   UNL     1      17.429   9.531  21.611  0.00  0.00    -0.171 NA
ATOM     18  C   UNL     1      18.907   7.828  21.241  0.00  0.00    +0.003 A 
ATOM     21  C   UNL     1      17.646   7.374  20.941  0.00  0.00    +0.046 A 
ATOM     22  C   UNL     1      18.713   9.162  21.648  0.00  0.00    +0.064 A 
ATOM     23  C   UNL     1      17.183   6.057  20.460  0.00  0.00    +0.066 C 
ATOM     24  C   UNL     1      19.733  10.131  22.087  0.00  0.00    +0.068 C 
ENDROOT
BRANCH   6  25
ATOM     25  C   UNL     1      15.420   8.429  21.010  0.00  0.00    +0.066 A 
ATOM     26  C   UNL     1      14.867   8.805  19.786  0.00  0.00    +0.028 A 
ATOM     27  C   UNL     1      14.589   8.062  22.068  0.00  0.00    +0.028 A 
ATOM     28  C   UNL     1      13.482   8.815  19.621  0.00  0.00    +0.014 A 
ATOM     29  C   UNL     1      13.204   8.073  21.903  0.00  0.00    +0.014 A 
ATOM     30  C   UNL     1      12.651   8.448  20.679  0.00  0.00    +0.055 A 
BRANCH  30  31
ATOM      1  F   UNL     1      10.541   9.444  21.211  0.00  0.00    -0.166 F 
ATOM      2  F   UNL     1      10.584   7.293  20.896  0.00  0.00    -0.166 F 
ATOM      3  F   UNL     1      10.776   8.648  19.207  0.00  0.00    -0.166 F 
ATOM     31  C   UNL     1      11.170   8.460  20.501  0.00  0.00    +0.417 C 
ENDBRANCH  30  31
ENDBRANCH   6  25
BRANCH  18  12
ATOM      9  C   UNL     1      21.341   5.131  22.153  0.00  0.00    +0.097 C 
ATOM     12  C   UNL     1      20.209   7.066  21.154  0.00  0.00    +0.047 C 
ATOM     13  C   UNL     1      20.648   6.455  22.500  0.00  0.00    +0.039 C 
ATOM     19  C   UNL     1      20.797   4.817  20.798  0.00  0.00    -0.009 C 
ATOM     20  C   UNL     1      20.175   5.868  20.251  0.00  0.00    -0.021 C 
BRANCH   9   5
ATOM      4  O   UNL     1      23.325   3.141  22.867  0.00  0.00    -0.275 OA
ATOM      5  N   UNL     1      22.772   5.257  22.069  0.00  0.00    -0.309 N 
ATOM     17  C   UNL     1      23.644   4.246  22.436  0.00  0.00    +0.217 C 
ATOM     32  H   UNL     1      23.147   6.104  21.652  0.00  0.00    +0.149 HD
BRANCH  17   8
ATOM      8  C   UNL     1      25.080   4.631  22.226  0.00  0.00    +0.075 C 
ATOM     10  C   UNL     1      25.235   5.381  20.901  0.00  0.00    +0.013 C 
ATOM     11  C   UNL     1      25.997   3.410  22.325  0.00  0.00    +0.013 C 
ATOM     14  C   UNL     1      25.186   4.461  19.682  0.00  0.00    +0.001 C 
ATOM     15  C   UNL     1      25.956   2.516  21.087  0.00  0.00    +0.001 C 
ATOM     16  C   UNL     1      26.178   3.311  19.805  0.00  0.00    +0.000 C 
ENDBRANCH  17   8
ENDBRANCH   9   5
ENDBRANCH  18  12
TORSDOF 5
ENDMDL
MODEL 5
REMARK VINA RESULT:      -6.9     30.153     32.250
REMARK  Name = 40777681
REMARK  7 active torsions:
REMARK  status: ('A' for Active; 'I' for Inactive)
REMARK    1  A    between atoms: N_5  and  C_9
REMARK    2  A    between atoms: N_6  and  C_25
REMARK    3  A    between atoms: C_8  and  C_17
REMARK    4  A    between atoms: C_12  and  C_18
REMARK    5  A    between atoms: C_21  and  C_23
REMARK    6  A    between atoms: C_22  and  C_24
REMARK    7  A    between atoms: C_30  and  C_31
REMARK                            x       y       z     vdW  Elec       q    Type
REMARK                         _______ _______ _______ _____ _____    ______ ____
ROOT
ATOM      6  N   UNL     1      -4.360 -11.954  14.488  0.00  0.00    -0.236 N 
ATOM      7  N   UNL     1      -3.626 -13.045  14.211  0.00  0.00    -0.171 NA
ATOM     18  C   UNL     1      -3.952 -11.759  12.352  0.00  0.00    +0.003 A 
ATOM     21  C   UNL     1      -4.584 -11.151  13.408  0.00  0.00    +0.046 A 
ATOM     22  C   UNL     1      -3.380 -12.921  12.905  0.00  0.00    +0.064 A 
ATOM     23  C   UNL     1      -5.366  -9.900  13.477  0.00  0.00    +0.066 C 
ATOM     24  C   UNL     1      -2.582 -13.951  12.216  0.00  0.00    +0.068 C 
ENDROOT
BRANCH   6  25
ATOM     25  C   UNL     1      -4.813 -11.738  15.791  0.00  0.00    +0.066 A 
ATOM     26  C   UNL     1      -6.028 -12.283  16.207  0.00  0.00    +0.028 A 
ATOM     27  C   UNL     1      -4.052 -10.973  16.675  0.00  0.00    +0.028 A 
ATOM     28  C   UNL     1      -6.482 -12.063  17.507  0.00  0.00    +0.014 A 
ATOM     29  C   UNL     1      -4.507 -10.752  17.975  0.00  0.00    +0.014 A 
ATOM     30  C   UNL     1      -5.721 -11.298  18.391  0.00  0.00    +0.055 A 
BRANCH  30  31
ATOM      1  F   UNL     1      -7.434 -11.610  20.032  0.00  0.00    -0.166 F 
ATOM      2  F   UNL     1      -6.332  -9.736  20.077  0.00  0.00    -0.166 F 
ATOM      3  F   UNL     1      -5.386 -11.577  20.743  0.00  0.00    -0.166 F 
ATOM     31  C   UNL     1      -6.208 -11.062  19.781  0.00  0.00    +0.417 C 
ENDBRANCH  30  31
ENDBRANCH   6  25
BRANCH  18  12
ATOM      9  C   UNL     1      -4.990  -9.712   9.391  0.00  0.00    +0.097 C 
ATOM     12  C   UNL     1      -3.888 -11.287  10.917  0.00  0.00    +0.047 C 
ATOM     13  C   UNL     1      -5.263 -10.880  10.348  0.00  0.00    +0.039 C 
ATOM     19  C   UNL     1      -3.672  -9.195   9.866  0.00  0.00    -0.009 C 
ATOM     20  C   UNL     1      -3.069 -10.048  10.701  0.00  0.00    -0.021 C 
BRANCH   9   5
ATOM      4  O   UNL     1      -7.116  -9.987   7.438  0.00  0.00    -0.275 OA
ATOM      5  N   UNL     1      -4.866 -10.133   8.021  0.00  0.00    -0.309 N 
ATOM     17  C   UNL     1      -5.946 -10.235   7.159  0.00  0.00    +0.217 C 
ATOM     32  H   UNL     1      -3.930 -10.291   7.659  0.00  0.00    +0.149 HD
BRANCH  17   8
ATOM      8  C   UNL     1      -5.534 -10.672   5.783  0.00  0.00    +0.075 C 
ATOM     10  C   UNL     1      -6.762 -11.108   4.980  0.00  0.00    +0.013 C 
ATOM     11  C   UNL     1      -4.455 -11.755   5.850  0.00  0.00    +0.013 C 
ATOM     14  C   UNL     1      -7.283 -12.486   5.385  0.00  0.00    +0.001 C 
ATOM     15  C   UNL     1      -4.999 -13.132   6.229  0.00  0.00    +0.001 C 
ATOM     16  C   UNL     1      -6.180 -13.537   5.354  0.00  0.00    +0.000 C 
ENDBRANCH  17   8
ENDBRANCH   9   5
ENDBRANCH  18  12
TORSDOF 5
ENDMDL
MODEL 6
REMARK VINA RESULT:      -6.8      6.112     11.137
REMARK  Name = 40777681
REMARK  7 active torsions:
REMARK  status: ('A' for Active; 'I' for Inactive)
REMARK    1  A    between atoms: N_5  and  C_9
REMARK    2  A    between atoms: N_6  and  C_25
REMARK    3  A    between atoms: C_8  and  C_17
REMARK    4  A    between atoms: C_12  and  C_18
REMARK    5  A    between atoms: C_21  and  C_23
REMARK    6  A    between atoms: C_22  and  C_24
REMARK    7  A    between atoms: C_30  and  C_31
REMARK                            x       y       z     vdW  Elec       q    Type
REMARK                         _______ _______ _______ _____ _____    ______ ____
ROOT
ATOM      6  N   UNL     1      18.787   6.657  20.500  0.00  0.00    -0.236 N 
ATOM      7  N   UNL     1      17.899   6.183  19.609  0.00  0.00    -0.171 NA
ATOM     18  C   UNL     1      16.976   7.798  20.936  0.00  0.00    +0.003 A 
ATOM     21  C   UNL     1      18.284   7.626  21.318  0.00  0.00    +0.046 A 
ATOM     22  C   UNL     1      16.795   6.884  19.881  0.00  0.00    +0.064 A 
ATOM     23  C   UNL     1      19.078   8.289  22.372  0.00  0.00    +0.066 C 
ATOM     24  C   UNL     1      15.572   6.642  19.095  0.00  0.00    +0.068 C 
ENDROOT
BRANCH   6  25
ATOM     25  C   UNL     1      20.087   6.149  20.518  0.00  0.00    +0.066 A 
ATOM     26  C   UNL     1      20.296   4.770  20.564  0.00  0.00    +0.028 A 
ATOM     27  C   UNL     1      21.176   7.020  20.494  0.00  0.00    +0.028 A 
ATOM     28  C   UNL     1      21.595   4.263  20.586  0.00  0.00    +0.014 A 
ATOM     29  C   UNL     1      22.475   6.512  20.517  0.00  0.00    +0.014 A 
ATOM     30  C   UNL     1      22.685   5.135  20.562  0.00  0.00    +0.055 A 
BRANCH  30  31
ATOM      1  F   UNL     1      24.630   4.567  21.835  0.00  0.00    -0.166 F 
ATOM      2  F   UNL     1      24.935   5.315  19.816  0.00  0.00    -0.166 F 
ATOM      3  F   UNL     1      24.166   3.306  20.132  0.00  0.00    -0.166 F 
ATOM     31  C   UNL     1      24.074   4.591  20.587  0.00  0.00    +0.417 C 
ENDBRANCH  30  31
ENDBRANCH   6  25
BRANCH  18  12
ATOM      9  C   UNL     1      13.864   9.882  20.930  0.00  0.00    +0.097 C 
ATOM     12  C   UNL     1      15.961   8.753  21.520  0.00  0.00    +0.047 C 
ATOM     13  C   UNL     1      15.310   9.671  20.465  0.00  0.00    +0.039 C 
ATOM     19  C   UNL     1      13.631   8.715  21.833  0.00  0.00    -0.009 C 
ATOM     20  C   UNL     1      14.772   8.095  22.155  0.00  0.00    -0.021 C 
BRANCH   9   5
ATOM      4  O   UNL     1      11.405  11.366  21.330  0.00  0.00    -0.275 OA
ATOM      5  N   UNL     1      13.692  11.099  21.678  0.00  0.00    -0.309 N 
ATOM     17  C   UNL     1      12.471  11.739  21.814  0.00  0.00    +0.217 C 
ATOM     32  H   UNL     1      14.495  11.458  22.186  0.00  0.00    +0.149 HD
BRANCH  17   8
ATOM      8  C   UNL     1      12.568  12.972  22.664  0.00  0.00    +0.075 C 
ATOM     10  C   UNL     1      13.494  12.719  23.855  0.00  0.00    +0.013 C 
ATOM     11  C   UNL     1      11.180  13.460  23.086  0.00  0.00    +0.013 C 
ATOM     14  C   UNL     1      12.843  11.878  24.952  0.00  0.00    +0.001 C 
ATOM     15  C   UNL     1      10.556  12.624  24.202  0.00  0.00    +0.001 C 
ATOM     16  C   UNL     1      11.503  12.459  25.386  0.00  0.00    +0.000 C 
ENDBRANCH  17   8
ENDBRANCH   9   5
ENDBRANCH  18  12
TORSDOF 5
ENDMDL
MODEL 7
REMARK VINA RESULT:      -6.8     19.775     23.503
REMARK  Name = 40777681
REMARK  7 active torsions:
REMARK  status: ('A' for Active; 'I' for Inactive)
REMARK    1  A    between atoms: N_5  and  C_9
REMARK    2  A    between atoms: N_6  and  C_25
REMARK    3  A    between atoms: C_8  and  C_17
REMARK    4  A    between atoms: C_12  and  C_18
REMARK    5  A    between atoms: C_21  and  C_23
REMARK    6  A    between atoms: C_22  and  C_24
REMARK    7  A    between atoms: C_30  and  C_31
REMARK                            x       y       z     vdW  Elec       q    Type
REMARK                         _______ _______ _______ _____ _____    ______ ____
ROOT
ATOM      6  N   UNL     1      11.256   3.835  -1.773  0.00  0.00    -0.236 N 
ATOM      7  N   UNL     1      12.259   3.213  -1.130  0.00  0.00    -0.171 NA
ATOM     18  C   UNL     1      11.153   4.664   0.245  0.00  0.00    +0.003 A 
ATOM     21  C   UNL     1      10.562   4.714  -0.994  0.00  0.00    +0.046 A 
ATOM     22  C   UNL     1      12.191   3.724   0.102  0.00  0.00    +0.064 A 
ATOM     23  C   UNL     1       9.421   5.510  -1.489  0.00  0.00    +0.066 C 
ATOM     24  C   UNL     1      13.154   3.278   1.125  0.00  0.00    +0.068 C 
ENDROOT
BRANCH   6  25
ATOM     25  C   UNL     1      11.014   3.549  -3.118  0.00  0.00    +0.066 A 
ATOM     26  C   UNL     1      11.859   4.059  -4.103  0.00  0.00    +0.028 A 
ATOM     27  C   UNL     1       9.924   2.754  -3.475  0.00  0.00    +0.028 A 
ATOM     28  C   UNL     1      11.613   3.776  -5.446  0.00  0.00    +0.014 A 
ATOM     29  C   UNL     1       9.679   2.472  -4.819  0.00  0.00    +0.014 A 
ATOM     30  C   UNL     1      10.524   2.982  -5.804  0.00  0.00    +0.055 A 
BRANCH  30  31
ATOM      1  F   UNL     1      10.692   1.442  -7.628  0.00  0.00    -0.166 F 
ATOM      2  F   UNL     1      10.876   3.561  -8.083  0.00  0.00    -0.166 F 
ATOM      3  F   UNL     1       8.938   2.717  -7.576  0.00  0.00    -0.166 F 
ATOM     31  C   UNL     1      10.262   2.681  -7.241  0.00  0.00    +0.417 C 
ENDBRANCH  30  31
ENDBRANCH   6  25
BRANCH  18  12
ATOM      9  C   UNL     1      10.955   5.327   3.926  0.00  0.00    +0.097 C 
ATOM     12  C   UNL     1      10.772   5.444   1.482  0.00  0.00    +0.047 C 
ATOM     13  C   UNL     1      10.468   4.547   2.699  0.00  0.00    +0.039 C 
ATOM     19  C   UNL     1      11.941   6.284   3.341  0.00  0.00    -0.009 C 
ATOM     20  C   UNL     1      11.847   6.349   2.008  0.00  0.00    -0.021 C 
BRANCH   9   5
ATOM      4  O   UNL     1      10.237   5.281   6.735  0.00  0.00    -0.275 OA
ATOM      5  N   UNL     1       9.903   6.068   4.569  0.00  0.00    -0.309 N 
ATOM     17  C   UNL     1       9.634   5.980   5.925  0.00  0.00    +0.217 C 
ATOM     32  H   UNL     1       9.386   6.738   4.007  0.00  0.00    +0.149 HD
BRANCH  17   8
ATOM      8  C   UNL     1       8.501   6.874   6.338  0.00  0.00    +0.075 C 
ATOM     10  C   UNL     1       8.303   7.984   5.303  0.00  0.00    +0.013 C 
ATOM     11  C   UNL     1       8.716   7.416   7.753  0.00  0.00    +0.013 C 
ATOM     14  C   UNL     1       9.357   9.086   5.398  0.00  0.00    +0.001 C 
ATOM     15  C   UNL     1       9.753   8.536   7.824  0.00  0.00    +0.001 C 
ATOM     16  C   UNL     1       9.466   9.640   6.813  0.00  0.00    +0.000 C 
ENDBRANCH  17   8
ENDBRANCH   9   5
ENDBRANCH  18  12
TORSDOF 5
ENDMDL
MODEL 8
REMARK VINA RESULT:      -6.8     28.555     32.002
REMARK  Name = 40777681
REMARK  7 active torsions:
REMARK  status: ('A' for Active; 'I' for Inactive)
REMARK    1  A    between atoms: N_5  and  C_9
REMARK    2  A    between atoms: N_6  and  C_25
REMARK    3  A    between atoms: C_8  and  C_17
REMARK    4  A    between atoms: C_12  and  C_18
REMARK    5  A    between atoms: C_21  and  C_23
REMARK    6  A    between atoms: C_22  and  C_24
REMARK    7  A    between atoms: C_30  and  C_31
REMARK                            x       y       z     vdW  Elec       q    Type
REMARK                         _______ _______ _______ _____ _____    ______ ____
ROOT
ATOM      6  N   UNL     1      -3.766 -10.564  13.858  0.00  0.00    -0.236 N 
ATOM      7  N   UNL     1      -2.460 -10.281  13.710  0.00  0.00    -0.171 NA
ATOM     18  C   UNL     1      -3.534 -10.370  11.695  0.00  0.00    +0.003 A 
ATOM     21  C   UNL     1      -4.454 -10.629  12.682  0.00  0.00    +0.046 A 
ATOM     22  C   UNL     1      -2.325 -10.164  12.386  0.00  0.00    +0.064 A 
ATOM     23  C   UNL     1      -5.898 -10.926  12.603  0.00  0.00    +0.066 C 
ATOM     24  C   UNL     1      -1.001  -9.851  11.819  0.00  0.00    +0.068 C 
ENDROOT
BRANCH   6  25
ATOM     25  C   UNL     1      -4.290 -10.759  15.137  0.00  0.00    +0.066 A 
ATOM     26  C   UNL     1      -3.891 -11.860  15.895  0.00  0.00    +0.028 A 
ATOM     27  C   UNL     1      -5.216  -9.854  15.656  0.00  0.00    +0.028 A 
ATOM     28  C   UNL     1      -4.418 -12.057  17.171  0.00  0.00    +0.014 A 
ATOM     29  C   UNL     1      -5.744 -10.051  16.932  0.00  0.00    +0.014 A 
ATOM     30  C   UNL     1      -5.344 -11.151  17.690  0.00  0.00    +0.055 A 
BRANCH  30  31
ATOM      1  F   UNL     1      -6.538 -10.262  19.563  0.00  0.00    -0.166 F 
ATOM      2  F   UNL     1      -4.954 -11.696  19.971  0.00  0.00    -0.166 F 
ATOM      3  F   UNL     1      -6.838 -12.362  19.113  0.00  0.00    -0.166 F 
ATOM     31  C   UNL     1      -5.908 -11.363  19.054  0.00  0.00    +0.417 C 
ENDBRANCH  30  31
ENDBRANCH   6  25
BRANCH  18  12
ATOM      9  C   UNL     1      -5.492 -10.854   8.538  0.00  0.00    +0.097 C 
ATOM     12  C   UNL     1      -3.770 -10.321  10.203  0.00  0.00    +0.047 C 
ATOM     13  C   UNL     1      -4.679 -11.456   9.691  0.00  0.00    +0.039 C 
ATOM     19  C   UNL     1      -5.419  -9.387   8.812  0.00  0.00    -0.009 C 
ATOM     20  C   UNL     1      -4.484  -9.092   9.722  0.00  0.00    -0.021 C 
BRANCH   9   5
ATOM      4  O   UNL     1      -6.876 -11.689   6.131  0.00  0.00    -0.275 OA
ATOM      5  N   UNL     1      -4.913 -11.122   7.249  0.00  0.00    -0.309 N 
ATOM     17  C   UNL     1      -5.659 -11.519   6.152  0.00  0.00    +0.217 C 
ATOM     32  H   UNL     1      -3.921 -10.940   7.130  0.00  0.00    +0.149 HD
BRANCH  17   8
ATOM      8  C   UNL     1      -4.811 -11.709   4.927  0.00  0.00    +0.075 C 
ATOM     10  C   UNL     1      -5.554 -12.566   3.901  0.00  0.00    +0.013 C 
ATOM     11  C   UNL     1      -3.439 -12.278   5.292  0.00  0.00    +0.013 C 
ATOM     14  C   UNL     1      -5.569 -14.051   4.259  0.00  0.00    +0.001 C 
ATOM     15  C   UNL     1      -3.468 -13.771   5.621  0.00  0.00    +0.001 C 
ATOM     16  C   UNL     1      -4.165 -14.578   4.531  0.00  0.00    +0.000 C 
ENDBRANCH  17   8
ENDBRANCH   9   5
ENDBRANCH  18  12
TORSDOF 5
ENDMDL
MODEL 9
REMARK VINA RESULT:      -6.7     31.334     33.159
REMARK  Name = 40777681
REMARK  7 active torsions:
REMARK  status: ('A' for Active; 'I' for Inactive)
REMARK    1  A    between atoms: N_5  and  C_9
REMARK    2  A    between atoms: N_6  and  C_25
REMARK    3  A    between atoms: C_8  and  C_17
REMARK    4  A    between atoms: C_12  and  C_18
REMARK    5  A    between atoms: C_21  and  C_23
REMARK    6  A    between atoms: C_22  and  C_24
REMARK    7  A    between atoms: C_30  and  C_31
REMARK                            x       y       z     vdW  Elec       q    Type
REMARK                         _______ _______ _______ _____ _____    ______ ____
ROOT
ATOM      6  N   UNL     1     -12.120  10.983  28.363  0.00  0.00    -0.236 N 
ATOM      7  N   UNL     1     -13.336  11.521  28.168  0.00  0.00    -0.171 NA
ATOM     18  C   UNL     1     -12.300  11.045  26.188  0.00  0.00    +0.003 A 
ATOM     21  C   UNL     1     -11.458  10.681  27.210  0.00  0.00    +0.046 A 
ATOM     22  C   UNL     1     -13.441  11.556  26.836  0.00  0.00    +0.064 A 
ATOM     23  C   UNL     1     -10.108  10.084  27.183  0.00  0.00    +0.066 C 
ATOM     24  C   UNL     1     -14.666  12.095  26.220  0.00  0.00    +0.068 C 
ENDROOT
BRANCH   6  25
ATOM     25  C   UNL     1     -11.652  10.786  29.664  0.00  0.00    +0.066 A 
ATOM     26  C   UNL     1     -10.898  11.778  30.291  0.00  0.00    +0.028 A 
ATOM     27  C   UNL     1     -11.937   9.596  30.334  0.00  0.00    +0.028 A 
ATOM     28  C   UNL     1     -10.427  11.579  31.589  0.00  0.00    +0.014 A 
ATOM     29  C   UNL     1     -11.465   9.398  31.632  0.00  0.00    +0.014 A 
ATOM     30  C   UNL     1     -10.712  10.389  32.259  0.00  0.00    +0.055 A 
BRANCH  30  31
ATOM      1  F   UNL     1     -10.885   9.209  34.334  0.00  0.00    -0.166 F 
ATOM      2  F   UNL     1     -10.294  11.301  34.415  0.00  0.00    -0.166 F 
ATOM      3  F   UNL     1      -8.896   9.797  33.700  0.00  0.00    -0.166 F 
ATOM     31  C   UNL     1     -10.207  10.177  33.647  0.00  0.00    +0.417 C 
ENDBRANCH  30  31
ENDBRANCH   6  25
BRANCH  18  12
ATOM      9  C   UNL     1     -13.252  10.426  22.618  0.00  0.00    +0.097 C 
ATOM     12  C   UNL     1     -12.055  10.925  24.701  0.00  0.00    +0.047 C 
ATOM     13  C   UNL     1     -12.953   9.874  24.018  0.00  0.00    +0.039 C 
ATOM     19  C   UNL     1     -13.002  11.889  22.778  0.00  0.00    -0.009 C 
ATOM     20  C   UNL     1     -12.353  12.167  23.914  0.00  0.00    -0.021 C 
BRANCH   9   5
ATOM      4  O   UNL     1     -13.452   7.876  21.253  0.00  0.00    -0.275 OA
ATOM      5  N   UNL     1     -12.365   9.903  21.613  0.00  0.00    -0.309 N 
ATOM     17  C   UNL     1     -12.542   8.666  21.015  0.00  0.00    +0.217 C 
ATOM     32  H   UNL     1     -11.618  10.507  21.283  0.00  0.00    +0.149 HD
BRANCH  17   8
ATOM      8  C   UNL     1     -11.489   8.377  19.985  0.00  0.00    +0.075 C 
ATOM     10  C   UNL     1     -10.919   9.686  19.434  0.00  0.00    +0.013 C 
ATOM     11  C   UNL     1     -12.030   7.459  18.888  0.00  0.00    +0.013 C 
ATOM     14  C   UNL     1     -11.856  10.378  18.445  0.00  0.00    +0.001 C 
ATOM     15  C   UNL     1     -12.943   8.173  17.892  0.00  0.00    +0.001 C 
ATOM     16  C   UNL     1     -12.295   9.435  17.332  0.00  0.00    +0.000 C 
ENDBRANCH  17   8
ENDBRANCH   9   5
ENDBRANCH  18  12
TORSDOF 5
ENDMDL
MODEL 10
REMARK VINA RESULT:      -6.6     31.382     34.691
REMARK  Name = 40777681
REMARK  7 active torsions:
REMARK  status: ('A' for Active; 'I' for Inactive)
REMARK    1  A    between atoms: N_5  and  C_9
REMARK    2  A    between atoms: N_6  and  C_25
REMARK    3  A    between atoms: C_8  and  C_17
REMARK    4  A    between atoms: C_12  and  C_18
REMARK    5  A    between atoms: C_21  and  C_23
REMARK    6  A    between atoms: C_22  and  C_24
REMARK    7  A    between atoms: C_30  and  C_31
REMARK                            x       y       z     vdW  Elec       q    Type
REMARK                         _______ _______ _______ _____ _____    ______ ____
ROOT
ATOM      6  N   UNL     1     -16.192   4.966  23.582  0.00  0.00    -0.236 N 
ATOM      7  N   UNL     1     -17.260   5.531  22.994  0.00  0.00    -0.171 NA
ATOM     18  C   UNL     1     -15.307   6.226  22.034  0.00  0.00    +0.003 A 
ATOM     21  C   UNL     1     -14.999   5.349  23.044  0.00  0.00    +0.046 A 
ATOM     22  C   UNL     1     -16.713   6.300  22.049  0.00  0.00    +0.064 A 
ATOM     23  C   UNL     1     -13.695   4.856  23.530  0.00  0.00    +0.066 C 
ATOM     24  C   UNL     1     -17.586   7.101  21.172  0.00  0.00    +0.068 C 
ENDROOT
BRANCH   6  25
ATOM     25  C   UNL     1     -16.376   4.076  24.642  0.00  0.00    +0.066 A 
ATOM     26  C   UNL     1     -16.358   2.701  24.409  0.00  0.00    +0.028 A 
ATOM     27  C   UNL     1     -16.582   4.563  25.933  0.00  0.00    +0.028 A 
ATOM     28  C   UNL     1     -16.546   1.813  25.468  0.00  0.00    +0.014 A 
ATOM     29  C   UNL     1     -16.771   3.675  26.991  0.00  0.00    +0.014 A 
ATOM     30  C   UNL     1     -16.752   2.300  26.759  0.00  0.00    +0.055 A 
BRANCH  30  31
ATOM      1  F   UNL     1     -17.361   1.952  29.047  0.00  0.00    -0.166 F 
ATOM      2  F   UNL     1     -15.817   0.668  28.213  0.00  0.00    -0.166 F 
ATOM      3  F   UNL     1     -17.896   0.392  27.639  0.00  0.00    -0.166 F 
ATOM     31  C   UNL     1     -16.954   1.349  27.890  0.00  0.00    +0.417 C 
ENDBRANCH  30  31
ENDBRANCH   6  25
BRANCH  18  12
ATOM      9  C   UNL     1     -12.476   8.531  21.194  0.00  0.00    +0.097 C 
ATOM     12  C   UNL     1     -14.351   6.949  21.114  0.00  0.00    +0.047 C 
ATOM     13  C   UNL     1     -13.930   8.337  21.640  0.00  0.00    +0.039 C 
ATOM     19  C   UNL     1     -12.011   7.131  20.959  0.00  0.00    -0.009 C 
ATOM     20  C   UNL     1     -13.030   6.265  20.918  0.00  0.00    -0.021 C 
BRANCH   9   5
ATOM      4  O   UNL     1     -10.039   9.352  19.854  0.00  0.00    -0.275 OA
ATOM      5  N   UNL     1     -12.363   9.277  19.969  0.00  0.00    -0.309 N 
ATOM     17  C   UNL     1     -11.148   9.625  19.403  0.00  0.00    +0.217 C 
ATOM     32  H   UNL     1     -13.220   9.492  19.467  0.00  0.00    +0.149 HD
BRANCH  17   8
ATOM      8  C   UNL     1     -11.317  10.380  18.117  0.00  0.00    +0.075 C 
ATOM     10  C   UNL     1     -12.722  10.155  17.555  0.00  0.00    +0.013 C 
ATOM     11  C   UNL     1     -10.215  10.018  17.118  0.00  0.00    +0.013 C 
ATOM     14  C   UNL     1     -12.894   8.783  16.904  0.00  0.00    +0.001 C 
ATOM     15  C   UNL     1     -10.418   8.656  16.456  0.00  0.00    +0.001 C 
ATOM     16  C   UNL     1     -11.815   8.516  15.862  0.00  0.00    +0.000 C 
ENDBRANCH  17   8
ENDBRANCH   9   5
ENDBRANCH  18  12
TORSDOF 5
ENDMDL
