MODEL 1
REMARK VINA RESULT:      -6.1      0.000      0.000
REMARK  Name = 86769004
REMARK  7 active torsions:
REMARK  status: ('A' for Active; 'I' for Inactive)
REMARK    1  A    between atoms: O_3  and  C_12
REMARK    2  A    between atoms: N_5  and  C_10
REMARK    3  A    between atoms: N_5  and  C_11
REMARK    4  A    between atoms: N_6  and  C_15
REMARK    5  A    between atoms: C_7  and  C_10
REMARK    6  A    between atoms: C_13  and  C_15
REMARK    7  A    between atoms: C_16  and  C_17
REMARK                            x       y       z     vdW  Elec       q    Type
REMARK                         _______ _______ _______ _____ _____    ______ ____
ROOT
ATOM      2  O   UNL     1      16.814   6.018  18.999  0.00  0.00    -0.371 OA
ATOM     11  C   UNL     1      17.549   6.457  21.214  0.00  0.00    +0.111 C 
ATOM     12  C   UNL     1      16.199   7.116  21.002  0.00  0.00    +0.164 C 
ATOM     13  C   UNL     1      15.669   6.324  19.814  0.00  0.00    +0.165 C 
ATOM     14  C   UNL     1      18.002   6.229  19.781  0.00  0.00    +0.181 C 
ENDROOT
BRANCH  12   3
ATOM      3  O   UNL     1      15.353   7.005  22.130  0.00  0.00    -0.388 OA
ATOM     24  H   UNL     1      14.453   6.808  21.818  0.00  0.00    +0.210 HD
ENDBRANCH  12   3
BRANCH  11   5
ATOM      5  N   UNL     1      18.481   7.269  21.980  0.00  0.00    -0.309 NA
ATOM     23  H   UNL     1      18.415   7.013  22.966  0.00  0.00    +0.122 HD
BRANCH   5  10
ATOM     10  C   UNL     1      19.852   7.060  21.531  0.00  0.00    +0.084 C 
BRANCH  10   7
ATOM      7  C   UNL     1      20.593   6.145  22.451  0.00  0.00    +0.003 C 
ATOM      8  C   UNL     1      22.096   6.111  22.437  0.00  0.00    +0.005 C 
ATOM      9  C   UNL     1      21.314   4.944  21.905  0.00  0.00    +0.005 C 
ENDBRANCH  10   7
ENDBRANCH   5  10
ENDBRANCH  11   5
BRANCH  13  15
ATOM     15  C   UNL     1      14.644   7.085  18.994  0.00  0.00    +0.138 C 
BRANCH  15   6
ATOM      4  O   UNL     1      11.835   7.258  19.558  0.00  0.00    -0.270 OA
ATOM      6  N   UNL     1      13.986   8.085  19.809  0.00  0.00    -0.309 N 
ATOM     16  C   UNL     1      12.618   8.082  20.022  0.00  0.00    +0.244 C 
ATOM     25  H   UNL     1      14.567   8.838  20.163  0.00  0.00    +0.149 HD
BRANCH  16  17
ATOM      1  F   UNL     1      10.637  12.272  23.192  0.00  0.00    -0.205 F 
ATOM     17  C   UNL     1      12.094   9.190  20.861  0.00  0.00    +0.037 A 
ATOM     18  C   UNL     1      12.368  10.514  20.517  0.00  0.00    +0.016 A 
ATOM     19  C   UNL     1      11.329   8.908  21.993  0.00  0.00    +0.016 A 
ATOM     20  C   UNL     1      11.876  11.555  21.304  0.00  0.00    +0.039 A 
ATOM     21  C   UNL     1      10.837   9.949  22.780  0.00  0.00    +0.039 A 
ATOM     22  C   UNL     1      11.110  11.273  22.435  0.00  0.00    +0.123 A 
ENDBRANCH  16  17
ENDBRANCH  15   6
ENDBRANCH  13  15
TORSDOF 7
ENDMDL
MODEL 2
REMARK VINA RESULT:      -5.9     26.614     28.364
REMARK  Name = 86769004
REMARK  7 active torsions:
REMARK  status: ('A' for Active; 'I' for Inactive)
REMARK    1  A    between atoms: O_3  and  C_12
REMARK    2  A    between atoms: N_5  and  C_10
REMARK    3  A    between atoms: N_5  and  C_11
REMARK    4  A    between atoms: N_6  and  C_15
REMARK    5  A    between atoms: C_7  and  C_10
REMARK    6  A    between atoms: C_13  and  C_15
REMARK    7  A    between atoms: C_16  and  C_17
REMARK                            x       y       z     vdW  Elec       q    Type
REMARK                         _______ _______ _______ _____ _____    ______ ____
ROOT
ATOM      2  O   UNL     1      -1.367 -11.380  15.139  0.00  0.00    -0.371 OA
ATOM     11  C   UNL     1      -3.564 -10.943  15.930  0.00  0.00    +0.111 C 
ATOM     12  C   UNL     1      -3.597 -11.060  14.418  0.00  0.00    +0.164 C 
ATOM     13  C   UNL     1      -2.311 -11.833  14.155  0.00  0.00    +0.165 C 
ATOM     14  C   UNL     1      -2.085 -10.694  16.181  0.00  0.00    +0.181 C 
ENDROOT
BRANCH  12   3
ATOM      3  O   UNL     1      -4.736 -11.755  13.948  0.00  0.00    -0.388 OA
ATOM     24  H   UNL     1      -4.550 -12.709  13.989  0.00  0.00    +0.210 HD
ENDBRANCH  12   3
BRANCH  11   5
ATOM      5  N   UNL     1      -4.412  -9.884  16.453  0.00  0.00    -0.309 NA
ATOM     23  H   UNL     1      -4.782  -9.338  15.673  0.00  0.00    +0.122 HD
BRANCH   5  10
ATOM     10  C   UNL     1      -5.528 -10.431  17.214  0.00  0.00    +0.084 C 
BRANCH  10   7
ATOM      7  C   UNL     1      -5.162 -10.629  18.649  0.00  0.00    +0.003 C 
ATOM      8  C   UNL     1      -4.840 -12.003  19.166  0.00  0.00    +0.005 C 
ATOM      9  C   UNL     1      -6.114 -11.323  19.584  0.00  0.00    +0.005 C 
ENDBRANCH  10   7
ENDBRANCH   5  10
ENDBRANCH  11   5
BRANCH  13  15
ATOM     15  C   UNL     1      -1.750 -11.609  12.763  0.00  0.00    +0.138 C 
BRANCH  15   6
ATOM      4  O   UNL     1      -1.651  -9.369  10.970  0.00  0.00    -0.270 OA
ATOM      6  N   UNL     1      -2.796 -11.177  11.859  0.00  0.00    -0.309 N 
ATOM     16  C   UNL     1      -2.651 -10.078  11.030  0.00  0.00    +0.244 C 
ATOM     25  H   UNL     1      -3.678 -11.677  11.913  0.00  0.00    +0.149 HD
BRANCH  16  17
ATOM      1  F   UNL     1      -7.093  -8.844   7.824  0.00  0.00    -0.205 F 
ATOM     17  C   UNL     1      -3.826  -9.751  10.182  0.00  0.00    +0.037 A 
ATOM     18  C   UNL     1      -4.235 -10.638   9.186  0.00  0.00    +0.016 A 
ATOM     19  C   UNL     1      -4.520  -8.558  10.380  0.00  0.00    +0.016 A 
ATOM     20  C   UNL     1      -5.338 -10.333   8.389  0.00  0.00    +0.039 A 
ATOM     21  C   UNL     1      -5.624  -8.251   9.584  0.00  0.00    +0.039 A 
ATOM     22  C   UNL     1      -6.033  -9.139   8.588  0.00  0.00    +0.123 A 
ENDBRANCH  16  17
ENDBRANCH  15   6
ENDBRANCH  13  15
TORSDOF 7
ENDMDL
MODEL 3
REMARK VINA RESULT:      -5.8     27.098     29.010
REMARK  Name = 86769004
REMARK  7 active torsions:
REMARK  status: ('A' for Active; 'I' for Inactive)
REMARK    1  A    between atoms: O_3  and  C_12
REMARK    2  A    between atoms: N_5  and  C_10
REMARK    3  A    between atoms: N_5  and  C_11
REMARK    4  A    between atoms: N_6  and  C_15
REMARK    5  A    between atoms: C_7  and  C_10
REMARK    6  A    between atoms: C_13  and  C_15
REMARK    7  A    between atoms: C_16  and  C_17
REMARK                            x       y       z     vdW  Elec       q    Type
REMARK                         _______ _______ _______ _____ _____    ______ ____
ROOT
ATOM      2  O   UNL     1      -4.716 -11.262  18.722  0.00  0.00    -0.371 OA
ATOM     11  C   UNL     1      -6.836 -10.494  17.976  0.00  0.00    +0.111 C 
ATOM     12  C   UNL     1      -5.802 -10.210  16.903  0.00  0.00    +0.164 C 
ATOM     13  C   UNL     1      -4.703 -11.193  17.286  0.00  0.00    +0.165 C 
ATOM     14  C   UNL     1      -5.954 -10.704  19.196  0.00  0.00    +0.181 C 
ENDROOT
BRANCH  12   3
ATOM      3  O   UNL     1      -6.290 -10.447  15.597  0.00  0.00    -0.388 OA
ATOM     24  H   UNL     1      -6.519  -9.591  15.196  0.00  0.00    +0.210 HD
ENDBRANCH  12   3
BRANCH  11   5
ATOM      5  N   UNL     1      -7.802  -9.422  18.154  0.00  0.00    -0.309 NA
ATOM     23  H   UNL     1      -7.617  -8.689  17.468  0.00  0.00    +0.122 HD
BRANCH   5  10
ATOM     10  C   UNL     1      -9.165  -9.905  17.969  0.00  0.00    +0.084 C 
BRANCH  10   7
ATOM      7  C   UNL     1      -9.883  -9.120  16.921  0.00  0.00    +0.003 C 
ATOM      8  C   UNL     1     -10.134  -7.650  17.114  0.00  0.00    +0.005 C 
ATOM      9  C   UNL     1     -11.279  -8.621  17.173  0.00  0.00    +0.005 C 
ENDBRANCH  10   7
ENDBRANCH   5  10
ENDBRANCH  11   5
BRANCH  13  15
ATOM     15  C   UNL     1      -3.327 -10.774  16.805  0.00  0.00    +0.138 C 
BRANCH  15   6
ATOM      4  O   UNL     1      -2.689 -12.342  14.485  0.00  0.00    -0.270 OA
ATOM      6  N   UNL     1      -3.385 -10.340  15.424  0.00  0.00    -0.309 N 
ATOM     16  C   UNL     1      -3.056 -11.175  14.371  0.00  0.00    +0.244 C 
ATOM     25  H   UNL     1      -3.610  -9.363  15.264  0.00  0.00    +0.149 HD
BRANCH  16  17
ATOM      1  F   UNL     1      -3.385  -8.888   9.253  0.00  0.00    -0.205 F 
ATOM     17  C   UNL     1      -3.143 -10.571  13.017  0.00  0.00    +0.037 A 
ATOM     18  C   UNL     1      -4.390 -10.330  12.439  0.00  0.00    +0.016 A 
ATOM     19  C   UNL     1      -1.979 -10.243  12.322  0.00  0.00    +0.016 A 
ATOM     20  C   UNL     1      -4.473  -9.762  11.169  0.00  0.00    +0.039 A 
ATOM     21  C   UNL     1      -2.060  -9.676  11.051  0.00  0.00    +0.039 A 
ATOM     22  C   UNL     1      -3.308  -9.434  10.474  0.00  0.00    +0.123 A 
ENDBRANCH  16  17
ENDBRANCH  15   6
ENDBRANCH  13  15
TORSDOF 7
ENDMDL
MODEL 4
REMARK VINA RESULT:      -5.8      3.811      8.382
REMARK  Name = 86769004
REMARK  7 active torsions:
REMARK  status: ('A' for Active; 'I' for Inactive)
REMARK    1  A    between atoms: O_3  and  C_12
REMARK    2  A    between atoms: N_5  and  C_10
REMARK    3  A    between atoms: N_5  and  C_11
REMARK    4  A    between atoms: N_6  and  C_15
REMARK    5  A    between atoms: C_7  and  C_10
REMARK    6  A    between atoms: C_13  and  C_15
REMARK    7  A    between atoms: C_16  and  C_17
REMARK                            x       y       z     vdW  Elec       q    Type
REMARK                         _______ _______ _______ _____ _____    ______ ____
ROOT
ATOM      2  O   UNL     1      14.619   7.837  22.289  0.00  0.00    -0.371 OA
ATOM     11  C   UNL     1      13.474   6.768  20.504  0.00  0.00    +0.111 C 
ATOM     12  C   UNL     1      14.869   7.144  20.041  0.00  0.00    +0.164 C 
ATOM     13  C   UNL     1      15.589   7.299  21.375  0.00  0.00    +0.165 C 
ATOM     14  C   UNL     1      13.309   7.663  21.722  0.00  0.00    +0.181 C 
ENDROOT
BRANCH  12   3
ATOM      3  O   UNL     1      15.464   6.148  19.233  0.00  0.00    -0.388 OA
ATOM     24  H   UNL     1      16.292   6.505  18.868  0.00  0.00    +0.210 HD
ENDBRANCH  12   3
BRANCH  11   5
ATOM      5  N   UNL     1      12.447   6.986  19.499  0.00  0.00    -0.309 NA
ATOM     23  H   UNL     1      11.542   6.705  19.880  0.00  0.00    +0.122 HD
BRANCH   5  10
ATOM     10  C   UNL     1      12.379   8.390  19.112  0.00  0.00    +0.084 C 
BRANCH  10   7
ATOM      7  C   UNL     1      12.372   8.546  17.627  0.00  0.00    +0.003 C 
ATOM      8  C   UNL     1      13.647   8.399  16.844  0.00  0.00    +0.005 C 
ATOM      9  C   UNL     1      13.007   9.750  16.989  0.00  0.00    +0.005 C 
ENDBRANCH  10   7
ENDBRANCH   5  10
ENDBRANCH  11   5
BRANCH  13  15
ATOM     15  C   UNL     1      16.794   8.219  21.303  0.00  0.00    +0.138 C 
BRANCH  15   6
ATOM      4  O   UNL     1      18.291   6.462  19.597  0.00  0.00    -0.270 OA
ATOM      6  N   UNL     1      18.001   7.498  21.650  0.00  0.00    -0.309 N 
ATOM     16  C   UNL     1      18.653   6.671  20.751  0.00  0.00    +0.244 C 
ATOM     25  H   UNL     1      18.313   7.570  22.613  0.00  0.00    +0.149 HD
BRANCH  16  17
ATOM      1  F   UNL     1      23.229   4.071  22.707  0.00  0.00    -0.205 F 
ATOM     17  C   UNL     1      19.863   5.983  21.269  0.00  0.00    +0.037 A 
ATOM     18  C   UNL     1      20.435   4.937  20.544  0.00  0.00    +0.016 A 
ATOM     19  C   UNL     1      20.429   6.382  22.480  0.00  0.00    +0.016 A 
ATOM     20  C   UNL     1      21.572   4.291  21.029  0.00  0.00    +0.039 A 
ATOM     21  C   UNL     1      21.566   5.736  22.966  0.00  0.00    +0.039 A 
ATOM     22  C   UNL     1      22.137   4.690  22.240  0.00  0.00    +0.123 A 
ENDBRANCH  16  17
ENDBRANCH  15   6
ENDBRANCH  13  15
TORSDOF 7
ENDMDL
MODEL 5
REMARK VINA RESULT:      -5.7     27.194     29.288
REMARK  Name = 86769004
REMARK  7 active torsions:
REMARK  status: ('A' for Active; 'I' for Inactive)
REMARK    1  A    between atoms: O_3  and  C_12
REMARK    2  A    between atoms: N_5  and  C_10
REMARK    3  A    between atoms: N_5  and  C_11
REMARK    4  A    between atoms: N_6  and  C_15
REMARK    5  A    between atoms: C_7  and  C_10
REMARK    6  A    between atoms: C_13  and  C_15
REMARK    7  A    between atoms: C_16  and  C_17
REMARK                            x       y       z     vdW  Elec       q    Type
REMARK                         _______ _______ _______ _____ _____    ______ ____
ROOT
ATOM      2  O   UNL     1      -8.916 -11.518  16.163  0.00  0.00    -0.371 OA
ATOM     11  C   UNL     1      -9.019 -10.690  18.386  0.00  0.00    +0.111 C 
ATOM     12  C   UNL     1      -8.562  -9.575  17.465  0.00  0.00    +0.164 C 
ATOM     13  C   UNL     1      -9.053 -10.088  16.117  0.00  0.00    +0.165 C 
ATOM     14  C   UNL     1      -8.744 -11.918  17.534  0.00  0.00    +0.181 C 
ENDROOT
BRANCH  12   3
ATOM      3  O   UNL     1      -9.134  -8.324  17.794  0.00  0.00    -0.388 OA
ATOM     24  H   UNL     1      -8.430  -7.748  18.141  0.00  0.00    +0.210 HD
ENDBRANCH  12   3
BRANCH  11   5
ATOM      5  N   UNL     1      -8.319 -10.717  19.661  0.00  0.00    -0.309 NA
ATOM     23  H   UNL     1      -9.004 -10.770  20.416  0.00  0.00    +0.122 HD
BRANCH   5  10
ATOM     10  C   UNL     1      -7.432 -11.871  19.749  0.00  0.00    +0.084 C 
BRANCH  10   7
ATOM      7  C   UNL     1      -6.022 -11.454  20.008  0.00  0.00    +0.003 C 
ATOM      8  C   UNL     1      -5.299 -10.574  19.027  0.00  0.00    +0.005 C 
ATOM      9  C   UNL     1      -4.901 -12.015  19.178  0.00  0.00    +0.005 C 
ENDBRANCH  10   7
ENDBRANCH   5  10
ENDBRANCH  11   5
BRANCH  13  15
ATOM     15  C   UNL     1      -8.270  -9.534  14.942  0.00  0.00    +0.138 C 
BRANCH  15   6
ATOM      4  O   UNL     1      -6.445 -10.704  13.059  0.00  0.00    -0.270 OA
ATOM      6  N   UNL     1      -6.851  -9.750  15.133  0.00  0.00    -0.309 N 
ATOM     16  C   UNL     1      -6.052 -10.324  14.159  0.00  0.00    +0.244 C 
ATOM     25  H   UNL     1      -6.477  -9.525  16.049  0.00  0.00    +0.149 HD
BRANCH  16  17
ATOM      1  F   UNL     1      -0.646 -10.990  15.522  0.00  0.00    -0.205 F 
ATOM     17  C   UNL     1      -4.622 -10.501  14.520  0.00  0.00    +0.037 A 
ATOM     18  C   UNL     1      -3.656 -10.591  13.517  0.00  0.00    +0.016 A 
ATOM     19  C   UNL     1      -4.244 -10.576  15.860  0.00  0.00    +0.016 A 
ATOM     20  C   UNL     1      -2.313 -10.756  13.855  0.00  0.00    +0.039 A 
ATOM     21  C   UNL     1      -2.901 -10.742  16.199  0.00  0.00    +0.039 A 
ATOM     22  C   UNL     1      -1.935 -10.831  15.196  0.00  0.00    +0.123 A 
ENDBRANCH  16  17
ENDBRANCH  15   6
ENDBRANCH  13  15
TORSDOF 7
ENDMDL
MODEL 6
REMARK VINA RESULT:      -5.6     28.250     30.937
REMARK  Name = 86769004
REMARK  7 active torsions:
REMARK  status: ('A' for Active; 'I' for Inactive)
REMARK    1  A    between atoms: O_3  and  C_12
REMARK    2  A    between atoms: N_5  and  C_10
REMARK    3  A    between atoms: N_5  and  C_11
REMARK    4  A    between atoms: N_6  and  C_15
REMARK    5  A    between atoms: C_7  and  C_10
REMARK    6  A    between atoms: C_13  and  C_15
REMARK    7  A    between atoms: C_16  and  C_17
REMARK                            x       y       z     vdW  Elec       q    Type
REMARK                         _______ _______ _______ _____ _____    ______ ____
ROOT
ATOM      2  O   UNL     1     -12.477  -8.276  16.819  0.00  0.00    -0.371 OA
ATOM     11  C   UNL     1     -11.670  -6.931  15.036  0.00  0.00    +0.111 C 
ATOM     12  C   UNL     1     -10.502  -7.341  15.914  0.00  0.00    +0.164 C 
ATOM     13  C   UNL     1     -11.081  -8.558  16.623  0.00  0.00    +0.165 C 
ATOM     14  C   UNL     1     -12.847  -7.179  15.966  0.00  0.00    +0.181 C 
ENDROOT
BRANCH  12   3
ATOM      3  O   UNL     1      -9.345  -7.666  15.167  0.00  0.00    -0.388 OA
ATOM     24  H   UNL     1      -9.596  -8.304  14.477  0.00  0.00    +0.210 HD
ENDBRANCH  12   3
BRANCH  11   5
ATOM      5  N   UNL     1     -11.596  -5.555  14.572  0.00  0.00    -0.309 NA
ATOM     23  H   UNL     1     -10.616  -5.296  14.450  0.00  0.00    +0.122 HD
BRANCH   5  10
ATOM     10  C   UNL     1     -12.287  -5.391  13.300  0.00  0.00    +0.084 C 
BRANCH  10   7
ATOM      7  C   UNL     1     -12.395  -3.950  12.920  0.00  0.00    +0.003 C 
ATOM      8  C   UNL     1     -13.529  -3.478  12.053  0.00  0.00    +0.005 C 
ATOM      9  C   UNL     1     -12.131  -3.519  11.504  0.00  0.00    +0.005 C 
ENDBRANCH  10   7
ENDBRANCH   5  10
ENDBRANCH  11   5
BRANCH  13  15
ATOM     15  C   UNL     1     -10.422  -8.844  17.960  0.00  0.00    +0.138 C 
BRANCH  15   6
ATOM      4  O   UNL     1      -9.041 -11.080  19.117  0.00  0.00    -0.270 OA
ATOM      6  N   UNL     1      -9.029  -9.192  17.772  0.00  0.00    -0.309 N 
ATOM     16  C   UNL     1      -8.453 -10.297  18.377  0.00  0.00    +0.244 C 
ATOM     25  H   UNL     1      -8.467  -8.543  17.229  0.00  0.00    +0.149 HD
BRANCH  16  17
ATOM      1  F   UNL     1      -2.988 -11.071  17.347  0.00  0.00    -0.205 F 
ATOM     17  C   UNL     1      -7.008 -10.501  18.104  0.00  0.00    +0.037 A 
ATOM     18  C   UNL     1      -6.220 -11.210  19.012  0.00  0.00    +0.016 A 
ATOM     19  C   UNL     1      -6.436  -9.985  16.942  0.00  0.00    +0.016 A 
ATOM     20  C   UNL     1      -4.863 -11.403  18.757  0.00  0.00    +0.039 A 
ATOM     21  C   UNL     1      -5.078 -10.177  16.686  0.00  0.00    +0.039 A 
ATOM     22  C   UNL     1      -4.292 -10.887  17.594  0.00  0.00    +0.123 A 
ENDBRANCH  16  17
ENDBRANCH  15   6
ENDBRANCH  13  15
TORSDOF 7
ENDMDL
MODEL 7
REMARK VINA RESULT:      -5.6     29.320     32.106
REMARK  Name = 86769004
REMARK  7 active torsions:
REMARK  status: ('A' for Active; 'I' for Inactive)
REMARK    1  A    between atoms: O_3  and  C_12
REMARK    2  A    between atoms: N_5  and  C_10
REMARK    3  A    between atoms: N_5  and  C_11
REMARK    4  A    between atoms: N_6  and  C_15
REMARK    5  A    between atoms: C_7  and  C_10
REMARK    6  A    between atoms: C_13  and  C_15
REMARK    7  A    between atoms: C_16  and  C_17
REMARK                            x       y       z     vdW  Elec       q    Type
REMARK                         _______ _______ _______ _____ _____    ______ ____
ROOT
ATOM      2  O   UNL     1     -12.434  -9.989  18.196  0.00  0.00    -0.371 OA
ATOM     11  C   UNL     1     -12.250 -10.958  20.356  0.00  0.00    +0.111 C 
ATOM     12  C   UNL     1     -10.877 -10.498  19.902  0.00  0.00    +0.164 C 
ATOM     13  C   UNL     1     -11.248  -9.482  18.830  0.00  0.00    +0.165 C 
ATOM     14  C   UNL     1     -13.003 -11.008  19.036  0.00  0.00    +0.181 C 
ENDROOT
BRANCH  12   3
ATOM      3  O   UNL     1     -10.123  -9.913  20.946  0.00  0.00    -0.388 OA
ATOM     24  H   UNL     1      -9.627  -9.161  20.580  0.00  0.00    +0.210 HD
ENDBRANCH  12   3
BRANCH  11   5
ATOM      5  N   UNL     1     -12.237 -12.237  21.049  0.00  0.00    -0.309 NA
ATOM     23  H   UNL     1     -11.648 -12.160  21.879  0.00  0.00    +0.122 HD
BRANCH   5  10
ATOM     10  C   UNL     1     -13.580 -12.626  21.460  0.00  0.00    +0.084 C 
BRANCH  10   7
ATOM      7  C   UNL     1     -13.988 -11.928  22.716  0.00  0.00    +0.003 C 
ATOM      8  C   UNL     1     -13.907 -12.640  24.038  0.00  0.00    +0.005 C 
ATOM      9  C   UNL     1     -15.247 -12.333  23.432  0.00  0.00    +0.005 C 
ENDBRANCH  10   7
ENDBRANCH   5  10
ENDBRANCH  11   5
BRANCH  13  15
ATOM     15  C   UNL     1     -10.159  -9.277  17.793  0.00  0.00    +0.138 C 
BRANCH  15   6
ATOM      4  O   UNL     1      -7.658  -9.290  16.384  0.00  0.00    -0.270 OA
ATOM      6  N   UNL     1      -8.913  -9.859  18.248  0.00  0.00    -0.309 N 
ATOM     16  C   UNL     1      -7.755  -9.813  17.491  0.00  0.00    +0.244 C 
ATOM     25  H   UNL     1      -8.943 -10.371  19.124  0.00  0.00    +0.149 HD
BRANCH  16  17
ATOM      1  F   UNL     1      -3.270 -12.329  19.745  0.00  0.00    -0.205 F 
ATOM     17  C   UNL     1      -6.568 -10.478  18.087  0.00  0.00    +0.037 A 
ATOM     18  C   UNL     1      -6.631 -10.982  19.387  0.00  0.00    +0.016 A 
ATOM     19  C   UNL     1      -5.391 -10.600  17.349  0.00  0.00    +0.016 A 
ATOM     20  C   UNL     1      -5.518 -11.607  19.947  0.00  0.00    +0.039 A 
ATOM     21  C   UNL     1      -4.277 -11.224  17.909  0.00  0.00    +0.039 A 
ATOM     22  C   UNL     1      -4.340 -11.729  19.208  0.00  0.00    +0.123 A 
ENDBRANCH  16  17
ENDBRANCH  15   6
ENDBRANCH  13  15
TORSDOF 7
ENDMDL
MODEL 8
REMARK VINA RESULT:      -5.6     26.451     28.397
REMARK  Name = 86769004
REMARK  7 active torsions:
REMARK  status: ('A' for Active; 'I' for Inactive)
REMARK    1  A    between atoms: O_3  and  C_12
REMARK    2  A    between atoms: N_5  and  C_10
REMARK    3  A    between atoms: N_5  and  C_11
REMARK    4  A    between atoms: N_6  and  C_15
REMARK    5  A    between atoms: C_7  and  C_10
REMARK    6  A    between atoms: C_13  and  C_15
REMARK    7  A    between atoms: C_16  and  C_17
REMARK                            x       y       z     vdW  Elec       q    Type
REMARK                         _______ _______ _______ _____ _____    ______ ____
ROOT
ATOM      2  O   UNL     1      -2.510 -12.422  13.079  0.00  0.00    -0.371 OA
ATOM     11  C   UNL     1      -3.349 -11.804  10.945  0.00  0.00    +0.111 C 
ATOM     12  C   UNL     1      -2.853 -10.561  11.660  0.00  0.00    +0.164 C 
ATOM     13  C   UNL     1      -1.916 -11.171  12.694  0.00  0.00    +0.165 C 
ATOM     14  C   UNL     1      -3.506 -12.775  12.103  0.00  0.00    +0.181 C 
ENDROOT
BRANCH  12   3
ATOM      3  O   UNL     1      -2.177  -9.667  10.797  0.00  0.00    -0.388 OA
ATOM     24  H   UNL     1      -1.454 -10.151  10.362  0.00  0.00    +0.210 HD
ENDBRANCH  12   3
BRANCH  11   5
ATOM      5  N   UNL     1      -4.584 -11.599  10.207  0.00  0.00    -0.309 NA
ATOM     23  H   UNL     1      -5.082 -12.488  10.135  0.00  0.00    +0.122 HD
BRANCH   5  10
ATOM     10  C   UNL     1      -5.444 -10.632  10.878  0.00  0.00    +0.084 C 
BRANCH  10   7
ATOM      7  C   UNL     1      -5.934  -9.588   9.930  0.00  0.00    +0.003 C 
ATOM      8  C   UNL     1      -5.085  -9.167   8.762  0.00  0.00    +0.005 C 
ATOM      9  C   UNL     1      -5.301  -8.224   9.913  0.00  0.00    +0.005 C 
ENDBRANCH  10   7
ENDBRANCH   5  10
ENDBRANCH  11   5
BRANCH  13  15
ATOM     15  C   UNL     1      -1.721 -10.296  13.918  0.00  0.00    +0.138 C 
BRANCH  15   6
ATOM      4  O   UNL     1      -1.899 -10.878  16.724  0.00  0.00    -0.270 OA
ATOM      6  N   UNL     1      -2.920 -10.287  14.729  0.00  0.00    -0.309 N 
ATOM     16  C   UNL     1      -2.902 -10.583  16.081  0.00  0.00    +0.244 C 
ATOM     25  H   UNL     1      -3.796 -10.122  14.243  0.00  0.00    +0.149 HD
BRANCH  16  17
ATOM      1  F   UNL     1      -7.887 -10.477  18.664  0.00  0.00    -0.205 F 
ATOM     17  C   UNL     1      -4.221 -10.555  16.765  0.00  0.00    +0.037 A 
ATOM     18  C   UNL     1      -5.291  -9.871  16.187  0.00  0.00    +0.016 A 
ATOM     19  C   UNL     1      -4.390 -11.211  17.984  0.00  0.00    +0.016 A 
ATOM     20  C   UNL     1      -6.530  -9.845  16.828  0.00  0.00    +0.039 A 
ATOM     21  C   UNL     1      -5.628 -11.184  18.626  0.00  0.00    +0.039 A 
ATOM     22  C   UNL     1      -6.698 -10.501  18.047  0.00  0.00    +0.123 A 
ENDBRANCH  16  17
ENDBRANCH  15   6
ENDBRANCH  13  15
TORSDOF 7
ENDMDL
MODEL 9
REMARK VINA RESULT:      -5.5     26.645     28.567
REMARK  Name = 86769004
REMARK  7 active torsions:
REMARK  status: ('A' for Active; 'I' for Inactive)
REMARK    1  A    between atoms: O_3  and  C_12
REMARK    2  A    between atoms: N_5  and  C_10
REMARK    3  A    between atoms: N_5  and  C_11
REMARK    4  A    between atoms: N_6  and  C_15
REMARK    5  A    between atoms: C_7  and  C_10
REMARK    6  A    between atoms: C_13  and  C_15
REMARK    7  A    between atoms: C_16  and  C_17
REMARK                            x       y       z     vdW  Elec       q    Type
REMARK                         _______ _______ _______ _____ _____    ______ ____
ROOT
ATOM      2  O   UNL     1      -4.981 -11.912  15.880  0.00  0.00    -0.371 OA
ATOM     11  C   UNL     1      -2.955 -11.422  14.742  0.00  0.00    +0.111 C 
ATOM     12  C   UNL     1      -2.882 -10.854  16.147  0.00  0.00    +0.164 C 
ATOM     13  C   UNL     1      -3.948 -11.681  16.853  0.00  0.00    +0.165 C 
ATOM     14  C   UNL     1      -4.452 -11.621  14.574  0.00  0.00    +0.181 C 
ENDROOT
BRANCH  12   3
ATOM      3  O   UNL     1      -1.607 -11.020  16.738  0.00  0.00    -0.388 OA
ATOM     24  H   UNL     1      -1.135 -11.720  16.254  0.00  0.00    +0.210 HD
ENDBRANCH  12   3
BRANCH  11   5
ATOM      5  N   UNL     1      -2.383 -10.549  13.729  0.00  0.00    -0.309 NA
ATOM     23  H   UNL     1      -1.520 -10.966  13.378  0.00  0.00    +0.122 HD
BRANCH   5  10
ATOM     10  C   UNL     1      -3.303 -10.366  12.613  0.00  0.00    +0.084 C 
BRANCH  10   7
ATOM      7  C   UNL     1      -2.576 -10.329  11.309  0.00  0.00    +0.003 C 
ATOM      8  C   UNL     1      -1.588  -9.233  11.022  0.00  0.00    +0.005 C 
ATOM      9  C   UNL     1      -2.900  -9.272  10.290  0.00  0.00    +0.005 C 
ENDBRANCH  10   7
ENDBRANCH   5  10
ENDBRANCH  11   5
BRANCH  13  15
ATOM     15  C   UNL     1      -4.535 -10.991  18.071  0.00  0.00    +0.138 C 
BRANCH  15   6
ATOM      4  O   UNL     1      -6.679 -10.706  19.959  0.00  0.00    -0.270 OA
ATOM      6  N   UNL     1      -5.878 -10.527  17.791  0.00  0.00    -0.309 N 
ATOM     16  C   UNL     1      -6.846 -10.424  18.776  0.00  0.00    +0.244 C 
ATOM     25  H   UNL     1      -6.103 -10.348  16.817  0.00  0.00    +0.149 HD
BRANCH  16  17
ATOM      1  F   UNL     1     -11.893  -8.661  17.060  0.00  0.00    -0.205 F 
ATOM     17  C   UNL     1      -8.180  -9.957  18.321  0.00  0.00    +0.037 A 
ATOM     18  C   UNL     1      -9.337 -10.534  18.847  0.00  0.00    +0.016 A 
ATOM     19  C   UNL     1      -8.279  -8.943  17.369  0.00  0.00    +0.016 A 
ATOM     20  C   UNL     1     -10.591 -10.097  18.422  0.00  0.00    +0.039 A 
ATOM     21  C   UNL     1      -9.533  -8.505  16.942  0.00  0.00    +0.039 A 
ATOM     22  C   UNL     1     -10.689  -9.082  17.469  0.00  0.00    +0.123 A 
ENDBRANCH  16  17
ENDBRANCH  15   6
ENDBRANCH  13  15
TORSDOF 7
ENDMDL
MODEL 10
REMARK VINA RESULT:      -5.5      3.011      3.620
REMARK  Name = 86769004
REMARK  7 active torsions:
REMARK  status: ('A' for Active; 'I' for Inactive)
REMARK    1  A    between atoms: O_3  and  C_12
REMARK    2  A    between atoms: N_5  and  C_10
REMARK    3  A    between atoms: N_5  and  C_11
REMARK    4  A    between atoms: N_6  and  C_15
REMARK    5  A    between atoms: C_7  and  C_10
REMARK    6  A    between atoms: C_13  and  C_15
REMARK    7  A    between atoms: C_16  and  C_17
REMARK                            x       y       z     vdW  Elec       q    Type
REMARK                         _______ _______ _______ _____ _____    ______ ____
ROOT
ATOM      2  O   UNL     1      16.589   6.889  19.957  0.00  0.00    -0.371 OA
ATOM     11  C   UNL     1      18.760   6.332  20.744  0.00  0.00    +0.111 C 
ATOM     12  C   UNL     1      18.409   7.732  21.212  0.00  0.00    +0.164 C 
ATOM     13  C   UNL     1      16.890   7.706  21.101  0.00  0.00    +0.165 C 
ATOM     14  C   UNL     1      17.764   6.134  19.613  0.00  0.00    +0.181 C 
ENDROOT
BRANCH  12   3
ATOM      3  O   UNL     1      18.837   7.989  22.535  0.00  0.00    -0.388 OA
ATOM     24  H   UNL     1      18.880   7.143  23.012  0.00  0.00    +0.210 HD
ENDBRANCH  12   3
BRANCH  11   5
ATOM      5  N   UNL     1      20.141   6.190  20.313  0.00  0.00    -0.309 NA
ATOM     23  H   UNL     1      20.741   6.740  20.930  0.00  0.00    +0.122 HD
BRANCH   5  10
ATOM     10  C   UNL     1      20.567   4.797  20.363  0.00  0.00    +0.084 C 
BRANCH  10   7
ATOM      7  C   UNL     1      21.877   4.653  21.066  0.00  0.00    +0.003 C 
ATOM      8  C   UNL     1      22.518   3.300  21.205  0.00  0.00    +0.005 C 
ATOM      9  C   UNL     1      21.944   3.986  22.412  0.00  0.00    +0.005 C 
ENDBRANCH  10   7
ENDBRANCH   5  10
ENDBRANCH  11   5
BRANCH  13  15
ATOM     15  C   UNL     1      16.277   9.083  20.924  0.00  0.00    +0.138 C 
BRANCH  15   6
ATOM      4  O   UNL     1      13.421   9.365  21.015  0.00  0.00    -0.270 OA
ATOM      6  N   UNL     1      15.372   9.092  19.793  0.00  0.00    -0.309 N 
ATOM     16  C   UNL     1      14.003   9.234  19.942  0.00  0.00    +0.244 C 
ATOM     25  H   UNL     1      15.782   8.914  18.882  0.00  0.00    +0.149 HD
BRANCH  16  17
ATOM      1  F   UNL     1      11.010   9.093  15.193  0.00  0.00    -0.205 F 
ATOM     17  C   UNL     1      13.211   9.197  18.686  0.00  0.00    +0.037 A 
ATOM     18  C   UNL     1      13.741   9.732  17.511  0.00  0.00    +0.016 A 
ATOM     19  C   UNL     1      11.938   8.628  18.680  0.00  0.00    +0.016 A 
ATOM     20  C   UNL     1      12.999   9.697  16.331  0.00  0.00    +0.039 A 
ATOM     21  C   UNL     1      11.194   8.593  17.500  0.00  0.00    +0.039 A 
ATOM     22  C   UNL     1      11.725   9.127  16.326  0.00  0.00    +0.123 A 
ENDBRANCH  16  17
ENDBRANCH  15   6
ENDBRANCH  13  15
TORSDOF 7
ENDMDL
