MODEL 1
REMARK VINA RESULT:      -6.5      0.000      0.000
REMARK  Name = 7049571
REMARK  12 active torsions:
REMARK  status: ('A' for Active; 'I' for Inactive)
REMARK    1  A    between atoms: O_6  and  C_23
REMARK    2  A    between atoms: O_6  and  C_33
REMARK    3  A    between atoms: N_9  and  C_13
REMARK    4  A    between atoms: N_10  and  C_19
REMARK    5  A    between atoms: N_11  and  C_29
REMARK    6  A    between atoms: N_12  and  C_30
REMARK    7  A    between atoms: C_14  and  C_17
REMARK    8  A    between atoms: C_18  and  C_21
REMARK    9  A    between atoms: C_19  and  C_20
REMARK   10  A    between atoms: C_19  and  C_23
REMARK   11  A    between atoms: C_20  and  C_24
REMARK   12  A    between atoms: C_20  and  C_25
REMARK                            x       y       z     vdW  Elec       q    Type
REMARK                         _______ _______ _______ _____ _____    ______ ____
ROOT
ATOM      4  O   UNL     1      11.193   3.566   2.699  0.00  0.00    -0.268 OA
ATOM      8  N   UNL     1      11.845   5.772   2.523  0.00  0.00    -0.283 N 
ATOM     13  C   UNL     1      12.848   7.282   4.053  0.00  0.00    +0.105 C 
ATOM     14  C   UNL     1      12.080   5.963   3.951  0.00  0.00    +0.182 C 
ATOM     15  C   UNL     1      12.375   8.061   2.823  0.00  0.00    +0.043 C 
ATOM     16  C   UNL     1      12.176   6.981   1.767  0.00  0.00    +0.111 C 
ATOM     18  C   UNL     1      11.455   4.540   1.991  0.00  0.00    +0.264 C 
ENDROOT
BRANCH  13   9
ATOM      5  O   UNL     1      14.892   9.178   4.708  0.00  0.00    -0.252 OA
ATOM      9  N   UNL     1      14.273   7.063   4.011  0.00  0.00    -0.294 N 
ATOM     12  N   UNL     1      16.508   7.549   4.214  0.00  0.00    -0.267 N 
ATOM     22  C   UNL     1      15.209   8.047   4.349  0.00  0.00    +0.304 C 
ATOM     37  H   UNL     1      14.614   6.132   3.789  0.00  0.00    +0.151 HD
ATOM     39  H   UNL     1      16.599   6.585   3.902  0.00  0.00    +0.156 HD
BRANCH  12  30
ATOM      1  F   UNL     1      18.443   7.827   2.228  0.00  0.00    -0.203 F 
ATOM      2  F   UNL     1      21.278  10.203   5.178  0.00  0.00    -0.205 F 
ATOM     30  C   UNL     1      17.726   8.225   4.457  0.00  0.00    +0.070 A 
ATOM     31  C   UNL     1      18.675   8.347   3.442  0.00  0.00    +0.147 A 
ATOM     32  C   UNL     1      17.978   8.769   5.717  0.00  0.00    +0.029 A 
ATOM     34  C   UNL     1      19.875   9.016   3.685  0.00  0.00    +0.078 A 
ATOM     35  C   UNL     1      19.178   9.437   5.960  0.00  0.00    +0.040 A 
ATOM     36  C   UNL     1      20.126   9.560   4.944  0.00  0.00    +0.126 A 
ENDBRANCH  12  30
ENDBRANCH  13   9
BRANCH  18  21
ATOM     11  N   UNL     1      12.346   4.048  -0.297  0.00  0.00    -0.346 N 
ATOM     21  C   UNL     1      11.344   4.464   0.540  0.00  0.00    +0.104 A 
ATOM     26  C   UNL     1      10.252   4.783  -0.236  0.00  0.00    +0.032 A 
ATOM     27  C   UNL     1      11.911   4.098  -1.595  0.00  0.00    +0.086 A 
ATOM     28  C   UNL     1      10.611   4.552  -1.587  0.00  0.00    +0.020 A 
ATOM     29  C   UNL     1      13.667   3.619   0.111  0.00  0.00    +0.149 C 
ENDBRANCH  18  21
BRANCH  14  17
ATOM      3  O   UNL     1       9.715   6.296   3.952  0.00  0.00    -0.274 OA
ATOM     10  N   UNL     1      10.796   5.897   5.975  0.00  0.00    -0.301 N 
ATOM     17  C   UNL     1      10.733   6.067   4.601  0.00  0.00    +0.236 C 
ATOM     38  H   UNL     1      11.689   5.656   6.394  0.00  0.00    +0.150 HD
BRANCH  10  19
ATOM     19  C   UNL     1       9.641   5.973   6.836  0.00  0.00    +0.184 C 
BRANCH  19  20
ATOM     20  C   UNL     1       9.403   7.399   7.381  0.00  0.00    +0.014 C 
ATOM     24  C   UNL     1      10.696   8.221   7.366  0.00  0.00    +0.009 C 
ATOM     25  C   UNL     1       8.295   8.153   6.638  0.00  0.00    +0.009 C 
ENDBRANCH  19  20
BRANCH  19  23
ATOM      7  O   UNL     1       9.965   3.767   7.774  0.00  0.00    -0.249 OA
ATOM     23  C   UNL     1       9.715   4.953   7.967  0.00  0.00    +0.328 C 
BRANCH  23   6
ATOM      6  O   UNL     1       9.472   5.514   9.184  0.00  0.00    -0.467 OA
ATOM     33  C   UNL     1       9.020   4.617  10.204  0.00  0.00    +0.280 C 
ENDBRANCH  23   6
ENDBRANCH  19  23
ENDBRANCH  10  19
ENDBRANCH  14  17
TORSDOF 8
ENDMDL
MODEL 2
REMARK VINA RESULT:      -6.5     14.422     18.148
REMARK  Name = 7049571
REMARK  12 active torsions:
REMARK  status: ('A' for Active; 'I' for Inactive)
REMARK    1  A    between atoms: O_6  and  C_23
REMARK    2  A    between atoms: O_6  and  C_33
REMARK    3  A    between atoms: N_9  and  C_13
REMARK    4  A    between atoms: N_10  and  C_19
REMARK    5  A    between atoms: N_11  and  C_29
REMARK    6  A    between atoms: N_12  and  C_30
REMARK    7  A    between atoms: C_14  and  C_17
REMARK    8  A    between atoms: C_18  and  C_21
REMARK    9  A    between atoms: C_19  and  C_20
REMARK   10  A    between atoms: C_19  and  C_23
REMARK   11  A    between atoms: C_20  and  C_24
REMARK   12  A    between atoms: C_20  and  C_25
REMARK                            x       y       z     vdW  Elec       q    Type
REMARK                         _______ _______ _______ _____ _____    ______ ____
ROOT
ATOM      4  O   UNL     1      19.451  -4.829   0.733  0.00  0.00    -0.268 OA
ATOM      8  N   UNL     1      19.773  -6.476  -0.850  0.00  0.00    -0.283 N 
ATOM     13  C   UNL     1      20.156  -8.812  -0.688  0.00  0.00    +0.105 C 
ATOM     14  C   UNL     1      20.196  -7.502   0.100  0.00  0.00    +0.182 C 
ATOM     15  C   UNL     1      20.411  -8.364  -2.129  0.00  0.00    +0.043 C 
ATOM     16  C   UNL     1      19.724  -7.007  -2.213  0.00  0.00    +0.111 C 
ATOM     18  C   UNL     1      19.378  -5.200  -0.439  0.00  0.00    +0.264 C 
ENDROOT
BRANCH  13   9
ATOM      5  O   UNL     1      19.367 -10.691   1.324  0.00  0.00    -0.252 OA
ATOM      9  N   UNL     1      18.870  -9.456  -0.566  0.00  0.00    -0.294 N 
ATOM     12  N   UNL     1      17.251 -10.824   0.317  0.00  0.00    -0.267 N 
ATOM     22  C   UNL     1      18.564 -10.366   0.452  0.00  0.00    +0.304 C 
ATOM     37  H   UNL     1      18.130  -9.189  -1.208  0.00  0.00    +0.151 HD
ATOM     39  H   UNL     1      16.716 -10.456  -0.466  0.00  0.00    +0.156 HD
BRANCH  12  30
ATOM      1  F   UNL     1      16.294 -10.106   2.834  0.00  0.00    -0.203 F 
ATOM      2  F   UNL     1      14.558 -14.451   3.528  0.00  0.00    -0.205 F 
ATOM     30  C   UNL     1      16.564 -11.748   1.139  0.00  0.00    +0.070 A 
ATOM     31  C   UNL     1      16.097 -11.357   2.394  0.00  0.00    +0.147 A 
ATOM     32  C   UNL     1      16.354 -13.052   0.691  0.00  0.00    +0.029 A 
ATOM     34  C   UNL     1      15.419 -12.270   3.201  0.00  0.00    +0.078 A 
ATOM     35  C   UNL     1      15.677 -13.966   1.499  0.00  0.00    +0.040 A 
ATOM     36  C   UNL     1      15.209 -13.575   2.753  0.00  0.00    +0.126 A 
ENDBRANCH  12  30
ENDBRANCH  13   9
BRANCH  18  21
ATOM     11  N   UNL     1      19.695  -3.529  -2.277  0.00  0.00    -0.346 N 
ATOM     21  C   UNL     1      18.893  -4.304  -1.480  0.00  0.00    +0.104 A 
ATOM     26  C   UNL     1      17.585  -4.074  -1.848  0.00  0.00    +0.032 A 
ATOM     27  C   UNL     1      18.920  -2.808  -3.146  0.00  0.00    +0.086 A 
ATOM     28  C   UNL     1      17.602  -3.126  -2.902  0.00  0.00    +0.020 A 
ATOM     29  C   UNL     1      21.139  -3.470  -2.222  0.00  0.00    +0.149 C 
ENDBRANCH  18  21
BRANCH  14  17
ATOM      3  O   UNL     1      22.521  -7.128  -0.296  0.00  0.00    -0.274 OA
ATOM     10  N   UNL     1      21.701  -6.914   1.872  0.00  0.00    -0.301 N 
ATOM     17  C   UNL     1      21.597  -7.159   0.512  0.00  0.00    +0.236 C 
ATOM     38  H   UNL     1      20.854  -6.914   2.432  0.00  0.00    +0.150 HD
BRANCH  10  19
ATOM     19  C   UNL     1      22.945  -6.586   2.524  0.00  0.00    +0.184 C 
BRANCH  19  20
ATOM     20  C   UNL     1      23.043  -7.181   3.946  0.00  0.00    +0.014 C 
ATOM     24  C   UNL     1      21.776  -7.964   4.307  0.00  0.00    +0.009 C 
ATOM     25  C   UNL     1      24.279  -8.063   4.150  0.00  0.00    +0.009 C 
ENDBRANCH  19  20
BRANCH  19  23
ATOM      7  O   UNL     1      22.285  -4.261   2.603  0.00  0.00    -0.249 OA
ATOM     23  C   UNL     1      23.194  -5.082   2.534  0.00  0.00    +0.328 C 
BRANCH  23   6
ATOM      6  O   UNL     1      24.520  -4.778   2.455  0.00  0.00    -0.467 OA
ATOM     33  C   UNL     1      25.162  -5.107   1.218  0.00  0.00    +0.280 C 
ENDBRANCH  23   6
ENDBRANCH  19  23
ENDBRANCH  10  19
ENDBRANCH  14  17
TORSDOF 8
ENDMDL
MODEL 3
REMARK VINA RESULT:      -6.4     35.198     39.068
REMARK  Name = 7049571
REMARK  12 active torsions:
REMARK  status: ('A' for Active; 'I' for Inactive)
REMARK    1  A    between atoms: O_6  and  C_23
REMARK    2  A    between atoms: O_6  and  C_33
REMARK    3  A    between atoms: N_9  and  C_13
REMARK    4  A    between atoms: N_10  and  C_19
REMARK    5  A    between atoms: N_11  and  C_29
REMARK    6  A    between atoms: N_12  and  C_30
REMARK    7  A    between atoms: C_14  and  C_17
REMARK    8  A    between atoms: C_18  and  C_21
REMARK    9  A    between atoms: C_19  and  C_20
REMARK   10  A    between atoms: C_19  and  C_23
REMARK   11  A    between atoms: C_20  and  C_24
REMARK   12  A    between atoms: C_20  and  C_25
REMARK                            x       y       z     vdW  Elec       q    Type
REMARK                         _______ _______ _______ _____ _____    ______ ____
ROOT
ATOM      4  O   UNL     1      -9.949  10.017  32.390  0.00  0.00    -0.268 OA
ATOM      8  N   UNL     1     -11.914   9.278  33.346  0.00  0.00    -0.283 N 
ATOM     13  C   UNL     1     -13.684   7.918  32.542  0.00  0.00    +0.105 C 
ATOM     14  C   UNL     1     -12.491   8.769  32.105  0.00  0.00    +0.182 C 
ATOM     15  C   UNL     1     -14.113   8.565  33.862  0.00  0.00    +0.043 C 
ATOM     16  C   UNL     1     -12.799   9.021  34.483  0.00  0.00    +0.111 C 
ATOM     18  C   UNL     1     -10.633   9.834  33.398  0.00  0.00    +0.264 C 
ENDROOT
BRANCH  13   9
ATOM      5  O   UNL     1     -15.097   5.599  31.632  0.00  0.00    -0.252 OA
ATOM      9  N   UNL     1     -13.300   6.542  32.740  0.00  0.00    -0.294 N 
ATOM     12  N   UNL     1     -13.436   4.254  32.601  0.00  0.00    -0.267 N 
ATOM     22  C   UNL     1     -14.050   5.462  32.261  0.00  0.00    +0.304 C 
ATOM     37  H   UNL     1     -12.412   6.346  33.192  0.00  0.00    +0.151 HD
ATOM     39  H   UNL     1     -12.568   4.314  33.129  0.00  0.00    +0.156 HD
BRANCH  12  30
ATOM      1  F   UNL     1     -13.071   3.131  30.077  0.00  0.00    -0.203 F 
ATOM      2  F   UNL     1     -15.155  -0.888  31.450  0.00  0.00    -0.205 F 
ATOM     30  C   UNL     1     -13.874   2.942  32.304  0.00  0.00    +0.070 A 
ATOM     31  C   UNL     1     -13.677   2.409  31.031  0.00  0.00    +0.147 A 
ATOM     32  C   UNL     1     -14.506   2.183  33.289  0.00  0.00    +0.029 A 
ATOM     34  C   UNL     1     -14.109   1.114  30.742  0.00  0.00    +0.078 A 
ATOM     35  C   UNL     1     -14.939   0.888  33.000  0.00  0.00    +0.040 A 
ATOM     36  C   UNL     1     -14.740   0.355  31.727  0.00  0.00    +0.126 A 
ENDBRANCH  12  30
ENDBRANCH  13   9
BRANCH  18  21
ATOM     11  N   UNL     1     -10.366  11.436  35.304  0.00  0.00    -0.346 N 
ATOM     21  C   UNL     1     -10.144  10.218  34.716  0.00  0.00    +0.104 A 
ATOM     26  C   UNL     1      -9.395   9.460  35.588  0.00  0.00    +0.032 A 
ATOM     27  C   UNL     1      -9.769  11.467  36.537  0.00  0.00    +0.086 A 
ATOM     28  C   UNL     1      -9.157  10.250  36.740  0.00  0.00    +0.020 A 
ATOM     29  C   UNL     1     -11.112  12.533  34.726  0.00  0.00    +0.149 C 
ENDBRANCH  18  21
BRANCH  14  17
ATOM      3  O   UNL     1     -13.883  10.660  31.668  0.00  0.00    -0.274 OA
ATOM     10  N   UNL     1     -12.177  10.148  30.168  0.00  0.00    -0.301 N 
ATOM     17  C   UNL     1     -12.935   9.963  31.313  0.00  0.00    +0.236 C 
ATOM     38  H   UNL     1     -11.381   9.539  30.009  0.00  0.00    +0.150 HD
BRANCH  10  19
ATOM     19  C   UNL     1     -12.417  11.212  29.225  0.00  0.00    +0.184 C 
BRANCH  19  20
ATOM     20  C   UNL     1     -12.072  10.806  27.775  0.00  0.00    +0.014 C 
ATOM     24  C   UNL     1     -10.963   9.749  27.745  0.00  0.00    +0.009 C 
ATOM     25  C   UNL     1     -13.285  10.313  26.979  0.00  0.00    +0.009 C 
ENDBRANCH  19  20
BRANCH  19  23
ATOM      7  O   UNL     1     -10.627  12.490  30.231  0.00  0.00    -0.249 OA
ATOM     23  C   UNL     1     -11.695  12.493  29.627  0.00  0.00    +0.328 C 
BRANCH  23   6
ATOM      6  O   UNL     1     -12.373  13.610  29.243  0.00  0.00    -0.467 OA
ATOM     33  C   UNL     1     -13.578  13.887  29.965  0.00  0.00    +0.280 C 
ENDBRANCH  23   6
ENDBRANCH  19  23
ENDBRANCH  10  19
ENDBRANCH  14  17
TORSDOF 8
ENDMDL
MODEL 4
REMARK VINA RESULT:      -6.4     15.684     18.880
REMARK  Name = 7049571
REMARK  12 active torsions:
REMARK  status: ('A' for Active; 'I' for Inactive)
REMARK    1  A    between atoms: O_6  and  C_23
REMARK    2  A    between atoms: O_6  and  C_33
REMARK    3  A    between atoms: N_9  and  C_13
REMARK    4  A    between atoms: N_10  and  C_19
REMARK    5  A    between atoms: N_11  and  C_29
REMARK    6  A    between atoms: N_12  and  C_30
REMARK    7  A    between atoms: C_14  and  C_17
REMARK    8  A    between atoms: C_18  and  C_21
REMARK    9  A    between atoms: C_19  and  C_20
REMARK   10  A    between atoms: C_19  and  C_23
REMARK   11  A    between atoms: C_20  and  C_24
REMARK   12  A    between atoms: C_20  and  C_25
REMARK                            x       y       z     vdW  Elec       q    Type
REMARK                         _______ _______ _______ _____ _____    ______ ____
ROOT
ATOM      4  O   UNL     1      12.571   9.209  21.723  0.00  0.00    -0.268 OA
ATOM      8  N   UNL     1      14.676   9.729  20.935  0.00  0.00    -0.283 N 
ATOM     13  C   UNL     1      16.793   9.903  21.991  0.00  0.00    +0.105 C 
ATOM     14  C   UNL     1      15.286   9.875  22.253  0.00  0.00    +0.182 C 
ATOM     15  C   UNL     1      16.894  10.478  20.576  0.00  0.00    +0.043 C 
ATOM     16  C   UNL     1      15.664   9.921  19.872  0.00  0.00    +0.111 C 
ATOM     18  C   UNL     1      13.341   9.350  20.771  0.00  0.00    +0.264 C 
ENDROOT
BRANCH  13   9
ATOM      5  O   UNL     1      19.568   9.217  21.826  0.00  0.00    -0.252 OA
ATOM      9  N   UNL     1      17.359   8.577  22.054  0.00  0.00    -0.294 N 
ATOM     12  N   UNL     1      18.985   6.956  22.055  0.00  0.00    -0.267 N 
ATOM     22  C   UNL     1      18.733   8.327  21.965  0.00  0.00    +0.304 C 
ATOM     37  H   UNL     1      16.739   7.793  22.235  0.00  0.00    +0.151 HD
ATOM     39  H   UNL     1      18.176   6.348  22.167  0.00  0.00    +0.156 HD
BRANCH  12  30
ATOM      1  F   UNL     1      20.656   6.842  24.282  0.00  0.00    -0.203 F 
ATOM      2  F   UNL     1      23.882   4.369  21.863  0.00  0.00    -0.205 F 
ATOM     30  C   UNL     1      20.235   6.297  22.009  0.00  0.00    +0.070 A 
ATOM     31  C   UNL     1      21.049   6.258  23.141  0.00  0.00    +0.147 A 
ATOM     32  C   UNL     1      20.654   5.686  20.827  0.00  0.00    +0.029 A 
ATOM     34  C   UNL     1      22.281   5.606  23.092  0.00  0.00    +0.078 A 
ATOM     35  C   UNL     1      21.886   5.035  20.777  0.00  0.00    +0.040 A 
ATOM     36  C   UNL     1      22.700   4.995  21.910  0.00  0.00    +0.126 A 
ENDBRANCH  12  30
ENDBRANCH  13   9
BRANCH  18  21
ATOM     11  N   UNL     1      12.542   7.939  18.863  0.00  0.00    -0.346 N 
ATOM     21  C   UNL     1      12.885   9.152  19.402  0.00  0.00    +0.104 A 
ATOM     26  C   UNL     1      12.718  10.109  18.426  0.00  0.00    +0.032 A 
ATOM     27  C   UNL     1      12.160   8.107  17.559  0.00  0.00    +0.086 A 
ATOM     28  C   UNL     1      12.260   9.448  17.259  0.00  0.00    +0.020 A 
ATOM     29  C   UNL     1      12.573   6.667  19.552  0.00  0.00    +0.149 C 
ENDBRANCH  18  21
BRANCH  14  17
ATOM      3  O   UNL     1      15.030  12.250  22.241  0.00  0.00    -0.274 OA
ATOM     10  N   UNL     1      14.128  11.031  24.007  0.00  0.00    -0.301 N 
ATOM     17  C   UNL     1      14.807  11.184  22.809  0.00  0.00    +0.236 C 
ATOM     38  H   UNL     1      13.956  10.091  24.351  0.00  0.00    +0.150 HD
BRANCH  10  19
ATOM     19  C   UNL     1      13.587  12.137  24.757  0.00  0.00    +0.184 C 
BRANCH  19  20
ATOM     20  C   UNL     1      14.075  12.154  26.222  0.00  0.00    +0.014 C 
ATOM     24  C   UNL     1      15.547  11.741  26.321  0.00  0.00    +0.009 C 
ATOM     25  C   UNL     1      13.863  13.504  26.915  0.00  0.00    +0.009 C 
ENDBRANCH  19  20
BRANCH  19  23
ATOM      7  O   UNL     1      11.346  11.516  25.423  0.00  0.00    -0.249 OA
ATOM     23  C   UNL     1      12.064  12.177  24.679  0.00  0.00    +0.328 C 
BRANCH  23   6
ATOM      6  O   UNL     1      11.619  13.016  23.703  0.00  0.00    -0.467 OA
ATOM     33  C   UNL     1      11.113  12.383  22.522  0.00  0.00    +0.280 C 
ENDBRANCH  23   6
ENDBRANCH  19  23
ENDBRANCH  10  19
ENDBRANCH  14  17
TORSDOF 8
ENDMDL
MODEL 5
REMARK VINA RESULT:      -6.3      2.032      2.705
REMARK  Name = 7049571
REMARK  12 active torsions:
REMARK  status: ('A' for Active; 'I' for Inactive)
REMARK    1  A    between atoms: O_6  and  C_23
REMARK    2  A    between atoms: O_6  and  C_33
REMARK    3  A    between atoms: N_9  and  C_13
REMARK    4  A    between atoms: N_10  and  C_19
REMARK    5  A    between atoms: N_11  and  C_29
REMARK    6  A    between atoms: N_12  and  C_30
REMARK    7  A    between atoms: C_14  and  C_17
REMARK    8  A    between atoms: C_18  and  C_21
REMARK    9  A    between atoms: C_19  and  C_20
REMARK   10  A    between atoms: C_19  and  C_23
REMARK   11  A    between atoms: C_20  and  C_24
REMARK   12  A    between atoms: C_20  and  C_25
REMARK                            x       y       z     vdW  Elec       q    Type
REMARK                         _______ _______ _______ _____ _____    ______ ____
ROOT
ATOM      4  O   UNL     1      12.977   4.253   2.033  0.00  0.00    -0.268 OA
ATOM      8  N   UNL     1      13.825   6.298   1.384  0.00  0.00    -0.283 N 
ATOM     13  C   UNL     1      14.993   8.002   2.551  0.00  0.00    +0.105 C 
ATOM     14  C   UNL     1      14.107   6.769   2.737  0.00  0.00    +0.182 C 
ATOM     15  C   UNL     1      14.568   8.538   1.182  0.00  0.00    +0.043 C 
ATOM     16  C   UNL     1      14.249   7.280   0.385  0.00  0.00    +0.111 C 
ATOM     18  C   UNL     1      13.312   5.023   1.132  0.00  0.00    +0.264 C 
ENDROOT
BRANCH  13   9
ATOM      5  O   UNL     1      17.049   9.159   4.174  0.00  0.00    -0.252 OA
ATOM      9  N   UNL     1      16.391   7.645   2.556  0.00  0.00    -0.294 N 
ATOM     12  N   UNL     1      18.603   7.713   3.172  0.00  0.00    -0.267 N 
ATOM     22  C   UNL     1      17.335   8.262   3.385  0.00  0.00    +0.304 C 
ATOM     37  H   UNL     1      16.696   6.866   1.980  0.00  0.00    +0.151 HD
ATOM     39  H   UNL     1      18.670   6.973   2.476  0.00  0.00    +0.156 HD
BRANCH  12  30
ATOM      1  F   UNL     1      20.034   9.988   2.438  0.00  0.00    -0.203 F 
ATOM      2  F   UNL     1      23.360   9.066   5.672  0.00  0.00    -0.205 F 
ATOM     30  C   UNL     1      19.817   8.060   3.808  0.00  0.00    +0.070 A 
ATOM     31  C   UNL     1      20.510   9.206   3.417  0.00  0.00    +0.147 A 
ATOM     32  C   UNL     1      20.322   7.253   4.827  0.00  0.00    +0.029 A 
ATOM     34  C   UNL     1      21.707   9.546   4.047  0.00  0.00    +0.078 A 
ATOM     35  C   UNL     1      21.520   7.593   5.457  0.00  0.00    +0.040 A 
ATOM     36  C   UNL     1      22.212   8.739   5.067  0.00  0.00    +0.126 A 
ENDBRANCH  12  30
ENDBRANCH  13   9
BRANCH  18  21
ATOM     11  N   UNL     1      12.041   4.873  -1.020  0.00  0.00    -0.346 N 
ATOM     21  C   UNL     1      13.164   4.648  -0.268  0.00  0.00    +0.104 A 
ATOM     26  C   UNL     1      14.089   4.018  -1.071  0.00  0.00    +0.032 A 
ATOM     27  C   UNL     1      12.234   4.397  -2.290  0.00  0.00    +0.086 A 
ATOM     28  C   UNL     1      13.501   3.858  -2.351  0.00  0.00    +0.020 A 
ATOM     29  C   UNL     1      10.828   5.515  -0.560  0.00  0.00    +0.149 C 
ENDBRANCH  18  21
BRANCH  14  17
ATOM      3  O   UNL     1      12.086   8.034   2.891  0.00  0.00    -0.274 OA
ATOM     10  N   UNL     1      12.496   6.372   4.469  0.00  0.00    -0.301 N 
ATOM     17  C   UNL     1      12.788   7.136   3.351  0.00  0.00    +0.236 C 
ATOM     38  H   UNL     1      13.128   5.618   4.721  0.00  0.00    +0.150 HD
BRANCH  10  19
ATOM     19  C   UNL     1      11.298   6.543   5.254  0.00  0.00    +0.184 C 
BRANCH  19  20
ATOM     20  C   UNL     1      11.602   6.859   6.735  0.00  0.00    +0.014 C 
ATOM     24  C   UNL     1      13.104   6.765   7.025  0.00  0.00    +0.009 C 
ATOM     25  C   UNL     1      11.067   8.223   7.185  0.00  0.00    +0.009 C 
ENDBRANCH  19  20
BRANCH  19  23
ATOM      7  O   UNL     1      10.586   4.413   4.355  0.00  0.00    -0.249 OA
ATOM     23  C   UNL     1      10.365   5.344   5.123  0.00  0.00    +0.328 C 
BRANCH  23   6
ATOM      6  O   UNL     1       9.283   5.441   5.946  0.00  0.00    -0.467 OA
ATOM     33  C   UNL     1       8.198   6.236   5.456  0.00  0.00    +0.280 C 
ENDBRANCH  23   6
ENDBRANCH  19  23
ENDBRANCH  10  19
ENDBRANCH  14  17
TORSDOF 8
ENDMDL
MODEL 6
REMARK VINA RESULT:      -6.2     14.505     17.990
REMARK  Name = 7049571
REMARK  12 active torsions:
REMARK  status: ('A' for Active; 'I' for Inactive)
REMARK    1  A    between atoms: O_6  and  C_23
REMARK    2  A    between atoms: O_6  and  C_33
REMARK    3  A    between atoms: N_9  and  C_13
REMARK    4  A    between atoms: N_10  and  C_19
REMARK    5  A    between atoms: N_11  and  C_29
REMARK    6  A    between atoms: N_12  and  C_30
REMARK    7  A    between atoms: C_14  and  C_17
REMARK    8  A    between atoms: C_18  and  C_21
REMARK    9  A    between atoms: C_19  and  C_20
REMARK   10  A    between atoms: C_19  and  C_23
REMARK   11  A    between atoms: C_20  and  C_24
REMARK   12  A    between atoms: C_20  and  C_25
REMARK                            x       y       z     vdW  Elec       q    Type
REMARK                         _______ _______ _______ _____ _____    ______ ____
ROOT
ATOM      4  O   UNL     1      15.873  -6.049  -3.276  0.00  0.00    -0.268 OA
ATOM      8  N   UNL     1      16.976  -8.031  -3.693  0.00  0.00    -0.283 N 
ATOM     13  C   UNL     1      18.428  -9.373  -2.382  0.00  0.00    +0.105 C 
ATOM     14  C   UNL     1      17.820  -7.975  -2.503  0.00  0.00    +0.182 C 
ATOM     15  C   UNL     1      18.464  -9.868  -3.830  0.00  0.00    +0.043 C 
ATOM     16  C   UNL     1      17.213  -9.261  -4.450  0.00  0.00    +0.111 C 
ATOM     18  C   UNL     1      16.009  -7.060  -3.966  0.00  0.00    +0.264 C 
ENDROOT
BRANCH  13   9
ATOM      5  O   UNL     1      18.868 -10.047   0.367  0.00  0.00    -0.252 OA
ATOM      9  N   UNL     1      17.606 -10.231  -1.562  0.00  0.00    -0.294 N 
ATOM     12  N   UNL     1      16.927 -11.366   0.315  0.00  0.00    -0.267 N 
ATOM     22  C   UNL     1      17.893 -10.509  -0.221  0.00  0.00    +0.304 C 
ATOM     37  H   UNL     1      16.745 -10.598  -1.955  0.00  0.00    +0.151 HD
ATOM     39  H   UNL     1      16.179 -11.661  -0.309  0.00  0.00    +0.156 HD
BRANCH  12  30
ATOM      1  F   UNL     1      18.300 -13.676   1.050  0.00  0.00    -0.203 F 
ATOM      2  F   UNL     1      16.648 -13.375   5.473  0.00  0.00    -0.205 F 
ATOM     30  C   UNL     1      16.857 -11.881   1.630  0.00  0.00    +0.070 A 
ATOM     31  C   UNL     1      17.556 -13.040   1.967  0.00  0.00    +0.147 A 
ATOM     32  C   UNL     1      16.085 -11.227   2.591  0.00  0.00    +0.029 A 
ATOM     34  C   UNL     1      17.486 -13.545   3.265  0.00  0.00    +0.078 A 
ATOM     35  C   UNL     1      16.014 -11.733   3.889  0.00  0.00    +0.040 A 
ATOM     36  C   UNL     1      16.715 -12.891   4.226  0.00  0.00    +0.126 A 
ENDBRANCH  12  30
ENDBRANCH  13   9
BRANCH  18  21
ATOM     11  N   UNL     1      15.484  -6.873  -6.407  0.00  0.00    -0.346 N 
ATOM     21  C   UNL     1      15.173  -7.286  -5.138  0.00  0.00    +0.104 A 
ATOM     26  C   UNL     1      13.958  -7.933  -5.191  0.00  0.00    +0.032 A 
ATOM     27  C   UNL     1      14.486  -7.245  -7.269  0.00  0.00    +0.086 A 
ATOM     28  C   UNL     1      13.522  -7.906  -6.539  0.00  0.00    +0.020 A 
ATOM     29  C   UNL     1      16.677  -6.153  -6.795  0.00  0.00    +0.149 C 
ENDBRANCH  18  21
BRANCH  14  17
ATOM      3  O   UNL     1      19.799  -7.151  -3.556  0.00  0.00    -0.274 OA
ATOM     10  N   UNL     1      18.688  -5.790  -2.029  0.00  0.00    -0.301 N 
ATOM     17  C   UNL     1      18.877  -6.944  -2.772  0.00  0.00    +0.236 C 
ATOM     38  H   UNL     1      17.854  -5.713  -1.454  0.00  0.00    +0.150 HD
BRANCH  10  19
ATOM     19  C   UNL     1      19.578  -4.657  -2.088  0.00  0.00    +0.184 C 
BRANCH  19  20
ATOM     20  C   UNL     1      20.411  -4.492  -0.797  0.00  0.00    +0.014 C 
ATOM     24  C   UNL     1      19.617  -4.941   0.435  0.00  0.00    +0.009 C 
ATOM     25  C   UNL     1      21.756  -5.223  -0.847  0.00  0.00    +0.009 C 
ENDBRANCH  19  20
BRANCH  19  23
ATOM      7  O   UNL     1      19.051  -2.307  -1.866  0.00  0.00    -0.249 OA
ATOM     23  C   UNL     1      18.832  -3.373  -2.433  0.00  0.00    +0.328 C 
BRANCH  23   6
ATOM      6  O   UNL     1      17.915  -3.560  -3.423  0.00  0.00    -0.467 OA
ATOM     33  C   UNL     1      17.308  -2.371  -3.942  0.00  0.00    +0.280 C 
ENDBRANCH  23   6
ENDBRANCH  19  23
ENDBRANCH  10  19
ENDBRANCH  14  17
TORSDOF 8
ENDMDL
MODEL 7
REMARK VINA RESULT:      -6.2     34.709     39.441
REMARK  Name = 7049571
REMARK  12 active torsions:
REMARK  status: ('A' for Active; 'I' for Inactive)
REMARK    1  A    between atoms: O_6  and  C_23
REMARK    2  A    between atoms: O_6  and  C_33
REMARK    3  A    between atoms: N_9  and  C_13
REMARK    4  A    between atoms: N_10  and  C_19
REMARK    5  A    between atoms: N_11  and  C_29
REMARK    6  A    between atoms: N_12  and  C_30
REMARK    7  A    between atoms: C_14  and  C_17
REMARK    8  A    between atoms: C_18  and  C_21
REMARK    9  A    between atoms: C_19  and  C_20
REMARK   10  A    between atoms: C_19  and  C_23
REMARK   11  A    between atoms: C_20  and  C_24
REMARK   12  A    between atoms: C_20  and  C_25
REMARK                            x       y       z     vdW  Elec       q    Type
REMARK                         _______ _______ _______ _____ _____    ______ ____
ROOT
ATOM      4  O   UNL     1      -9.926   9.798  33.420  0.00  0.00    -0.268 OA
ATOM      8  N   UNL     1     -12.032   8.998  33.919  0.00  0.00    -0.283 N 
ATOM     13  C   UNL     1     -13.623   7.760  32.668  0.00  0.00    +0.105 C 
ATOM     14  C   UNL     1     -12.371   8.630  32.547  0.00  0.00    +0.182 C 
ATOM     15  C   UNL     1     -14.286   8.274  33.949  0.00  0.00    +0.043 C 
ATOM     16  C   UNL     1     -13.110   8.641  34.843  0.00  0.00    +0.111 C 
ATOM     18  C   UNL     1     -10.783   9.523  34.261  0.00  0.00    +0.264 C 
ENDROOT
BRANCH  13   9
ATOM      5  O   UNL     1     -14.996   5.550  31.472  0.00  0.00    -0.252 OA
ATOM      9  N   UNL     1     -13.279   6.364  32.788  0.00  0.00    -0.294 N 
ATOM     12  N   UNL     1     -13.441   4.096  32.461  0.00  0.00    -0.267 N 
ATOM     22  C   UNL     1     -14.006   5.341  32.168  0.00  0.00    +0.304 C 
ATOM     37  H   UNL     1     -12.433   6.113  33.292  0.00  0.00    +0.151 HD
ATOM     39  H   UNL     1     -12.618   4.096  33.059  0.00  0.00    +0.156 HD
BRANCH  12  30
ATOM      1  F   UNL     1     -14.610   2.281  34.222  0.00  0.00    -0.203 F 
ATOM      2  F   UNL     1     -15.147  -0.893  30.756  0.00  0.00    -0.205 F 
ATOM     30  C   UNL     1     -13.877   2.822  32.029  0.00  0.00    +0.070 A 
ATOM     31  C   UNL     1     -14.458   1.936  32.936  0.00  0.00    +0.147 A 
ATOM     32  C   UNL     1     -13.723   2.453  30.693  0.00  0.00    +0.029 A 
ATOM     34  C   UNL     1     -14.888   0.680  32.505  0.00  0.00    +0.078 A 
ATOM     35  C   UNL     1     -14.152   1.197  30.263  0.00  0.00    +0.040 A 
ATOM     36  C   UNL     1     -14.734   0.311  31.169  0.00  0.00    +0.126 A 
ENDBRANCH  12  30
ENDBRANCH  13   9
BRANCH  18  21
ATOM     11  N   UNL     1     -10.856  10.922  36.337  0.00  0.00    -0.346 N 
ATOM     21  C   UNL     1     -10.544   9.761  35.679  0.00  0.00    +0.104 A 
ATOM     26  C   UNL     1      -9.981   8.898  36.592  0.00  0.00    +0.032 A 
ATOM     27  C   UNL     1     -10.500  10.813  37.655  0.00  0.00    +0.086 A 
ATOM     28  C   UNL     1      -9.952   9.563  37.843  0.00  0.00    +0.020 A 
ATOM     29  C   UNL     1     -11.467  12.093  35.746  0.00  0.00    +0.149 C 
ENDBRANCH  18  21
BRANCH  14  17
ATOM      3  O   UNL     1     -12.850  10.966  32.412  0.00  0.00    -0.274 OA
ATOM     10  N   UNL     1     -12.718   9.729  30.444  0.00  0.00    -0.301 N 
ATOM     17  C   UNL     1     -12.665   9.907  31.817  0.00  0.00    +0.236 C 
ATOM     38  H   UNL     1     -12.491   8.815  30.064  0.00  0.00    +0.150 HD
BRANCH  10  19
ATOM     19  C   UNL     1     -13.007  10.796  29.518  0.00  0.00    +0.184 C 
BRANCH  19  20
ATOM     20  C   UNL     1     -14.267  10.517  28.669  0.00  0.00    +0.014 C 
ATOM     24  C   UNL     1     -15.413   9.984  29.537  0.00  0.00    +0.009 C 
ATOM     25  C   UNL     1     -14.740  11.736  27.870  0.00  0.00    +0.009 C 
ENDBRANCH  19  20
BRANCH  19  23
ATOM      7  O   UNL     1     -11.440  12.264  28.405  0.00  0.00    -0.249 OA
ATOM     23  C   UNL     1     -11.805  11.116  28.636  0.00  0.00    +0.328 C 
BRANCH  23   6
ATOM      6  O   UNL     1     -11.208   9.992  28.150  0.00  0.00    -0.467 OA
ATOM     33  C   UNL     1     -10.476  10.153  26.930  0.00  0.00    +0.280 C 
ENDBRANCH  23   6
ENDBRANCH  19  23
ENDBRANCH  10  19
ENDBRANCH  14  17
TORSDOF 8
ENDMDL
MODEL 8
REMARK VINA RESULT:      -6.2     25.285     27.109
REMARK  Name = 7049571
REMARK  12 active torsions:
REMARK  status: ('A' for Active; 'I' for Inactive)
REMARK    1  A    between atoms: O_6  and  C_23
REMARK    2  A    between atoms: O_6  and  C_33
REMARK    3  A    between atoms: N_9  and  C_13
REMARK    4  A    between atoms: N_10  and  C_19
REMARK    5  A    between atoms: N_11  and  C_29
REMARK    6  A    between atoms: N_12  and  C_30
REMARK    7  A    between atoms: C_14  and  C_17
REMARK    8  A    between atoms: C_18  and  C_21
REMARK    9  A    between atoms: C_19  and  C_20
REMARK   10  A    between atoms: C_19  and  C_23
REMARK   11  A    between atoms: C_20  and  C_24
REMARK   12  A    between atoms: C_20  and  C_25
REMARK                            x       y       z     vdW  Elec       q    Type
REMARK                         _______ _______ _______ _____ _____    ______ ____
ROOT
ATOM      4  O   UNL     1      -7.338 -11.952   8.302  0.00  0.00    -0.268 OA
ATOM      8  N   UNL     1      -5.871 -10.308   8.983  0.00  0.00    -0.283 N 
ATOM     13  C   UNL     1      -5.677  -9.052  10.987  0.00  0.00    +0.105 C 
ATOM     14  C   UNL     1      -6.631  -9.925  10.170  0.00  0.00    +0.182 C 
ATOM     15  C   UNL     1      -4.765  -8.436   9.923  0.00  0.00    +0.043 C 
ATOM     16  C   UNL     1      -4.630  -9.539   8.881  0.00  0.00    +0.111 C 
ATOM     18  C   UNL     1      -6.273 -11.352   8.147  0.00  0.00    +0.264 C 
ENDROOT
BRANCH  13   9
ATOM      5  O   UNL     1      -6.406  -9.673  13.686  0.00  0.00    -0.252 OA
ATOM      9  N   UNL     1      -4.918  -9.843  11.925  0.00  0.00    -0.294 N 
ATOM     12  N   UNL     1      -4.411 -10.891  13.904  0.00  0.00    -0.267 N 
ATOM     22  C   UNL     1      -5.348 -10.101  13.231  0.00  0.00    +0.304 C 
ATOM     37  H   UNL     1      -4.064 -10.289  11.604  0.00  0.00    +0.151 HD
ATOM     39  H   UNL     1      -3.580 -11.161  13.382  0.00  0.00    +0.156 HD
BRANCH  12  30
ATOM      1  F   UNL     1      -5.882 -13.161  14.575  0.00  0.00    -0.203 F 
ATOM      2  F   UNL     1      -4.639 -12.749  19.121  0.00  0.00    -0.205 F 
ATOM     30  C   UNL     1      -4.472 -11.367  15.235  0.00  0.00    +0.070 A 
ATOM     31  C   UNL     1      -5.217 -12.507  15.538  0.00  0.00    +0.147 A 
ATOM     32  C   UNL     1      -3.785 -10.693  16.244  0.00  0.00    +0.029 A 
ATOM     34  C   UNL     1      -5.274 -12.974  16.851  0.00  0.00    +0.078 A 
ATOM     35  C   UNL     1      -3.842 -11.160  17.558  0.00  0.00    +0.040 A 
ATOM     36  C   UNL     1      -4.586 -12.300  17.861  0.00  0.00    +0.126 A 
ENDBRANCH  12  30
ENDBRANCH  13   9
BRANCH  18  21
ATOM     11  N   UNL     1      -4.392 -12.642   7.113  0.00  0.00    -0.346 N 
ATOM     21  C   UNL     1      -5.375 -11.689   7.050  0.00  0.00    +0.104 A 
ATOM     26  C   UNL     1      -5.345 -11.136   5.790  0.00  0.00    +0.032 A 
ATOM     27  C   UNL     1      -3.735 -12.704   5.913  0.00  0.00    +0.086 A 
ATOM     28  C   UNL     1      -4.306 -11.777   5.070  0.00  0.00    +0.020 A 
ATOM     29  C   UNL     1      -4.082 -13.465   8.263  0.00  0.00    +0.149 C 
ENDBRANCH  18  21
BRANCH  14  17
ATOM      3  O   UNL     1      -8.749  -8.854  10.434  0.00  0.00    -0.274 OA
ATOM     10  N   UNL     1      -7.717  -8.806   8.348  0.00  0.00    -0.301 N 
ATOM     17  C   UNL     1      -7.814  -9.137   9.691  0.00  0.00    +0.236 C 
ATOM     38  H   UNL     1      -6.867  -9.047   7.849  0.00  0.00    +0.150 HD
BRANCH  10  19
ATOM     19  C   UNL     1      -8.735  -8.070   7.640  0.00  0.00    +0.184 C 
BRANCH  19  20
ATOM     20  C   UNL     1      -8.756  -8.393   6.130  0.00  0.00    +0.014 C 
ATOM     24  C   UNL     1      -7.381  -8.161   5.494  0.00  0.00    +0.009 C 
ATOM     25  C   UNL     1      -9.242  -9.813   5.821  0.00  0.00    +0.009 C 
ENDBRANCH  19  20
BRANCH  19  23
ATOM      7  O   UNL     1      -7.544  -6.021   8.124  0.00  0.00    -0.249 OA
ATOM     23  C   UNL     1      -8.615  -6.569   7.884  0.00  0.00    +0.328 C 
BRANCH  23   6
ATOM      6  O   UNL     1      -9.819  -5.936   7.804  0.00  0.00    -0.467 OA
ATOM     33  C   UNL     1      -9.981  -4.798   8.659  0.00  0.00    +0.280 C 
ENDBRANCH  23   6
ENDBRANCH  19  23
ENDBRANCH  10  19
ENDBRANCH  14  17
TORSDOF 8
ENDMDL
MODEL 9
REMARK VINA RESULT:      -6.1     25.474     30.048
REMARK  Name = 7049571
REMARK  12 active torsions:
REMARK  status: ('A' for Active; 'I' for Inactive)
REMARK    1  A    between atoms: O_6  and  C_23
REMARK    2  A    between atoms: O_6  and  C_33
REMARK    3  A    between atoms: N_9  and  C_13
REMARK    4  A    between atoms: N_10  and  C_19
REMARK    5  A    between atoms: N_11  and  C_29
REMARK    6  A    between atoms: N_12  and  C_30
REMARK    7  A    between atoms: C_14  and  C_17
REMARK    8  A    between atoms: C_18  and  C_21
REMARK    9  A    between atoms: C_19  and  C_20
REMARK   10  A    between atoms: C_19  and  C_23
REMARK   11  A    between atoms: C_20  and  C_24
REMARK   12  A    between atoms: C_20  and  C_25
REMARK                            x       y       z     vdW  Elec       q    Type
REMARK                         _______ _______ _______ _____ _____    ______ ____
ROOT
ATOM      4  O   UNL     1      -5.881 -13.292  14.040  0.00  0.00    -0.268 OA
ATOM      8  N   UNL     1      -5.136 -12.487  16.069  0.00  0.00    -0.283 N 
ATOM     13  C   UNL     1      -5.118 -10.318  17.032  0.00  0.00    +0.105 C 
ATOM     14  C   UNL     1      -5.251 -11.076  15.710  0.00  0.00    +0.182 C 
ATOM     15  C   UNL     1      -4.254 -11.250  17.886  0.00  0.00    +0.043 C 
ATOM     16  C   UNL     1      -4.691 -12.644  17.455  0.00  0.00    +0.111 C 
ATOM     18  C   UNL     1      -5.516 -13.509  15.197  0.00  0.00    +0.264 C 
ENDROOT
BRANCH  13   9
ATOM      5  O   UNL     1      -7.480  -9.341  15.743  0.00  0.00    -0.252 OA
ATOM      9  N   UNL     1      -6.407 -10.103  17.643  0.00  0.00    -0.294 N 
ATOM     12  N   UNL     1      -8.622  -9.514  17.786  0.00  0.00    -0.267 N 
ATOM     22  C   UNL     1      -7.516  -9.620  16.939  0.00  0.00    +0.304 C 
ATOM     37  H   UNL     1      -6.536 -10.374  18.613  0.00  0.00    +0.151 HD
ATOM     39  H   UNL     1      -8.483  -9.786  18.757  0.00  0.00    +0.156 HD
BRANCH  12  30
ATOM      1  F   UNL     1     -10.832 -11.198  17.992  0.00  0.00    -0.203 F 
ATOM      2  F   UNL     1     -13.723  -7.756  16.519  0.00  0.00    -0.205 F 
ATOM     30  C   UNL     1      -9.925  -9.068  17.463  0.00  0.00    +0.070 A 
ATOM     31  C   UNL     1     -11.011  -9.936  17.576  0.00  0.00    +0.147 A 
ATOM     32  C   UNL     1     -10.121  -7.757  17.029  0.00  0.00    +0.029 A 
ATOM     34  C   UNL     1     -12.294  -9.493  17.258  0.00  0.00    +0.078 A 
ATOM     35  C   UNL     1     -11.405  -7.314  16.709  0.00  0.00    +0.040 A 
ATOM     36  C   UNL     1     -12.491  -8.182  16.824  0.00  0.00    +0.126 A 
ENDBRANCH  12  30
ENDBRANCH  13   9
BRANCH  18  21
ATOM     11  N   UNL     1      -6.459 -15.521  16.353  0.00  0.00    -0.346 N 
ATOM     21  C   UNL     1      -5.436 -14.869  15.715  0.00  0.00    +0.104 A 
ATOM     26  C   UNL     1      -4.358 -15.725  15.664  0.00  0.00    +0.032 A 
ATOM     27  C   UNL     1      -6.050 -16.779  16.711  0.00  0.00    +0.086 A 
ATOM     28  C   UNL     1      -4.746 -16.933  16.294  0.00  0.00    +0.020 A 
ATOM     29  C   UNL     1      -7.774 -14.979  16.618  0.00  0.00    +0.149 C 
ENDBRANCH  18  21
BRANCH  14  17
ATOM      3  O   UNL     1      -2.958 -10.634  15.207  0.00  0.00    -0.274 OA
ATOM     10  N   UNL     1      -4.510 -10.642  13.471  0.00  0.00    -0.301 N 
ATOM     17  C   UNL     1      -4.106 -10.769  14.791  0.00  0.00    +0.236 C 
ATOM     38  H   UNL     1      -5.480 -10.832  13.239  0.00  0.00    +0.150 HD
BRANCH  10  19
ATOM     19  C   UNL     1      -3.604 -10.327  12.394  0.00  0.00    +0.184 C 
BRANCH  19  20
ATOM     20  C   UNL     1      -4.343  -9.878  11.113  0.00  0.00    +0.014 C 
ATOM     24  C   UNL     1      -5.505  -8.935  11.445  0.00  0.00    +0.009 C 
ATOM     25  C   UNL     1      -3.419  -9.226  10.079  0.00  0.00    +0.009 C 
ENDBRANCH  19  20
BRANCH  19  23
ATOM      7  O   UNL     1      -1.443 -11.409  12.319  0.00  0.00    -0.249 OA
ATOM     23  C   UNL     1      -2.649 -11.480  12.107  0.00  0.00    +0.328 C 
BRANCH  23   6
ATOM      6  O   UNL     1      -3.291 -12.567  11.595  0.00  0.00    -0.467 OA
ATOM     33  C   UNL     1      -2.905 -13.833  12.142  0.00  0.00    +0.280 C 
ENDBRANCH  23   6
ENDBRANCH  19  23
ENDBRANCH  10  19
ENDBRANCH  14  17
TORSDOF 8
ENDMDL
MODEL 10
REMARK VINA RESULT:      -6.0     28.194     31.562
REMARK  Name = 7049571
REMARK  12 active torsions:
REMARK  status: ('A' for Active; 'I' for Inactive)
REMARK    1  A    between atoms: O_6  and  C_23
REMARK    2  A    between atoms: O_6  and  C_33
REMARK    3  A    between atoms: N_9  and  C_13
REMARK    4  A    between atoms: N_10  and  C_19
REMARK    5  A    between atoms: N_11  and  C_29
REMARK    6  A    between atoms: N_12  and  C_30
REMARK    7  A    between atoms: C_14  and  C_17
REMARK    8  A    between atoms: C_18  and  C_21
REMARK    9  A    between atoms: C_19  and  C_20
REMARK   10  A    between atoms: C_19  and  C_23
REMARK   11  A    between atoms: C_20  and  C_24
REMARK   12  A    between atoms: C_20  and  C_25
REMARK                            x       y       z     vdW  Elec       q    Type
REMARK                         _______ _______ _______ _____ _____    ______ ____
ROOT
ATOM      4  O   UNL     1      -9.430 -12.502  16.466  0.00  0.00    -0.268 OA
ATOM      8  N   UNL     1     -10.074 -10.397  17.159  0.00  0.00    -0.283 N 
ATOM     13  C   UNL     1      -9.575  -8.218  16.365  0.00  0.00    +0.105 C 
ATOM     14  C   UNL     1      -9.116  -9.676  16.325  0.00  0.00    +0.182 C 
ATOM     15  C   UNL     1     -10.274  -8.106  17.722  0.00  0.00    +0.043 C 
ATOM     16  C   UNL     1     -10.925  -9.470  17.907  0.00  0.00    +0.111 C 
ATOM     18  C   UNL     1     -10.190 -11.789  17.125  0.00  0.00    +0.264 C 
ENDROOT
BRANCH  13   9
ATOM      5  O   UNL     1     -10.994  -5.768  15.936  0.00  0.00    -0.252 OA
ATOM      9  N   UNL     1     -10.489  -7.928  15.286  0.00  0.00    -0.294 N 
ATOM     12  N   UNL     1     -11.962  -6.708  14.016  0.00  0.00    -0.267 N 
ATOM     22  C   UNL     1     -11.143  -6.699  15.149  0.00  0.00    +0.304 C 
ATOM     37  H   UNL     1     -10.614  -8.622  14.556  0.00  0.00    +0.151 HD
ATOM     39  H   UNL     1     -11.975  -7.565  13.467  0.00  0.00    +0.156 HD
BRANCH  12  30
ATOM      1  F   UNL     1     -14.693  -6.634  14.560  0.00  0.00    -0.203 F 
ATOM      2  F   UNL     1     -15.177  -2.614  12.113  0.00  0.00    -0.205 F 
ATOM     30  C   UNL     1     -12.785  -5.665  13.531  0.00  0.00    +0.070 A 
ATOM     31  C   UNL     1     -14.149  -5.657  13.821  0.00  0.00    +0.147 A 
ATOM     32  C   UNL     1     -12.229  -4.644  12.760  0.00  0.00    +0.029 A 
ATOM     34  C   UNL     1     -14.958  -4.626  13.342  0.00  0.00    +0.078 A 
ATOM     35  C   UNL     1     -13.038  -3.613  12.281  0.00  0.00    +0.040 A 
ATOM     36  C   UNL     1     -14.401  -3.604  12.572  0.00  0.00    +0.126 A 
ENDBRANCH  12  30
ENDBRANCH  13   9
BRANCH  18  21
ATOM     11  N   UNL     1     -11.127 -12.682  19.268  0.00  0.00    -0.346 N 
ATOM     21  C   UNL     1     -11.248 -12.374  17.939  0.00  0.00    +0.104 A 
ATOM     26  C   UNL     1     -12.522 -12.714  17.541  0.00  0.00    +0.032 A 
ATOM     27  C   UNL     1     -12.304 -13.215  19.725  0.00  0.00    +0.086 A 
ATOM     28  C   UNL     1     -13.190 -13.247  18.672  0.00  0.00    +0.020 A 
ATOM     29  C   UNL     1      -9.946 -12.484  20.080  0.00  0.00    +0.149 C 
ENDBRANCH  18  21
BRANCH  14  17
ATOM      3  O   UNL     1      -7.501  -9.317  18.047  0.00  0.00    -0.274 OA
ATOM     10  N   UNL     1      -6.912 -10.613  16.205  0.00  0.00    -0.301 N 
ATOM     17  C   UNL     1      -7.772  -9.841  16.970  0.00  0.00    +0.236 C 
ATOM     38  H   UNL     1      -7.268 -11.041  15.357  0.00  0.00    +0.150 HD
BRANCH  10  19
ATOM     19  C   UNL     1      -5.553 -10.902  16.593  0.00  0.00    +0.184 C 
BRANCH  19  20
ATOM     20  C   UNL     1      -4.523 -10.392  15.560  0.00  0.00    +0.014 C 
ATOM     24  C   UNL     1      -3.121 -10.931  15.865  0.00  0.00    +0.009 C 
ATOM     25  C   UNL     1      -4.905 -10.718  14.113  0.00  0.00    +0.009 C 
ENDBRANCH  19  20
BRANCH  19  23
ATOM      7  O   UNL     1      -5.711 -13.267  16.110  0.00  0.00    -0.249 OA
ATOM     23  C   UNL     1      -5.356 -12.386  16.886  0.00  0.00    +0.328 C 
BRANCH  23   6
ATOM      6  O   UNL     1      -4.753 -12.598  18.089  0.00  0.00    -0.467 OA
ATOM     33  C   UNL     1      -5.062 -11.648  19.116  0.00  0.00    +0.280 C 
ENDBRANCH  23   6
ENDBRANCH  19  23
ENDBRANCH  10  19
ENDBRANCH  14  17
TORSDOF 8
ENDMDL
