MODEL 1
REMARK VINA RESULT:      -7.5      0.000      0.000
REMARK  Name = 7165077
REMARK  5 active torsions:
REMARK  status: ('A' for Active; 'I' for Inactive)
REMARK    1  A    between atoms: O_7  and  C_29
REMARK    2  A    between atoms: O_7  and  C_31
REMARK    3  A    between atoms: N_10  and  C_18
REMARK    4  A    between atoms: C_17  and  C_19
REMARK    5  A    between atoms: C_28  and  C_30
REMARK                            x       y       z     vdW  Elec       q    Type
REMARK                         _______ _______ _______ _____ _____    ______ ____
ROOT
ATOM      4  O   UNL     1      -3.992  11.145  35.739  0.00  0.00    -0.273 OA
ATOM      5  O   UNL     1      -2.243  14.813  33.370  0.00  0.00    -0.252 OA
ATOM      6  O   UNL     1      -3.045  10.737  38.699  0.00  0.00    -0.270 OA
ATOM      8  N   UNL     1      -1.576  10.765  36.893  0.00  0.00    -0.284 N 
ATOM      9  N   UNL     1      -0.919  13.573  34.716  0.00  0.00    -0.293 N 
ATOM     10  N   UNL     1      -3.209  12.987  34.501  0.00  0.00    -0.193 N 
ATOM     11  C   UNL     1      -0.670  12.505  35.639  0.00  0.00    +0.105 C 
ATOM     12  C   UNL     1      -1.904  12.110  36.418  0.00  0.00    +0.183 C 
ATOM     13  C   UNL     1      -0.230  11.194  34.990  0.00  0.00    +0.043 C 
ATOM     14  C   UNL     1      -0.496  10.178  36.095  0.00  0.00    +0.111 C 
ATOM     15  C   UNL     1      -3.141  12.012  35.530  0.00  0.00    +0.250 C 
ATOM     16  C   UNL     1      -2.138  13.843  34.128  0.00  0.00    +0.313 C 
ATOM     17  C   UNL     1      -2.139  10.229  38.043  0.00  0.00    +0.247 C 
ATOM     37  H   UNL     1      -0.136  14.168  34.461  0.00  0.00    +0.151 HD
ENDROOT
BRANCH  10  18
ATOM     18  C   UNL     1      -4.454  13.106  33.770  0.00  0.00    +0.046 A 
ATOM     20  C   UNL     1      -4.601  12.449  32.555  0.00  0.00    +0.027 A 
ATOM     21  C   UNL     1      -5.484  13.876  34.293  0.00  0.00    +0.027 A 
ATOM     24  C   UNL     1      -5.800  12.565  31.852  0.00  0.00    +0.048 A 
ATOM     25  C   UNL     1      -6.682  13.992  33.590  0.00  0.00    +0.048 A 
ATOM     29  C   UNL     1      -6.841  13.336  32.369  0.00  0.00    +0.129 A 
BRANCH  29   7
ATOM      7  O   UNL     1      -8.011  13.447  31.682  0.00  0.00    -0.456 OA
BRANCH   7  31
ATOM     31  C   UNL     1      -8.943  12.434  31.833  0.00  0.00    +0.128 A 
ATOM     32  C   UNL     1     -10.033  12.386  30.983  0.00  0.00    +0.046 A 
ATOM     33  C   UNL     1      -8.758  11.493  32.831  0.00  0.00    +0.046 A 
ATOM     34  C   UNL     1     -10.970  11.366  31.136  0.00  0.00    +0.004 A 
ATOM     35  C   UNL     1      -9.696  10.472  32.984  0.00  0.00    +0.004 A 
ATOM     36  C   UNL     1     -10.802  10.408  32.136  0.00  0.00    +0.000 A 
ENDBRANCH   7  31
ENDBRANCH  29   7
ENDBRANCH  10  18
BRANCH  17  19
ATOM     19  C   UNL     1      -1.597   8.950  38.521  0.00  0.00    +0.037 A 
ATOM     22  C   UNL     1      -2.154   7.753  38.076  0.00  0.00    +0.013 A 
ATOM     23  C   UNL     1      -0.528   8.940  39.412  0.00  0.00    +0.013 A 
ATOM     26  C   UNL     1      -1.638   6.539  38.528  0.00  0.00    +0.013 A 
ATOM     27  C   UNL     1      -0.013   7.726  39.865  0.00  0.00    +0.013 A 
ATOM     28  C   UNL     1      -0.568   6.525  39.422  0.00  0.00    +0.055 A 
BRANCH  28  30
ATOM      1  F   UNL     1       0.392   5.256  41.209  0.00  0.00    -0.166 F 
ATOM      2  F   UNL     1       1.073   4.799  39.201  0.00  0.00    -0.166 F 
ATOM      3  F   UNL     1      -0.924   4.210  39.828  0.00  0.00    -0.166 F 
ATOM     30  C   UNL     1      -0.016   5.226  39.905  0.00  0.00    +0.417 C 
ENDBRANCH  28  30
ENDBRANCH  17  19
TORSDOF 5
ENDMDL
MODEL 2
REMARK VINA RESULT:      -7.4     33.423     36.245
REMARK  Name = 7165077
REMARK  5 active torsions:
REMARK  status: ('A' for Active; 'I' for Inactive)
REMARK    1  A    between atoms: O_7  and  C_29
REMARK    2  A    between atoms: O_7  and  C_31
REMARK    3  A    between atoms: N_10  and  C_18
REMARK    4  A    between atoms: C_17  and  C_19
REMARK    5  A    between atoms: C_28  and  C_30
REMARK                            x       y       z     vdW  Elec       q    Type
REMARK                         _______ _______ _______ _____ _____    ______ ____
ROOT
ATOM      4  O   UNL     1      11.884   9.473   4.557  0.00  0.00    -0.273 OA
ATOM      5  O   UNL     1      13.659   6.251   7.489  0.00  0.00    -0.252 OA
ATOM      6  O   UNL     1       9.171  10.826   5.350  0.00  0.00    -0.270 OA
ATOM      8  N   UNL     1       9.400   8.528   5.055  0.00  0.00    -0.284 N 
ATOM      9  N   UNL     1      11.444   6.313   7.048  0.00  0.00    -0.293 N 
ATOM     10  N   UNL     1      12.870   7.892   5.994  0.00  0.00    -0.193 N 
ATOM     11  C   UNL     1      10.277   6.856   6.418  0.00  0.00    +0.105 C 
ATOM     12  C   UNL     1      10.429   8.321   6.075  0.00  0.00    +0.183 C 
ATOM     13  C   UNL     1       9.923   6.217   5.076  0.00  0.00    +0.043 C 
ATOM     14  C   UNL     1       8.995   7.254   4.455  0.00  0.00    +0.111 C 
ATOM     15  C   UNL     1      11.786   8.630   5.451  0.00  0.00    +0.250 C 
ATOM     16  C   UNL     1      12.731   6.779   6.866  0.00  0.00    +0.313 C 
ATOM     17  C   UNL     1       8.816   9.768   4.836  0.00  0.00    +0.247 C 
ATOM     37  H   UNL     1      11.320   5.513   7.663  0.00  0.00    +0.151 HD
ENDROOT
BRANCH  10  18
ATOM     18  C   UNL     1      14.211   8.293   5.621  0.00  0.00    +0.046 A 
ATOM     20  C   UNL     1      14.893   7.579   4.645  0.00  0.00    +0.027 A 
ATOM     21  C   UNL     1      14.796   9.387   6.244  0.00  0.00    +0.027 A 
ATOM     24  C   UNL     1      16.184   7.966   4.287  0.00  0.00    +0.048 A 
ATOM     25  C   UNL     1      16.087   9.774   5.886  0.00  0.00    +0.048 A 
ATOM     29  C   UNL     1      16.782   9.063   4.907  0.00  0.00    +0.129 A 
BRANCH  29   7
ATOM      7  O   UNL     1      18.041   9.441   4.555  0.00  0.00    -0.456 OA
BRANCH   7  31
ATOM     31  C   UNL     1      19.098   8.702   5.061  0.00  0.00    +0.128 A 
ATOM     32  C   UNL     1      19.485   8.890   6.376  0.00  0.00    +0.046 A 
ATOM     33  C   UNL     1      19.739   7.793   4.238  0.00  0.00    +0.046 A 
ATOM     34  C   UNL     1      20.549   8.145   6.885  0.00  0.00    +0.004 A 
ATOM     35  C   UNL     1      20.803   7.048   4.747  0.00  0.00    +0.004 A 
ATOM     36  C   UNL     1      21.208   7.224   6.070  0.00  0.00    +0.000 A 
ENDBRANCH   7  31
ENDBRANCH  29   7
ENDBRANCH  10  18
BRANCH  17  19
ATOM     19  C   UNL     1       7.669   9.816   3.919  0.00  0.00    +0.037 A 
ATOM     22  C   UNL     1       6.421  10.212   4.392  0.00  0.00    +0.013 A 
ATOM     23  C   UNL     1       7.838   9.469   2.582  0.00  0.00    +0.013 A 
ATOM     26  C   UNL     1       5.333  10.259   3.521  0.00  0.00    +0.013 A 
ATOM     27  C   UNL     1       6.749   9.516   1.711  0.00  0.00    +0.013 A 
ATOM     28  C   UNL     1       5.496   9.911   2.180  0.00  0.00    +0.055 A 
BRANCH  28  30
ATOM      1  F   UNL     1       4.219   8.856   0.454  0.00  0.00    -0.166 F 
ATOM      2  F   UNL     1       4.370  11.019   0.385  0.00  0.00    -0.166 F 
ATOM      3  F   UNL     1       3.140  10.066   1.905  0.00  0.00    -0.166 F 
ATOM     30  C   UNL     1       4.333   9.962   1.249  0.00  0.00    +0.417 C 
ENDBRANCH  28  30
ENDBRANCH  17  19
TORSDOF 5
ENDMDL
MODEL 3
REMARK VINA RESULT:      -7.3     30.509     32.746
REMARK  Name = 7165077
REMARK  5 active torsions:
REMARK  status: ('A' for Active; 'I' for Inactive)
REMARK    1  A    between atoms: O_7  and  C_29
REMARK    2  A    between atoms: O_7  and  C_31
REMARK    3  A    between atoms: N_10  and  C_18
REMARK    4  A    between atoms: C_17  and  C_19
REMARK    5  A    between atoms: C_28  and  C_30
REMARK                            x       y       z     vdW  Elec       q    Type
REMARK                         _______ _______ _______ _____ _____    ______ ____
ROOT
ATOM      4  O   UNL     1      -5.817 -11.170  13.002  0.00  0.00    -0.273 OA
ATOM      5  O   UNL     1      -1.576 -12.106  14.811  0.00  0.00    -0.252 OA
ATOM      6  O   UNL     1      -6.504 -12.386  10.197  0.00  0.00    -0.270 OA
ATOM      8  N   UNL     1      -4.700 -10.957  10.549  0.00  0.00    -0.284 N 
ATOM      9  N   UNL     1      -1.813 -11.629  12.615  0.00  0.00    -0.293 N 
ATOM     10  N   UNL     1      -3.739 -11.635  14.004  0.00  0.00    -0.193 N 
ATOM     11  C   UNL     1      -2.581 -11.304  11.450  0.00  0.00    +0.105 C 
ATOM     12  C   UNL     1      -4.013 -11.781  11.544  0.00  0.00    +0.183 C 
ATOM     13  C   UNL     1      -2.727  -9.807  11.182  0.00  0.00    +0.043 C 
ATOM     14  C   UNL     1      -3.917  -9.760  10.230  0.00  0.00    +0.111 C 
ATOM     15  C   UNL     1      -4.629 -11.490  12.909  0.00  0.00    +0.250 C 
ATOM     16  C   UNL     1      -2.332 -11.793  13.884  0.00  0.00    +0.313 C 
ATOM     17  C   UNL     1      -5.861 -11.378   9.914  0.00  0.00    +0.247 C 
ATOM     37  H   UNL     1      -0.808 -11.731  12.505  0.00  0.00    +0.151 HD
ENDROOT
BRANCH  10  18
ATOM     18  C   UNL     1      -4.302 -11.605  15.338  0.00  0.00    +0.046 A 
ATOM     20  C   UNL     1      -4.836 -12.766  15.883  0.00  0.00    +0.027 A 
ATOM     21  C   UNL     1      -4.301 -10.416  16.055  0.00  0.00    +0.027 A 
ATOM     24  C   UNL     1      -5.378 -12.736  17.168  0.00  0.00    +0.048 A 
ATOM     25  C   UNL     1      -4.843 -10.386  17.339  0.00  0.00    +0.048 A 
ATOM     29  C   UNL     1      -5.382 -11.546  17.896  0.00  0.00    +0.129 A 
BRANCH  29   7
ATOM      7  O   UNL     1      -5.910 -11.518  19.150  0.00  0.00    -0.456 OA
BRANCH   7  31
ATOM     31  C   UNL     1      -7.286 -11.621  19.270  0.00  0.00    +0.128 A 
ATOM     32  C   UNL     1      -8.085 -10.604  18.779  0.00  0.00    +0.046 A 
ATOM     33  C   UNL     1      -7.827 -12.740  19.878  0.00  0.00    +0.046 A 
ATOM     34  C   UNL     1      -9.470 -10.708  18.899  0.00  0.00    +0.004 A 
ATOM     35  C   UNL     1      -9.213 -12.845  19.999  0.00  0.00    +0.004 A 
ATOM     36  C   UNL     1     -10.034 -11.828  19.509  0.00  0.00    +0.000 A 
ENDBRANCH   7  31
ENDBRANCH  29   7
ENDBRANCH  10  18
BRANCH  17  19
ATOM     19  C   UNL     1      -6.355 -10.552   8.805  0.00  0.00    +0.037 A 
ATOM     22  C   UNL     1      -5.844 -10.738   7.523  0.00  0.00    +0.013 A 
ATOM     23  C   UNL     1      -7.335  -9.592   9.040  0.00  0.00    +0.013 A 
ATOM     26  C   UNL     1      -6.316  -9.955   6.469  0.00  0.00    +0.013 A 
ATOM     27  C   UNL     1      -7.805  -8.809   7.986  0.00  0.00    +0.013 A 
ATOM     28  C   UNL     1      -7.296  -8.990   6.700  0.00  0.00    +0.055 A 
BRANCH  28  30
ATOM      1  F   UNL     1      -8.273  -6.933   5.967  0.00  0.00    -0.166 F 
ATOM      2  F   UNL     1      -8.829  -8.728   4.883  0.00  0.00    -0.166 F 
ATOM      3  F   UNL     1      -6.836  -7.891   4.643  0.00  0.00    -0.166 F 
ATOM     30  C   UNL     1      -7.800  -8.154   5.574  0.00  0.00    +0.417 C 
ENDBRANCH  28  30
ENDBRANCH  17  19
TORSDOF 5
ENDMDL
MODEL 4
REMARK VINA RESULT:      -7.3     36.016     37.748
REMARK  Name = 7165077
REMARK  5 active torsions:
REMARK  status: ('A' for Active; 'I' for Inactive)
REMARK    1  A    between atoms: O_7  and  C_29
REMARK    2  A    between atoms: O_7  and  C_31
REMARK    3  A    between atoms: N_10  and  C_18
REMARK    4  A    between atoms: C_17  and  C_19
REMARK    5  A    between atoms: C_28  and  C_30
REMARK                            x       y       z     vdW  Elec       q    Type
REMARK                         _______ _______ _______ _____ _____    ______ ____
ROOT
ATOM      4  O   UNL     1       9.819   6.365   0.516  0.00  0.00    -0.273 OA
ATOM      5  O   UNL     1      12.840   4.684  -2.674  0.00  0.00    -0.252 OA
ATOM      6  O   UNL     1      11.008   7.872   2.994  0.00  0.00    -0.270 OA
ATOM      8  N   UNL     1      11.538   5.663   2.482  0.00  0.00    -0.284 N 
ATOM      9  N   UNL     1      13.283   4.513  -0.465  0.00  0.00    -0.293 N 
ATOM     10  N   UNL     1      11.257   5.542  -1.155  0.00  0.00    -0.193 N 
ATOM     11  C   UNL     1      12.988   4.724   0.921  0.00  0.00    +0.105 C 
ATOM     12  C   UNL     1      12.088   5.918   1.151  0.00  0.00    +0.183 C 
ATOM     13  C   UNL     1      12.228   3.579   1.590  0.00  0.00    +0.043 C 
ATOM     14  C   UNL     1      11.664   4.247   2.839  0.00  0.00    +0.111 C 
ATOM     15  C   UNL     1      10.930   5.967   0.159  0.00  0.00    +0.250 C 
ATOM     16  C   UNL     1      12.466   4.888  -1.514  0.00  0.00    +0.313 C 
ATOM     17  C   UNL     1      11.107   6.689   3.312  0.00  0.00    +0.247 C 
ATOM     37  H   UNL     1      14.151   4.038  -0.697  0.00  0.00    +0.151 HD
ENDROOT
BRANCH  10  18
ATOM     18  C   UNL     1      10.282   5.779  -2.200  0.00  0.00    +0.046 A 
ATOM     20  C   UNL     1      10.165   7.047  -2.753  0.00  0.00    +0.027 A 
ATOM     21  C   UNL     1       9.479   4.733  -2.636  0.00  0.00    +0.027 A 
ATOM     24  C   UNL     1       9.226   7.274  -3.760  0.00  0.00    +0.048 A 
ATOM     25  C   UNL     1       8.541   4.960  -3.642  0.00  0.00    +0.048 A 
ATOM     29  C   UNL     1       8.414   6.231  -4.205  0.00  0.00    +0.129 A 
BRANCH  29   7
ATOM      7  O   UNL     1       7.500   6.453  -5.188  0.00  0.00    -0.456 OA
BRANCH   7  31
ATOM     31  C   UNL     1       6.166   6.234  -4.886  0.00  0.00    +0.128 A 
ATOM     32  C   UNL     1       5.630   6.801  -3.744  0.00  0.00    +0.046 A 
ATOM     33  C   UNL     1       5.403   5.453  -5.736  0.00  0.00    +0.046 A 
ATOM     34  C   UNL     1       4.287   6.581  -3.441  0.00  0.00    +0.004 A 
ATOM     35  C   UNL     1       4.059   5.233  -5.433  0.00  0.00    +0.004 A 
ATOM     36  C   UNL     1       3.501   5.797  -4.285  0.00  0.00    +0.000 A 
ENDBRANCH   7  31
ENDBRANCH  29   7
ENDBRANCH  10  18
BRANCH  17  19
ATOM     19  C   UNL     1      10.748   6.330   4.691  0.00  0.00    +0.037 A 
ATOM     22  C   UNL     1      11.661   6.542   5.721  0.00  0.00    +0.013 A 
ATOM     23  C   UNL     1       9.497   5.782   4.960  0.00  0.00    +0.013 A 
ATOM     26  C   UNL     1      11.319   6.203   7.031  0.00  0.00    +0.013 A 
ATOM     27  C   UNL     1       9.156   5.442   6.269  0.00  0.00    +0.013 A 
ATOM     28  C   UNL     1      10.067   5.653   7.305  0.00  0.00    +0.055 A 
BRANCH  28  30
ATOM      1  F   UNL     1       8.668   6.028   9.208  0.00  0.00    -0.166 F 
ATOM      2  F   UNL     1      10.724   5.453   9.596  0.00  0.00    -0.166 F 
ATOM      3  F   UNL     1       9.315   3.987   8.824  0.00  0.00    -0.166 F 
ATOM     30  C   UNL     1       9.702   5.291   8.704  0.00  0.00    +0.417 C 
ENDBRANCH  28  30
ENDBRANCH  17  19
TORSDOF 5
ENDMDL
MODEL 5
REMARK VINA RESULT:      -7.3     30.904     33.880
REMARK  Name = 7165077
REMARK  5 active torsions:
REMARK  status: ('A' for Active; 'I' for Inactive)
REMARK    1  A    between atoms: O_7  and  C_29
REMARK    2  A    between atoms: O_7  and  C_31
REMARK    3  A    between atoms: N_10  and  C_18
REMARK    4  A    between atoms: C_17  and  C_19
REMARK    5  A    between atoms: C_28  and  C_30
REMARK                            x       y       z     vdW  Elec       q    Type
REMARK                         _______ _______ _______ _____ _____    ______ ____
ROOT
ATOM      4  O   UNL     1      -7.449  -8.599   9.791  0.00  0.00    -0.273 OA
ATOM      5  O   UNL     1      -4.949 -10.880   6.523  0.00  0.00    -0.252 OA
ATOM      6  O   UNL     1     -10.572  -8.830   9.658  0.00  0.00    -0.270 OA
ATOM      8  N   UNL     1      -9.291  -7.972   7.913  0.00  0.00    -0.284 N 
ATOM      9  N   UNL     1      -6.845  -9.785   5.967  0.00  0.00    -0.293 N 
ATOM     10  N   UNL     1      -6.121  -9.754   8.228  0.00  0.00    -0.193 N 
ATOM     11  C   UNL     1      -8.005  -8.998   6.265  0.00  0.00    +0.105 C 
ATOM     12  C   UNL     1      -8.470  -9.163   7.695  0.00  0.00    +0.183 C 
ATOM     13  C   UNL     1      -7.801  -7.490   6.135  0.00  0.00    +0.043 C 
ATOM     14  C   UNL     1      -8.975  -6.932   6.931  0.00  0.00    +0.111 C 
ATOM     15  C   UNL     1      -7.310  -9.129   8.686  0.00  0.00    +0.250 C 
ATOM     16  C   UNL     1      -5.893 -10.172   6.890  0.00  0.00    +0.313 C 
ATOM     17  C   UNL     1     -10.322  -7.946   8.842  0.00  0.00    +0.247 C 
ATOM     37  H   UNL     1      -6.701 -10.067   5.002  0.00  0.00    +0.151 HD
ENDROOT
BRANCH  10  18
ATOM     18  C   UNL     1      -5.060  -9.968   9.191  0.00  0.00    +0.046 A 
ATOM     20  C   UNL     1      -4.125  -8.965   9.413  0.00  0.00    +0.027 A 
ATOM     21  C   UNL     1      -4.993 -11.172   9.880  0.00  0.00    +0.027 A 
ATOM     24  C   UNL     1      -3.104  -9.172  10.341  0.00  0.00    +0.048 A 
ATOM     25  C   UNL     1      -3.972 -11.378  10.806  0.00  0.00    +0.048 A 
ATOM     29  C   UNL     1      -3.026 -10.378  11.037  0.00  0.00    +0.129 A 
BRANCH  29   7
ATOM      7  O   UNL     1      -2.030 -10.578  11.943  0.00  0.00    -0.456 OA
BRANCH   7  31
ATOM     31  C   UNL     1      -2.373 -10.576  13.285  0.00  0.00    +0.128 A 
ATOM     32  C   UNL     1      -1.374 -10.471  14.237  0.00  0.00    +0.046 A 
ATOM     33  C   UNL     1      -3.706 -10.676  13.639  0.00  0.00    +0.046 A 
ATOM     34  C   UNL     1      -1.719 -10.468  15.587  0.00  0.00    +0.004 A 
ATOM     35  C   UNL     1      -4.052 -10.674  14.991  0.00  0.00    +0.004 A 
ATOM     36  C   UNL     1      -3.058 -10.570  15.965  0.00  0.00    +0.000 A 
ENDBRANCH   7  31
ENDBRANCH  29   7
ENDBRANCH  10  18
BRANCH  17  19
ATOM     19  C   UNL     1     -11.193  -6.763   8.843  0.00  0.00    +0.037 A 
ATOM     22  C   UNL     1     -10.678  -5.524   9.216  0.00  0.00    +0.013 A 
ATOM     23  C   UNL     1     -12.528  -6.886   8.466  0.00  0.00    +0.013 A 
ATOM     26  C   UNL     1     -11.505  -4.401   9.214  0.00  0.00    +0.013 A 
ATOM     27  C   UNL     1     -13.354  -5.762   8.465  0.00  0.00    +0.013 A 
ATOM     28  C   UNL     1     -12.843  -4.520   8.839  0.00  0.00    +0.055 A 
BRANCH  28  30
ATOM      1  F   UNL     1     -13.237  -2.280   8.095  0.00  0.00    -0.166 F 
ATOM      2  F   UNL     1     -13.945  -2.797  10.080  0.00  0.00    -0.166 F 
ATOM      3  F   UNL     1     -14.966  -3.580   8.326  0.00  0.00    -0.166 F 
ATOM     30  C   UNL     1     -13.727  -3.319   8.836  0.00  0.00    +0.417 C 
ENDBRANCH  28  30
ENDBRANCH  17  19
TORSDOF 5
ENDMDL
MODEL 6
REMARK VINA RESULT:      -7.3     28.070     30.569
REMARK  Name = 7165077
REMARK  5 active torsions:
REMARK  status: ('A' for Active; 'I' for Inactive)
REMARK    1  A    between atoms: O_7  and  C_29
REMARK    2  A    between atoms: O_7  and  C_31
REMARK    3  A    between atoms: N_10  and  C_18
REMARK    4  A    between atoms: C_17  and  C_19
REMARK    5  A    between atoms: C_28  and  C_30
REMARK                            x       y       z     vdW  Elec       q    Type
REMARK                         _______ _______ _______ _____ _____    ______ ____
ROOT
ATOM      4  O   UNL     1      -8.610  -9.135  15.673  0.00  0.00    -0.273 OA
ATOM      5  O   UNL     1      -7.720 -11.261  19.774  0.00  0.00    -0.252 OA
ATOM      6  O   UNL     1     -10.186  -6.427  15.748  0.00  0.00    -0.270 OA
ATOM      8  N   UNL     1     -11.047  -8.416  16.598  0.00  0.00    -0.284 N 
ATOM      9  N   UNL     1      -9.726 -10.296  19.387  0.00  0.00    -0.293 N 
ATOM     10  N   UNL     1      -8.074 -10.236  17.683  0.00  0.00    -0.193 N 
ATOM     11  C   UNL     1     -10.663  -9.564  18.588  0.00  0.00    +0.105 C 
ATOM     12  C   UNL     1      -9.988  -8.663  17.578  0.00  0.00    +0.183 C 
ATOM     13  C   UNL     1     -11.580 -10.431  17.727  0.00  0.00    +0.043 C 
ATOM     14  C   UNL     1     -12.096  -9.435  16.695  0.00  0.00    +0.111 C 
ATOM     15  C   UNL     1      -8.833  -9.360  16.865  0.00  0.00    +0.250 C 
ATOM     16  C   UNL     1      -8.454 -10.655  18.986  0.00  0.00    +0.313 C 
ATOM     17  C   UNL     1     -11.076  -7.271  15.815  0.00  0.00    +0.247 C 
ATOM     37  H   UNL     1     -10.023 -10.590  20.313  0.00  0.00    +0.151 HD
ENDROOT
BRANCH  10  18
ATOM     18  C   UNL     1      -6.831 -10.750  17.145  0.00  0.00    +0.046 A 
ATOM     20  C   UNL     1      -5.670  -9.999  17.265  0.00  0.00    +0.027 A 
ATOM     21  C   UNL     1      -6.818 -11.989  16.518  0.00  0.00    +0.027 A 
ATOM     24  C   UNL     1      -4.473 -10.496  16.747  0.00  0.00    +0.048 A 
ATOM     25  C   UNL     1      -5.623 -12.485  16.000  0.00  0.00    +0.048 A 
ATOM     29  C   UNL     1      -4.449 -11.739  16.114  0.00  0.00    +0.129 A 
BRANCH  29   7
ATOM      7  O   UNL     1      -3.281 -12.223  15.610  0.00  0.00    -0.456 OA
BRANCH   7  31
ATOM     31  C   UNL     1      -2.923 -11.833  14.331  0.00  0.00    +0.128 A 
ATOM     32  C   UNL     1      -2.191 -10.672  14.158  0.00  0.00    +0.046 A 
ATOM     33  C   UNL     1      -3.306 -12.616  13.256  0.00  0.00    +0.046 A 
ATOM     34  C   UNL     1      -1.830 -10.280  12.870  0.00  0.00    +0.004 A 
ATOM     35  C   UNL     1      -2.945 -12.224  11.967  0.00  0.00    +0.004 A 
ATOM     36  C   UNL     1      -2.207 -11.056  11.774  0.00  0.00    +0.000 A 
ENDBRANCH   7  31
ENDBRANCH  29   7
ENDBRANCH  10  18
BRANCH  17  19
ATOM     19  C   UNL     1     -12.280  -7.045  15.004  0.00  0.00    +0.037 A 
ATOM     22  C   UNL     1     -13.414  -6.487  15.589  0.00  0.00    +0.013 A 
ATOM     23  C   UNL     1     -12.281  -7.387  13.655  0.00  0.00    +0.013 A 
ATOM     26  C   UNL     1     -14.557  -6.270  14.818  0.00  0.00    +0.013 A 
ATOM     27  C   UNL     1     -13.424  -7.171  12.885  0.00  0.00    +0.013 A 
ATOM     28  C   UNL     1     -14.561  -6.612  13.467  0.00  0.00    +0.055 A 
BRANCH  28  30
ATOM      1  F   UNL     1     -16.949  -6.547  13.335  0.00  0.00    -0.166 F 
ATOM      2  F   UNL     1     -15.884  -7.216  11.567  0.00  0.00    -0.166 F 
ATOM      3  F   UNL     1     -15.838  -5.116  12.131  0.00  0.00    -0.166 F 
ATOM     30  C   UNL     1     -15.783  -6.381  12.643  0.00  0.00    +0.417 C 
ENDBRANCH  28  30
ENDBRANCH  17  19
TORSDOF 5
ENDMDL
MODEL 7
REMARK VINA RESULT:      -7.1     28.069     30.281
REMARK  Name = 7165077
REMARK  5 active torsions:
REMARK  status: ('A' for Active; 'I' for Inactive)
REMARK    1  A    between atoms: O_7  and  C_29
REMARK    2  A    between atoms: O_7  and  C_31
REMARK    3  A    between atoms: N_10  and  C_18
REMARK    4  A    between atoms: C_17  and  C_19
REMARK    5  A    between atoms: C_28  and  C_30
REMARK                            x       y       z     vdW  Elec       q    Type
REMARK                         _______ _______ _______ _____ _____    ______ ____
ROOT
ATOM      4  O   UNL     1      -7.151 -10.671  16.306  0.00  0.00    -0.273 OA
ATOM      5  O   UNL     1      -3.267 -11.797  18.710  0.00  0.00    -0.252 OA
ATOM      6  O   UNL     1      -9.110  -8.593  17.596  0.00  0.00    -0.270 OA
ATOM      8  N   UNL     1      -8.540 -10.602  18.624  0.00  0.00    -0.284 N 
ATOM      9  N   UNL     1      -5.249 -11.558  19.768  0.00  0.00    -0.293 N 
ATOM     10  N   UNL     1      -5.157 -11.247  17.416  0.00  0.00    -0.193 N 
ATOM     11  C   UNL     1      -6.652 -11.272  19.811  0.00  0.00    +0.105 C 
ATOM     12  C   UNL     1      -7.097 -10.367  18.684  0.00  0.00    +0.183 C 
ATOM     13  C   UNL     1      -7.556 -12.494  19.657  0.00  0.00    +0.043 C 
ATOM     14  C   UNL     1      -8.892 -11.867  19.276  0.00  0.00    +0.111 C 
ATOM     15  C   UNL     1      -6.493 -10.775  17.344  0.00  0.00    +0.250 C 
ATOM     16  C   UNL     1      -4.478 -11.567  18.622  0.00  0.00    +0.313 C 
ATOM     17  C   UNL     1      -9.425  -9.648  18.139  0.00  0.00    +0.247 C 
ATOM     37  H   UNL     1      -4.787 -11.789  20.643  0.00  0.00    +0.151 HD
ENDROOT
BRANCH  10  18
ATOM     18  C   UNL     1      -4.441 -11.431  16.170  0.00  0.00    +0.046 A 
ATOM     20  C   UNL     1      -4.572 -12.626  15.474  0.00  0.00    +0.027 A 
ATOM     21  C   UNL     1      -3.633 -10.409  15.688  0.00  0.00    +0.027 A 
ATOM     24  C   UNL     1      -3.881 -12.801  14.275  0.00  0.00    +0.048 A 
ATOM     25  C   UNL     1      -2.943 -10.585  14.490  0.00  0.00    +0.048 A 
ATOM     29  C   UNL     1      -3.067 -11.782  13.782  0.00  0.00    +0.129 A 
BRANCH  29   7
ATOM      7  O   UNL     1      -2.395 -11.954  12.611  0.00  0.00    -0.456 OA
BRANCH   7  31
ATOM     31  C   UNL     1      -2.958 -11.421  11.464  0.00  0.00    +0.128 A 
ATOM     32  C   UNL     1      -2.765 -10.082  11.175  0.00  0.00    +0.046 A 
ATOM     33  C   UNL     1      -3.700 -12.243  10.633  0.00  0.00    +0.046 A 
ATOM     34  C   UNL     1      -3.331  -9.546  10.019  0.00  0.00    +0.004 A 
ATOM     35  C   UNL     1      -4.267 -11.707   9.477  0.00  0.00    +0.004 A 
ATOM     36  C   UNL     1      -4.082 -10.358   9.170  0.00  0.00    +0.000 A 
ENDBRANCH   7  31
ENDBRANCH  29   7
ENDBRANCH  10  18
BRANCH  17  19
ATOM     19  C   UNL     1     -10.859  -9.922  18.300  0.00  0.00    +0.037 A 
ATOM     22  C   UNL     1     -11.587 -10.447  17.234  0.00  0.00    +0.013 A 
ATOM     23  C   UNL     1     -11.483  -9.660  19.516  0.00  0.00    +0.013 A 
ATOM     26  C   UNL     1     -12.948 -10.709  17.387  0.00  0.00    +0.013 A 
ATOM     27  C   UNL     1     -12.844  -9.922  19.668  0.00  0.00    +0.013 A 
ATOM     28  C   UNL     1     -13.577 -10.446  18.604  0.00  0.00    +0.055 A 
BRANCH  28  30
ATOM      1  F   UNL     1     -15.373 -11.135  20.026  0.00  0.00    -0.166 F 
ATOM      2  F   UNL     1     -15.498 -11.707  17.937  0.00  0.00    -0.166 F 
ATOM      3  F   UNL     1     -15.809  -9.633  18.515  0.00  0.00    -0.166 F 
ATOM     30  C   UNL     1     -15.032 -10.727  18.767  0.00  0.00    +0.417 C 
ENDBRANCH  28  30
ENDBRANCH  17  19
TORSDOF 5
ENDMDL
MODEL 8
REMARK VINA RESULT:      -7.1     27.828     31.156
REMARK  Name = 7165077
REMARK  5 active torsions:
REMARK  status: ('A' for Active; 'I' for Inactive)
REMARK    1  A    between atoms: O_7  and  C_29
REMARK    2  A    between atoms: O_7  and  C_31
REMARK    3  A    between atoms: N_10  and  C_18
REMARK    4  A    between atoms: C_17  and  C_19
REMARK    5  A    between atoms: C_28  and  C_30
REMARK                            x       y       z     vdW  Elec       q    Type
REMARK                         _______ _______ _______ _____ _____    ______ ____
ROOT
ATOM      4  O   UNL     1      16.714  -9.368  24.916  0.00  0.00    -0.273 OA
ATOM      5  O   UNL     1      15.991 -11.534  29.029  0.00  0.00    -0.252 OA
ATOM      6  O   UNL     1      18.924  -7.149  24.808  0.00  0.00    -0.270 OA
ATOM      8  N   UNL     1      17.086  -7.036  26.234  0.00  0.00    -0.284 N 
ATOM      9  N   UNL     1      16.346  -9.305  28.947  0.00  0.00    -0.293 N 
ATOM     10  N   UNL     1      16.327 -10.540  26.920  0.00  0.00    -0.193 N 
ATOM     11  C   UNL     1      16.616  -8.074  28.265  0.00  0.00    +0.105 C 
ATOM     12  C   UNL     1      17.348  -8.281  26.958  0.00  0.00    +0.183 C 
ATOM     13  C   UNL     1      15.371  -7.292  27.850  0.00  0.00    +0.043 C 
ATOM     14  C   UNL     1      15.920  -6.344  26.789  0.00  0.00    +0.111 C 
ATOM     15  C   UNL     1      16.765  -9.434  26.147  0.00  0.00    +0.250 C 
ATOM     16  C   UNL     1      16.189 -10.532  28.334  0.00  0.00    +0.313 C 
ATOM     17  C   UNL     1      17.950  -6.552  25.261  0.00  0.00    +0.247 C 
ATOM     37  H   UNL     1      16.247  -9.272  29.958  0.00  0.00    +0.151 HD
ENDROOT
BRANCH  10  18
ATOM     18  C   UNL     1      15.981 -11.758  26.216  0.00  0.00    +0.046 A 
ATOM     20  C   UNL     1      16.972 -12.687  25.926  0.00  0.00    +0.027 A 
ATOM     21  C   UNL     1      14.662 -11.981  25.842  0.00  0.00    +0.027 A 
ATOM     24  C   UNL     1      16.637 -13.859  25.248  0.00  0.00    +0.048 A 
ATOM     25  C   UNL     1      14.328 -13.153  25.165  0.00  0.00    +0.048 A 
ATOM     29  C   UNL     1      15.315 -14.093  24.867  0.00  0.00    +0.129 A 
BRANCH  29   7
ATOM      7  O   UNL     1      14.990 -15.238  24.208  0.00  0.00    -0.456 OA
BRANCH   7  31
ATOM     31  C   UNL     1      14.699 -15.141  22.857  0.00  0.00    +0.128 A 
ATOM     32  C   UNL     1      15.362 -14.201  22.089  0.00  0.00    +0.046 A 
ATOM     33  C   UNL     1      13.751 -15.987  22.311  0.00  0.00    +0.046 A 
ATOM     34  C   UNL     1      15.069 -14.104  20.730  0.00  0.00    +0.004 A 
ATOM     35  C   UNL     1      13.456 -15.890  20.950  0.00  0.00    +0.004 A 
ATOM     36  C   UNL     1      14.116 -14.948  20.160  0.00  0.00    +0.000 A 
ENDBRANCH   7  31
ENDBRANCH  29   7
ENDBRANCH  10  18
BRANCH  17  19
ATOM     19  C   UNL     1      17.681  -5.206  24.737  0.00  0.00    +0.037 A 
ATOM     22  C   UNL     1      18.085  -4.087  25.461  0.00  0.00    +0.013 A 
ATOM     23  C   UNL     1      17.026  -5.057  23.518  0.00  0.00    +0.013 A 
ATOM     26  C   UNL     1      17.832  -2.810  24.961  0.00  0.00    +0.013 A 
ATOM     27  C   UNL     1      16.772  -3.779  23.019  0.00  0.00    +0.013 A 
ATOM     28  C   UNL     1      17.175  -2.655  23.741  0.00  0.00    +0.055 A 
BRANCH  28  30
ATOM      1  F   UNL     1      16.826  -0.329  24.176  0.00  0.00    -0.166 F 
ATOM      2  F   UNL     1      15.729  -1.195  22.517  0.00  0.00    -0.166 F 
ATOM      3  F   UNL     1      17.872  -0.862  22.344  0.00  0.00    -0.166 F 
ATOM     30  C   UNL     1      16.904  -1.290  23.207  0.00  0.00    +0.417 C 
ENDBRANCH  28  30
ENDBRANCH  17  19
TORSDOF 5
ENDMDL
MODEL 9
REMARK VINA RESULT:      -7.1     34.818     36.521
REMARK  Name = 7165077
REMARK  5 active torsions:
REMARK  status: ('A' for Active; 'I' for Inactive)
REMARK    1  A    between atoms: O_7  and  C_29
REMARK    2  A    between atoms: O_7  and  C_31
REMARK    3  A    between atoms: N_10  and  C_18
REMARK    4  A    between atoms: C_17  and  C_19
REMARK    5  A    between atoms: C_28  and  C_30
REMARK                            x       y       z     vdW  Elec       q    Type
REMARK                         _______ _______ _______ _____ _____    ______ ____
ROOT
ATOM      4  O   UNL     1      -3.698 -12.842   7.770  0.00  0.00    -0.273 OA
ATOM      5  O   UNL     1      -6.405 -10.736   4.549  0.00  0.00    -0.252 OA
ATOM      6  O   UNL     1      -4.925 -13.322  10.614  0.00  0.00    -0.270 OA
ATOM      8  N   UNL     1      -4.717 -11.205   9.666  0.00  0.00    -0.284 N 
ATOM      9  N   UNL     1      -6.396 -10.022   6.693  0.00  0.00    -0.293 N 
ATOM     10  N   UNL     1      -5.003 -11.846   6.084  0.00  0.00    -0.193 N 
ATOM     11  C   UNL     1      -5.974 -10.079   8.061  0.00  0.00    +0.105 C 
ATOM     12  C   UNL     1      -5.529 -11.464   8.476  0.00  0.00    +0.183 C 
ATOM     13  C   UNL     1      -4.763  -9.209   8.390  0.00  0.00    +0.043 C 
ATOM     14  C   UNL     1      -4.277  -9.808   9.704  0.00  0.00    +0.111 C 
ATOM     15  C   UNL     1      -4.640 -12.123   7.427  0.00  0.00    +0.250 C 
ATOM     16  C   UNL     1      -5.945 -10.857   5.690  0.00  0.00    +0.313 C 
ATOM     17  C   UNL     1      -4.547 -12.153  10.665  0.00  0.00    +0.247 C 
ATOM     37  H   UNL     1      -7.066  -9.303   6.435  0.00  0.00    +0.151 HD
ENDROOT
BRANCH  10  18
ATOM     18  C   UNL     1      -4.357 -12.615   5.040  0.00  0.00    +0.046 A 
ATOM     20  C   UNL     1      -4.822 -13.889   4.740  0.00  0.00    +0.027 A 
ATOM     21  C   UNL     1      -3.283 -12.067   4.352  0.00  0.00    +0.027 A 
ATOM     24  C   UNL     1      -4.199 -14.628   3.734  0.00  0.00    +0.048 A 
ATOM     25  C   UNL     1      -2.660 -12.807   3.347  0.00  0.00    +0.048 A 
ATOM     29  C   UNL     1      -3.118 -14.088   3.037  0.00  0.00    +0.129 A 
BRANCH  29   7
ATOM      7  O   UNL     1      -2.513 -14.810   2.055  0.00  0.00    -0.456 OA
BRANCH   7  31
ATOM     31  C   UNL     1      -1.128 -14.821   2.027  0.00  0.00    +0.128 A 
ATOM     32  C   UNL     1      -0.436 -15.435   3.055  0.00  0.00    +0.046 A 
ATOM     33  C   UNL     1      -0.472 -14.217   0.970  0.00  0.00    +0.046 A 
ATOM     34  C   UNL     1       0.957 -15.447   3.026  0.00  0.00    +0.004 A 
ATOM     35  C   UNL     1       0.923 -14.227   0.940  0.00  0.00    +0.004 A 
ATOM     36  C   UNL     1       1.637 -14.842   1.969  0.00  0.00    +0.000 A 
ENDBRANCH   7  31
ENDBRANCH  29   7
ENDBRANCH  10  18
BRANCH  17  19
ATOM     19  C   UNL     1      -3.867 -11.718  11.893  0.00  0.00    +0.037 A 
ATOM     22  C   UNL     1      -4.596 -11.100  12.905  0.00  0.00    +0.013 A 
ATOM     23  C   UNL     1      -2.499 -11.930  12.038  0.00  0.00    +0.013 A 
ATOM     26  C   UNL     1      -3.950 -10.689  14.072  0.00  0.00    +0.013 A 
ATOM     27  C   UNL     1      -1.854 -11.519  13.204  0.00  0.00    +0.013 A 
ATOM     28  C   UNL     1      -2.580 -10.898  14.221  0.00  0.00    +0.055 A 
BRANCH  28  30
ATOM      1  F   UNL     1      -0.967 -11.356  15.928  0.00  0.00    -0.166 F 
ATOM      2  F   UNL     1      -2.738 -10.251  16.519  0.00  0.00    -0.166 F 
ATOM      3  F   UNL     1      -1.211  -9.285  15.307  0.00  0.00    -0.166 F 
ATOM     30  C   UNL     1      -1.890 -10.459  15.468  0.00  0.00    +0.417 C 
ENDBRANCH  28  30
ENDBRANCH  17  19
TORSDOF 5
ENDMDL
MODEL 10
REMARK VINA RESULT:      -6.9     28.383     30.504
REMARK  Name = 7165077
REMARK  5 active torsions:
REMARK  status: ('A' for Active; 'I' for Inactive)
REMARK    1  A    between atoms: O_7  and  C_29
REMARK    2  A    between atoms: O_7  and  C_31
REMARK    3  A    between atoms: N_10  and  C_18
REMARK    4  A    between atoms: C_17  and  C_19
REMARK    5  A    between atoms: C_28  and  C_30
REMARK                            x       y       z     vdW  Elec       q    Type
REMARK                         _______ _______ _______ _____ _____    ______ ____
ROOT
ATOM      4  O   UNL     1      -7.647 -12.089  16.489  0.00  0.00    -0.273 OA
ATOM      5  O   UNL     1      -5.790 -11.742  20.798  0.00  0.00    -0.252 OA
ATOM      6  O   UNL     1      -5.954 -13.541  14.287  0.00  0.00    -0.270 OA
ATOM      8  N   UNL     1      -5.201 -11.654  15.423  0.00  0.00    -0.284 N 
ATOM      9  N   UNL     1      -4.512 -11.423  18.962  0.00  0.00    -0.293 N 
ATOM     10  N   UNL     1      -6.817 -11.921  18.685  0.00  0.00    -0.193 N 
ATOM     11  C   UNL     1      -4.292 -11.365  17.548  0.00  0.00    +0.105 C 
ATOM     12  C   UNL     1      -5.269 -12.219  16.771  0.00  0.00    +0.183 C 
ATOM     13  C   UNL     1      -4.475  -9.978  16.933  0.00  0.00    +0.043 C 
ATOM     14  C   UNL     1      -4.647 -10.297  15.453  0.00  0.00    +0.111 C 
ATOM     15  C   UNL     1      -6.699 -12.067  17.278  0.00  0.00    +0.250 C 
ATOM     16  C   UNL     1      -5.727 -11.683  19.565  0.00  0.00    +0.313 C 
ATOM     17  C   UNL     1      -5.491 -12.403  14.291  0.00  0.00    +0.247 C 
ATOM     37  H   UNL     1      -3.718 -11.244  19.571  0.00  0.00    +0.151 HD
ENDROOT
BRANCH  10  18
ATOM     18  C   UNL     1      -8.143 -12.006  19.262  0.00  0.00    +0.046 A 
ATOM     20  C   UNL     1      -8.886 -10.847  19.443  0.00  0.00    +0.027 A 
ATOM     21  C   UNL     1      -8.653 -13.245  19.625  0.00  0.00    +0.027 A 
ATOM     24  C   UNL     1     -10.163 -10.930  19.999  0.00  0.00    +0.048 A 
ATOM     25  C   UNL     1      -9.929 -13.327  20.181  0.00  0.00    +0.048 A 
ATOM     29  C   UNL     1     -10.685 -12.169  20.368  0.00  0.00    +0.129 A 
BRANCH  29   7
ATOM      7  O   UNL     1     -11.931 -12.249  20.909  0.00  0.00    -0.456 OA
BRANCH   7  31
ATOM     31  C   UNL     1     -12.933 -11.491  20.326  0.00  0.00    +0.128 A 
ATOM     32  C   UNL     1     -13.523 -11.936  19.156  0.00  0.00    +0.046 A 
ATOM     33  C   UNL     1     -13.320 -10.308  20.930  0.00  0.00    +0.046 A 
ATOM     34  C   UNL     1     -14.533 -11.173  18.571  0.00  0.00    +0.004 A 
ATOM     35  C   UNL     1     -14.330  -9.544  20.344  0.00  0.00    +0.004 A 
ATOM     36  C   UNL     1     -14.936  -9.977  19.164  0.00  0.00    +0.000 A 
ENDBRANCH   7  31
ENDBRANCH  29   7
ENDBRANCH  10  18
BRANCH  17  19
ATOM     19  C   UNL     1      -5.210 -11.786  12.988  0.00  0.00    +0.037 A 
ATOM     22  C   UNL     1      -6.202 -11.053  12.341  0.00  0.00    +0.013 A 
ATOM     23  C   UNL     1      -3.952 -11.932  12.409  0.00  0.00    +0.013 A 
ATOM     26  C   UNL     1      -5.934 -10.464  11.105  0.00  0.00    +0.013 A 
ATOM     27  C   UNL     1      -3.685 -11.345  11.173  0.00  0.00    +0.013 A 
ATOM     28  C   UNL     1      -4.676 -10.611  10.521  0.00  0.00    +0.055 A 
BRANCH  28  30
ATOM      1  F   UNL     1      -3.336  -9.111   9.224  0.00  0.00    -0.166 F 
ATOM      2  F   UNL     1      -5.436  -9.260   8.699  0.00  0.00    -0.166 F 
ATOM      3  F   UNL     1      -4.084 -10.899   8.237  0.00  0.00    -0.166 F 
ATOM     30  C   UNL     1      -4.390  -9.981   9.200  0.00  0.00    +0.417 C 
ENDBRANCH  28  30
ENDBRANCH  17  19
TORSDOF 5
ENDMDL
