MODEL 1
REMARK VINA RESULT:      -7.2      0.000      0.000
REMARK  Name = 51137141
REMARK  6 active torsions:
REMARK  status: ('A' for Active; 'I' for Inactive)
REMARK    1  A    between atoms: S_1  and  C_18
REMARK    2  A    between atoms: S_1  and  C_23
REMARK    3  A    between atoms: N_5  and  C_13
REMARK    4  A    between atoms: C_8  and  C_12
REMARK    5  A    between atoms: C_13  and  C_14
REMARK    6  A    between atoms: C_23  and  C_26
REMARK                            x       y       z     vdW  Elec       q    Type
REMARK                         _______ _______ _______ _____ _____    ______ ____
ROOT
ATOM      2  O   UNL     1      17.672   7.788  21.500  0.00  0.00    -0.439 OA
ATOM      6  N   UNL     1      17.182   6.238  19.919  0.00  0.00    -0.213 NA
ATOM     12  C   UNL     1      18.112   6.832  20.633  0.00  0.00    +0.201 A 
ATOM     15  C   UNL     1      16.024   6.845  20.342  0.00  0.00    +0.111 A 
ATOM     16  C   UNL     1      16.319   7.794  21.309  0.00  0.00    +0.155 A 
ATOM     17  C   UNL     1      14.686   6.656  19.964  0.00  0.00    +0.058 A 
ATOM     18  C   UNL     1      13.708   7.444  20.590  0.00  0.00    +0.090 A 
ATOM     19  C   UNL     1      15.380   8.592  21.949  0.00  0.00    +0.050 A 
ATOM     22  C   UNL     1      14.051   8.391  21.561  0.00  0.00    +0.030 A 
ENDROOT
BRANCH  12   8
ATOM      5  N   UNL     1      21.241   4.977  21.068  0.00  0.00    -0.297 NA
ATOM      8  C   UNL     1      19.605   6.594  20.617  0.00  0.00    +0.090 C 
ATOM      9  C   UNL     1      20.328   6.945  21.930  0.00  0.00    +0.029 C 
ATOM     10  C   UNL     1      19.974   5.129  20.352  0.00  0.00    +0.097 C 
ATOM     11  C   UNL     1      21.038   5.663  22.344  0.00  0.00    +0.085 C 
BRANCH   5  13
ATOM     13  C   UNL     1      21.616   3.581  21.243  0.00  0.00    +0.119 C 
BRANCH  13  14
ATOM      7  N   UNL     1      25.743   2.895  20.243  0.00  0.00    -0.263 NA
ATOM     14  C   UNL     1      23.060   3.340  20.893  0.00  0.00    -0.031 A 
ATOM     20  C   UNL     1      23.669   2.136  21.228  0.00  0.00    +0.024 A 
ATOM     21  C   UNL     1      23.791   4.322  20.233  0.00  0.00    +0.024 A 
ATOM     24  C   UNL     1      25.000   1.965  20.884  0.00  0.00    +0.111 A 
ATOM     25  C   UNL     1      25.117   4.052  19.933  0.00  0.00    +0.111 A 
ENDBRANCH  13  14
ENDBRANCH   5  13
ENDBRANCH  12   8
BRANCH  18   1
ATOM      1  S   UNL     1      12.030   7.238  20.142  0.00  0.00    -0.003 S 
ATOM      3  O   UNL     1      11.902   7.430  18.705  0.00  0.00    -0.169 OA
ATOM      4  O   UNL     1      11.552   6.009  20.755  0.00  0.00    -0.169 OA
BRANCH   1  23
ATOM     23  C   UNL     1      11.196   8.601  20.925  0.00  0.00    +0.168 C 
ATOM     26  C   UNL     1      10.549   8.181  22.226  0.00  0.00    +0.028 C 
ENDBRANCH   1  23
ENDBRANCH  18   1
TORSDOF 5
ENDMDL
MODEL 2
REMARK VINA RESULT:      -6.6     29.953     33.309
REMARK  Name = 51137141
REMARK  6 active torsions:
REMARK  status: ('A' for Active; 'I' for Inactive)
REMARK    1  A    between atoms: S_1  and  C_18
REMARK    2  A    between atoms: S_1  and  C_23
REMARK    3  A    between atoms: N_5  and  C_13
REMARK    4  A    between atoms: C_8  and  C_12
REMARK    5  A    between atoms: C_13  and  C_14
REMARK    6  A    between atoms: C_23  and  C_26
REMARK                            x       y       z     vdW  Elec       q    Type
REMARK                         _______ _______ _______ _____ _____    ______ ____
ROOT
ATOM      2  O   UNL     1     -16.371   3.799  22.449  0.00  0.00    -0.439 OA
ATOM      6  N   UNL     1     -14.939   4.730  23.940  0.00  0.00    -0.213 NA
ATOM     12  C   UNL     1     -15.357   4.676  22.694  0.00  0.00    +0.201 A 
ATOM     15  C   UNL     1     -15.738   3.815  24.581  0.00  0.00    +0.111 A 
ATOM     16  C   UNL     1     -16.616   3.242  23.672  0.00  0.00    +0.155 A 
ATOM     17  C   UNL     1     -15.791   3.406  25.922  0.00  0.00    +0.058 A 
ATOM     18  C   UNL     1     -16.735   2.432  26.277  0.00  0.00    +0.090 A 
ATOM     19  C   UNL     1     -17.563   2.276  23.986  0.00  0.00    +0.050 A 
ATOM     22  C   UNL     1     -17.602   1.880  25.327  0.00  0.00    +0.030 A 
ENDROOT
BRANCH  12   8
ATOM      5  N   UNL     1     -13.304   7.091  20.857  0.00  0.00    -0.297 NA
ATOM      8  C   UNL     1     -14.859   5.460  21.501  0.00  0.00    +0.090 C 
ATOM      9  C   UNL     1     -15.585   6.795  21.259  0.00  0.00    +0.029 C 
ATOM     10  C   UNL     1     -13.377   5.837  21.610  0.00  0.00    +0.097 C 
ATOM     11  C   UNL     1     -14.485   7.849  21.270  0.00  0.00    +0.085 C 
BRANCH   5  13
ATOM     13  C   UNL     1     -12.066   7.815  21.104  0.00  0.00    +0.119 C 
BRANCH  13  14
ATOM      7  N   UNL     1     -10.133   8.981  17.443  0.00  0.00    -0.263 NA
ATOM     14  C   UNL     1     -11.389   8.223  19.822  0.00  0.00    -0.031 A 
ATOM     20  C   UNL     1     -11.440   7.391  18.709  0.00  0.00    +0.024 A 
ATOM     21  C   UNL     1     -10.711   9.435  19.746  0.00  0.00    +0.024 A 
ATOM     24  C   UNL     1     -10.802   7.812  17.555  0.00  0.00    +0.111 A 
ATOM     25  C   UNL     1     -10.105   9.765  18.543  0.00  0.00    +0.111 A 
ENDBRANCH  13  14
ENDBRANCH   5  13
ENDBRANCH  12   8
BRANCH  18   1
ATOM      1  S   UNL     1     -16.827   1.896  27.940  0.00  0.00    -0.003 S 
ATOM      3  O   UNL     1     -18.207   2.003  28.390  0.00  0.00    -0.169 OA
ATOM      4  O   UNL     1     -16.128   0.625  28.039  0.00  0.00    -0.169 OA
BRANCH   1  23
ATOM     23  C   UNL     1     -15.891   3.109  28.843  0.00  0.00    +0.168 C 
ATOM     26  C   UNL     1     -14.771   2.469  29.634  0.00  0.00    +0.028 C 
ENDBRANCH   1  23
ENDBRANCH  18   1
TORSDOF 5
ENDMDL
MODEL 3
REMARK VINA RESULT:      -6.5     27.651     29.901
REMARK  Name = 51137141
REMARK  6 active torsions:
REMARK  status: ('A' for Active; 'I' for Inactive)
REMARK    1  A    between atoms: S_1  and  C_18
REMARK    2  A    between atoms: S_1  and  C_23
REMARK    3  A    between atoms: N_5  and  C_13
REMARK    4  A    between atoms: C_8  and  C_12
REMARK    5  A    between atoms: C_13  and  C_14
REMARK    6  A    between atoms: C_23  and  C_26
REMARK                            x       y       z     vdW  Elec       q    Type
REMARK                         _______ _______ _______ _____ _____    ______ ____
ROOT
ATOM      2  O   UNL     1      -4.153 -11.107  17.570  0.00  0.00    -0.439 OA
ATOM      6  N   UNL     1      -5.748 -10.354  16.145  0.00  0.00    -0.213 NA
ATOM     12  C   UNL     1      -4.468 -10.566  16.359  0.00  0.00    +0.201 A 
ATOM     15  C   UNL     1      -6.339 -10.787  17.307  0.00  0.00    +0.111 A 
ATOM     16  C   UNL     1      -5.366 -11.249  18.182  0.00  0.00    +0.155 A 
ATOM     17  C   UNL     1      -7.682 -10.828  17.706  0.00  0.00    +0.058 A 
ATOM     18  C   UNL     1      -7.977 -11.337  18.980  0.00  0.00    +0.090 A 
ATOM     19  C   UNL     1      -5.618 -11.759  19.449  0.00  0.00    +0.050 A 
ATOM     22  C   UNL     1      -6.963 -11.792  19.832  0.00  0.00    +0.030 A 
ENDROOT
BRANCH  12   8
ATOM      5  N   UNL     1      -2.204 -11.085  13.525  0.00  0.00    -0.297 NA
ATOM      8  C   UNL     1      -3.303 -10.289  15.438  0.00  0.00    +0.090 C 
ATOM      9  C   UNL     1      -1.982 -10.965  15.846  0.00  0.00    +0.029 C 
ATOM     10  C   UNL     1      -3.551 -10.761  13.999  0.00  0.00    +0.097 C 
ATOM     11  C   UNL     1      -1.574 -11.797  14.637  0.00  0.00    +0.085 C 
BRANCH   5  13
ATOM     13  C   UNL     1      -2.222 -11.873  12.301  0.00  0.00    +0.119 C 
BRANCH  13  14
ATOM      7  N   UNL     1      -4.205  -9.804   9.094  0.00  0.00    -0.263 NA
ATOM     14  C   UNL     1      -2.917 -11.149  11.179  0.00  0.00    -0.031 A 
ATOM     20  C   UNL     1      -3.857 -11.810  10.397  0.00  0.00    +0.024 A 
ATOM     21  C   UNL     1      -2.619  -9.815  10.919  0.00  0.00    +0.024 A 
ATOM     24  C   UNL     1      -4.467 -11.100   9.377  0.00  0.00    +0.111 A 
ATOM     25  C   UNL     1      -3.286  -9.193   9.875  0.00  0.00    +0.111 A 
ENDBRANCH  13  14
ENDBRANCH   5  13
ENDBRANCH  12   8
BRANCH  18   1
ATOM      1  S   UNL     1      -9.642 -11.400  19.512  0.00  0.00    -0.003 S 
ATOM      3  O   UNL     1      -9.981 -12.780  19.826  0.00  0.00    -0.169 OA
ATOM      4  O   UNL     1      -9.830 -10.361  20.513  0.00  0.00    -0.169 OA
BRANCH   1  23
ATOM     23  C   UNL     1     -10.580 -10.949  18.071  0.00  0.00    +0.168 C 
ATOM     26  C   UNL     1     -11.229  -9.592  18.233  0.00  0.00    +0.028 C 
ENDBRANCH   1  23
ENDBRANCH  18   1
TORSDOF 5
ENDMDL
MODEL 4
REMARK VINA RESULT:      -6.4     29.531     32.130
REMARK  Name = 51137141
REMARK  6 active torsions:
REMARK  status: ('A' for Active; 'I' for Inactive)
REMARK    1  A    between atoms: S_1  and  C_18
REMARK    2  A    between atoms: S_1  and  C_23
REMARK    3  A    between atoms: N_5  and  C_13
REMARK    4  A    between atoms: C_8  and  C_12
REMARK    5  A    between atoms: C_13  and  C_14
REMARK    6  A    between atoms: C_23  and  C_26
REMARK                            x       y       z     vdW  Elec       q    Type
REMARK                         _______ _______ _______ _____ _____    ______ ____
ROOT
ATOM      2  O   UNL     1     -12.169  -7.727  16.605  0.00  0.00    -0.439 OA
ATOM      6  N   UNL     1     -10.543  -6.502  15.609  0.00  0.00    -0.213 NA
ATOM     12  C   UNL     1     -10.847  -7.414  16.506  0.00  0.00    +0.201 A 
ATOM     15  C   UNL     1     -11.761  -6.178  15.062  0.00  0.00    +0.111 A 
ATOM     16  C   UNL     1     -12.759  -6.926  15.669  0.00  0.00    +0.155 A 
ATOM     17  C   UNL     1     -12.114  -5.269  14.054  0.00  0.00    +0.058 A 
ATOM     18  C   UNL     1     -13.469  -5.162  13.709  0.00  0.00    +0.090 A 
ATOM     19  C   UNL     1     -14.110  -6.847  15.354  0.00  0.00    +0.050 A 
ATOM     22  C   UNL     1     -14.445  -5.936  14.347  0.00  0.00    +0.030 A 
ENDROOT
BRANCH  12   8
ATOM      5  N   UNL     1      -8.443  -9.975  17.549  0.00  0.00    -0.297 NA
ATOM      8  C   UNL     1      -9.921  -8.158  17.441  0.00  0.00    +0.090 C 
ATOM      9  C   UNL     1     -10.580  -9.312  18.218  0.00  0.00    +0.029 C 
ATOM     10  C   UNL     1      -8.734  -8.806  16.717  0.00  0.00    +0.097 C 
ATOM     11  C   UNL     1      -9.752 -10.543  17.872  0.00  0.00    +0.085 C 
BRANCH   5  13
ATOM     13  C   UNL     1      -7.574 -10.931  16.878  0.00  0.00    +0.119 C 
BRANCH  13  14
ATOM      7  N   UNL     1      -4.045 -11.779  19.186  0.00  0.00    -0.263 NA
ATOM     14  C   UNL     1      -6.338 -11.227  17.685  0.00  0.00    -0.031 A 
ATOM     20  C   UNL     1      -5.115 -11.409  17.050  0.00  0.00    +0.024 A 
ATOM     21  C   UNL     1      -6.416 -11.321  19.071  0.00  0.00    +0.024 A 
ATOM     24  C   UNL     1      -4.009 -11.679  17.838  0.00  0.00    +0.111 A 
ATOM     25  C   UNL     1      -5.250 -11.596  19.769  0.00  0.00    +0.111 A 
ENDBRANCH  13  14
ENDBRANCH   5  13
ENDBRANCH  12   8
BRANCH  18   1
ATOM      1  S   UNL     1     -13.946  -4.036  12.458  0.00  0.00    -0.003 S 
ATOM      3  O   UNL     1     -14.580  -4.778  11.377  0.00  0.00    -0.169 OA
ATOM      4  O   UNL     1     -14.653  -2.936  13.094  0.00  0.00    -0.169 OA
BRANCH   1  23
ATOM     23  C   UNL     1     -12.408  -3.407  11.824  0.00  0.00    +0.168 C 
ATOM     26  C   UNL     1     -12.255  -3.699  10.348  0.00  0.00    +0.028 C 
ENDBRANCH   1  23
ENDBRANCH  18   1
TORSDOF 5
ENDMDL
MODEL 5
REMARK VINA RESULT:      -6.4     27.946     32.009
REMARK  Name = 51137141
REMARK  6 active torsions:
REMARK  status: ('A' for Active; 'I' for Inactive)
REMARK    1  A    between atoms: S_1  and  C_18
REMARK    2  A    between atoms: S_1  and  C_23
REMARK    3  A    between atoms: N_5  and  C_13
REMARK    4  A    between atoms: C_8  and  C_12
REMARK    5  A    between atoms: C_13  and  C_14
REMARK    6  A    between atoms: C_23  and  C_26
REMARK                            x       y       z     vdW  Elec       q    Type
REMARK                         _______ _______ _______ _____ _____    ______ ____
ROOT
ATOM      2  O   UNL     1      -7.326  -9.987  17.204  0.00  0.00    -0.439 OA
ATOM      6  N   UNL     1      -7.232  -9.970  14.939  0.00  0.00    -0.213 NA
ATOM     12  C   UNL     1      -7.962  -9.782  16.016  0.00  0.00    +0.201 A 
ATOM     15  C   UNL     1      -6.007 -10.330  15.447  0.00  0.00    +0.111 A 
ATOM     16  C   UNL     1      -6.060 -10.341  16.833  0.00  0.00    +0.155 A 
ATOM     17  C   UNL     1      -4.801 -10.662  14.813  0.00  0.00    +0.058 A 
ATOM     18  C   UNL     1      -3.701 -10.991  15.620  0.00  0.00    +0.090 A 
ATOM     19  C   UNL     1      -4.994 -10.662  17.664  0.00  0.00    +0.050 A 
ATOM     22  C   UNL     1      -3.799 -10.990  17.016  0.00  0.00    +0.030 A 
ENDROOT
BRANCH  12   8
ATOM      5  N   UNL     1     -10.827  -7.500  16.087  0.00  0.00    -0.297 NA
ATOM      8  C   UNL     1      -9.413  -9.370  16.108  0.00  0.00    +0.090 C 
ATOM      9  C   UNL     1      -9.915  -9.088  17.535  0.00  0.00    +0.029 C 
ATOM     10  C   UNL     1      -9.720  -8.085  15.328  0.00  0.00    +0.097 C 
ATOM     11  C   UNL     1     -10.449  -7.662  17.491  0.00  0.00    +0.085 C 
BRANCH   5  13
ATOM     13  C   UNL     1     -11.066  -6.107  15.735  0.00  0.00    +0.119 C 
BRANCH  13  14
ATOM      7  N   UNL     1     -14.795  -5.600  13.653  0.00  0.00    -0.263 NA
ATOM     14  C   UNL     1     -12.372  -5.930  15.007  0.00  0.00    -0.031 A 
ATOM     20  C   UNL     1     -13.515  -6.586  15.450  0.00  0.00    +0.024 A 
ATOM     21  C   UNL     1     -12.439  -5.108  13.886  0.00  0.00    +0.024 A 
ATOM     24  C   UNL     1     -14.690  -6.389  14.745  0.00  0.00    +0.111 A 
ATOM     25  C   UNL     1     -13.665  -4.978  13.251  0.00  0.00    +0.111 A 
ENDBRANCH  13  14
ENDBRANCH   5  13
ENDBRANCH  12   8
BRANCH  18   1
ATOM      1  S   UNL     1      -2.181 -11.413  14.863  0.00  0.00    -0.003 S 
ATOM      3  O   UNL     1      -1.093 -11.010  15.743  0.00  0.00    -0.169 OA
ATOM      4  O   UNL     1      -2.276 -12.792  14.411  0.00  0.00    -0.169 OA
BRANCH   1  23
ATOM     23  C   UNL     1      -2.102 -10.369  13.426  0.00  0.00    +0.168 C 
ATOM     26  C   UNL     1      -1.957 -11.181  12.158  0.00  0.00    +0.028 C 
ENDBRANCH   1  23
ENDBRANCH  18   1
TORSDOF 5
ENDMDL
MODEL 6
REMARK VINA RESULT:      -6.3      3.977     10.003
REMARK  Name = 51137141
REMARK  6 active torsions:
REMARK  status: ('A' for Active; 'I' for Inactive)
REMARK    1  A    between atoms: S_1  and  C_18
REMARK    2  A    between atoms: S_1  and  C_23
REMARK    3  A    between atoms: N_5  and  C_13
REMARK    4  A    between atoms: C_8  and  C_12
REMARK    5  A    between atoms: C_13  and  C_14
REMARK    6  A    between atoms: C_23  and  C_26
REMARK                            x       y       z     vdW  Elec       q    Type
REMARK                         _______ _______ _______ _____ _____    ______ ____
ROOT
ATOM      2  O   UNL     1      19.521   5.327  20.272  0.00  0.00    -0.439 OA
ATOM      6  N   UNL     1      19.862   6.758  21.998  0.00  0.00    -0.213 NA
ATOM     12  C   UNL     1      19.135   6.447  20.947  0.00  0.00    +0.201 A 
ATOM     15  C   UNL     1      20.812   5.767  22.029  0.00  0.00    +0.111 A 
ATOM     16  C   UNL     1      20.607   4.889  20.975  0.00  0.00    +0.155 A 
ATOM     17  C   UNL     1      21.879   5.531  22.909  0.00  0.00    +0.058 A 
ATOM     18  C   UNL     1      22.691   4.411  22.675  0.00  0.00    +0.090 A 
ATOM     19  C   UNL     1      21.389   3.771  20.711  0.00  0.00    +0.050 A 
ATOM     22  C   UNL     1      22.449   3.551  21.598  0.00  0.00    +0.030 A 
ENDROOT
BRANCH  12   8
ATOM      5  N   UNL     1      15.718   7.767  20.890  0.00  0.00    -0.297 NA
ATOM      8  C   UNL     1      17.929   7.169  20.391  0.00  0.00    +0.090 C 
ATOM      9  C   UNL     1      16.962   6.283  19.586  0.00  0.00    +0.029 C 
ATOM     10  C   UNL     1      17.057   7.804  21.482  0.00  0.00    +0.097 C 
ATOM     11  C   UNL     1      15.613   6.443  20.276  0.00  0.00    +0.085 C 
BRANCH   5  13
ATOM     13  C   UNL     1      14.671   8.006  21.873  0.00  0.00    +0.119 C 
BRANCH  13  14
ATOM      7  N   UNL     1      10.786   8.252  20.043  0.00  0.00    -0.263 NA
ATOM     14  C   UNL     1      13.311   8.092  21.233  0.00  0.00    -0.031 A 
ATOM     20  C   UNL     1      12.269   7.293  21.693  0.00  0.00    +0.024 A 
ATOM     21  C   UNL     1      13.091   8.971  20.178  0.00  0.00    +0.024 A 
ATOM     24  C   UNL     1      11.038   7.411  21.070  0.00  0.00    +0.111 A 
ATOM     25  C   UNL     1      11.821   9.013  19.623  0.00  0.00    +0.111 A 
ENDBRANCH  13  14
ENDBRANCH   5  13
ENDBRANCH  12   8
BRANCH  18   1
ATOM      1  S   UNL     1      24.033   4.089  23.749  0.00  0.00    -0.003 S 
ATOM      3  O   UNL     1      25.275   4.242  23.006  0.00  0.00    -0.169 OA
ATOM      4  O   UNL     1      23.820   4.850  24.970  0.00  0.00    -0.169 OA
BRANCH   1  23
ATOM     23  C   UNL     1      23.873   2.362  24.145  0.00  0.00    +0.168 C 
ATOM     26  C   UNL     1      22.653   2.100  24.999  0.00  0.00    +0.028 C 
ENDBRANCH   1  23
ENDBRANCH  18   1
TORSDOF 5
ENDMDL
MODEL 7
REMARK VINA RESULT:      -6.2     32.152     34.829
REMARK  Name = 51137141
REMARK  6 active torsions:
REMARK  status: ('A' for Active; 'I' for Inactive)
REMARK    1  A    between atoms: S_1  and  C_18
REMARK    2  A    between atoms: S_1  and  C_23
REMARK    3  A    between atoms: N_5  and  C_13
REMARK    4  A    between atoms: C_8  and  C_12
REMARK    5  A    between atoms: C_13  and  C_14
REMARK    6  A    between atoms: C_23  and  C_26
REMARK                            x       y       z     vdW  Elec       q    Type
REMARK                         _______ _______ _______ _____ _____    ______ ____
ROOT
ATOM      2  O   UNL     1     -13.971   7.380  33.531  0.00  0.00    -0.439 OA
ATOM      6  N   UNL     1     -13.905   5.903  35.249  0.00  0.00    -0.213 NA
ATOM     12  C   UNL     1     -14.388   6.196  34.062  0.00  0.00    +0.201 A 
ATOM     15  C   UNL     1     -13.099   6.978  35.537  0.00  0.00    +0.111 A 
ATOM     16  C   UNL     1     -13.137   7.885  34.487  0.00  0.00    +0.155 A 
ATOM     17  C   UNL     1     -12.303   7.269  36.654  0.00  0.00    +0.058 A 
ATOM     18  C   UNL     1     -11.580   8.472  36.653  0.00  0.00    +0.090 A 
ATOM     19  C   UNL     1     -12.437   9.084  34.451  0.00  0.00    +0.050 A 
ATOM     22  C   UNL     1     -11.648   9.359  35.573  0.00  0.00    +0.030 A 
ENDROOT
BRANCH  12   8
ATOM      5  N   UNL     1     -15.573   4.378  31.110  0.00  0.00    -0.297 NA
ATOM      8  C   UNL     1     -15.344   5.392  33.212  0.00  0.00    +0.090 C 
ATOM      9  C   UNL     1     -16.291   6.231  32.336  0.00  0.00    +0.029 C 
ATOM     10  C   UNL     1     -14.628   4.459  32.226  0.00  0.00    +0.097 C 
ATOM     11  C   UNL     1     -16.041   5.750  30.912  0.00  0.00    +0.085 C 
BRANCH   5  13
ATOM     13  C   UNL     1     -14.966   3.822  29.910  0.00  0.00    +0.119 C 
BRANCH  13  14
ATOM      7  N   UNL     1     -14.816  -0.475  30.038  0.00  0.00    -0.263 NA
ATOM     14  C   UNL     1     -14.914   2.317  29.954  0.00  0.00    -0.031 A 
ATOM     20  C   UNL     1     -16.085   1.574  29.855  0.00  0.00    +0.024 A 
ATOM     21  C   UNL     1     -13.693   1.665  30.096  0.00  0.00    +0.024 A 
ATOM     24  C   UNL     1     -15.983   0.194  29.901  0.00  0.00    +0.111 A 
ATOM     25  C   UNL     1     -13.699   0.280  30.131  0.00  0.00    +0.111 A 
ENDBRANCH  13  14
ENDBRANCH   5  13
ENDBRANCH  12   8
BRANCH  18   1
ATOM      1  S   UNL     1     -10.579   8.868  38.032  0.00  0.00    -0.003 S 
ATOM      3  O   UNL     1     -11.230   9.925  38.794  0.00  0.00    -0.169 OA
ATOM      4  O   UNL     1     -10.209   7.624  38.687  0.00  0.00    -0.169 OA
BRANCH   1  23
ATOM     23  C   UNL     1      -9.109   9.571  37.319  0.00  0.00    +0.168 C 
ATOM     26  C   UNL     1      -8.157   8.498  36.839  0.00  0.00    +0.028 C 
ENDBRANCH   1  23
ENDBRANCH  18   1
TORSDOF 5
ENDMDL
MODEL 8
REMARK VINA RESULT:      -6.2     27.741     30.735
REMARK  Name = 51137141
REMARK  6 active torsions:
REMARK  status: ('A' for Active; 'I' for Inactive)
REMARK    1  A    between atoms: S_1  and  C_18
REMARK    2  A    between atoms: S_1  and  C_23
REMARK    3  A    between atoms: N_5  and  C_13
REMARK    4  A    between atoms: C_8  and  C_12
REMARK    5  A    between atoms: C_13  and  C_14
REMARK    6  A    between atoms: C_23  and  C_26
REMARK                            x       y       z     vdW  Elec       q    Type
REMARK                         _______ _______ _______ _____ _____    ______ ____
ROOT
ATOM      2  O   UNL     1     -12.659   8.525  18.845  0.00  0.00    -0.439 OA
ATOM      6  N   UNL     1     -11.243   7.615  20.363  0.00  0.00    -0.213 NA
ATOM     12  C   UNL     1     -11.385   8.389  19.310  0.00  0.00    +0.201 A 
ATOM     15  C   UNL     1     -12.525   7.198  20.624  0.00  0.00    +0.111 A 
ATOM     16  C   UNL     1     -13.395   7.753  19.697  0.00  0.00    +0.155 A 
ATOM     17  C   UNL     1     -13.043   6.356  21.619  0.00  0.00    +0.058 A 
ATOM     18  C   UNL     1     -14.426   6.116  21.625  0.00  0.00    +0.090 A 
ATOM     19  C   UNL     1     -14.768   7.539  19.671  0.00  0.00    +0.050 A 
ATOM     22  C   UNL     1     -15.268   6.697  20.670  0.00  0.00    +0.030 A 
ENDROOT
BRANCH  12   8
ATOM      5  N   UNL     1      -9.935  11.121  17.346  0.00  0.00    -0.297 NA
ATOM      8  C   UNL     1     -10.321   9.146  18.550  0.00  0.00    +0.090 C 
ATOM      9  C   UNL     1     -10.251   8.828  17.046  0.00  0.00    +0.029 C 
ATOM     10  C   UNL     1     -10.507  10.668  18.616  0.00  0.00    +0.097 C 
ATOM     11  C   UNL     1     -10.428  10.171  16.349  0.00  0.00    +0.085 C 
BRANCH   5  13
ATOM     13  C   UNL     1     -10.302  12.494  17.032  0.00  0.00    +0.119 C 
BRANCH  13  14
ATOM      7  N   UNL     1      -6.878  15.098  16.999  0.00  0.00    -0.263 NA
ATOM     14  C   UNL     1      -9.103  13.406  17.021  0.00  0.00    -0.031 A 
ATOM     20  C   UNL     1      -9.187  14.677  17.579  0.00  0.00    +0.024 A 
ATOM     21  C   UNL     1      -7.908  12.980  16.452  0.00  0.00    +0.024 A 
ATOM     24  C   UNL     1      -8.056  15.476  17.543  0.00  0.00    +0.111 A 
ATOM     25  C   UNL     1      -6.834  13.856  16.467  0.00  0.00    +0.111 A 
ENDBRANCH  13  14
ENDBRANCH   5  13
ENDBRANCH  12   8
BRANCH  18   1
ATOM      1  S   UNL     1     -15.106   5.069  22.850  0.00  0.00    -0.003 S 
ATOM      3  O   UNL     1     -15.828   3.988  22.193  0.00  0.00    -0.169 OA
ATOM      4  O   UNL     1     -14.056   4.762  23.808  0.00  0.00    -0.169 OA
BRANCH   1  23
ATOM     23  C   UNL     1     -16.318   6.081  23.669  0.00  0.00    +0.168 C 
ATOM     26  C   UNL     1     -16.984   5.338  24.806  0.00  0.00    +0.028 C 
ENDBRANCH   1  23
ENDBRANCH  18   1
TORSDOF 5
ENDMDL
MODEL 9
REMARK VINA RESULT:      -6.1     26.728     30.254
REMARK  Name = 51137141
REMARK  6 active torsions:
REMARK  status: ('A' for Active; 'I' for Inactive)
REMARK    1  A    between atoms: S_1  and  C_18
REMARK    2  A    between atoms: S_1  and  C_23
REMARK    3  A    between atoms: N_5  and  C_13
REMARK    4  A    between atoms: C_8  and  C_12
REMARK    5  A    between atoms: C_13  and  C_14
REMARK    6  A    between atoms: C_23  and  C_26
REMARK                            x       y       z     vdW  Elec       q    Type
REMARK                         _______ _______ _______ _____ _____    ______ ____
ROOT
ATOM      2  O   UNL     1     -10.734   8.434  18.765  0.00  0.00    -0.439 OA
ATOM      6  N   UNL     1     -12.700   8.862  17.721  0.00  0.00    -0.213 NA
ATOM     12  C   UNL     1     -11.394   9.007  17.719  0.00  0.00    +0.201 A 
ATOM     15  C   UNL     1     -12.936   8.131  18.860  0.00  0.00    +0.111 A 
ATOM     16  C   UNL     1     -11.735   7.867  19.503  0.00  0.00    +0.155 A 
ATOM     17  C   UNL     1     -14.126   7.649  19.425  0.00  0.00    +0.058 A 
ATOM     18  C   UNL     1     -14.040   6.920  20.620  0.00  0.00    +0.090 A 
ATOM     19  C   UNL     1     -11.611   7.150  20.686  0.00  0.00    +0.050 A 
ATOM     22  C   UNL     1     -12.807   6.677  21.236  0.00  0.00    +0.030 A 
ENDROOT
BRANCH  12   8
ATOM      5  N   UNL     1      -9.659  11.835  16.164  0.00  0.00    -0.297 NA
ATOM      8  C   UNL     1     -10.529   9.727  16.710  0.00  0.00    +0.090 C 
ATOM      9  C   UNL     1     -11.290  10.301  15.501  0.00  0.00    +0.029 C 
ATOM     10  C   UNL     1      -9.787  10.930  17.308  0.00  0.00    +0.097 C 
ATOM     11  C   UNL     1     -10.961  11.788  15.498  0.00  0.00    +0.085 C 
BRANCH   5  13
ATOM     13  C   UNL     1      -9.289  13.185  16.563  0.00  0.00    +0.119 C 
BRANCH  13  14
ATOM      7  N   UNL     1      -5.520  14.379  14.869  0.00  0.00    -0.263 NA
ATOM     14  C   UNL     1      -7.969  13.602  15.971  0.00  0.00    -0.031 A 
ATOM     20  C   UNL     1      -6.866  13.805  16.793  0.00  0.00    +0.024 A 
ATOM     21  C   UNL     1      -7.849  13.788  14.597  0.00  0.00    +0.024 A 
ATOM     24  C   UNL     1      -5.676  14.189  16.198  0.00  0.00    +0.111 A 
ATOM     25  C   UNL     1      -6.613  14.173  14.101  0.00  0.00    +0.111 A 
ENDBRANCH  13  14
ENDBRANCH   5  13
ENDBRANCH  12   8
BRANCH  18   1
ATOM      1  S   UNL     1     -15.504   6.306  21.354  0.00  0.00    -0.003 S 
ATOM      3  O   UNL     1     -16.577   7.263  21.128  0.00  0.00    -0.169 OA
ATOM      4  O   UNL     1     -15.666   4.922  20.937  0.00  0.00    -0.169 OA
BRANCH   1  23
ATOM     23  C   UNL     1     -15.158   6.316  23.099  0.00  0.00    +0.168 C 
ATOM     26  C   UNL     1     -14.979   4.914  23.637  0.00  0.00    +0.028 C 
ENDBRANCH   1  23
ENDBRANCH  18   1
TORSDOF 5
ENDMDL
MODEL 10
REMARK VINA RESULT:      -5.8     27.015     32.082
REMARK  Name = 51137141
REMARK  6 active torsions:
REMARK  status: ('A' for Active; 'I' for Inactive)
REMARK    1  A    between atoms: S_1  and  C_18
REMARK    2  A    between atoms: S_1  and  C_23
REMARK    3  A    between atoms: N_5  and  C_13
REMARK    4  A    between atoms: C_8  and  C_12
REMARK    5  A    between atoms: C_13  and  C_14
REMARK    6  A    between atoms: C_23  and  C_26
REMARK                            x       y       z     vdW  Elec       q    Type
REMARK                         _______ _______ _______ _____ _____    ______ ____
ROOT
ATOM      2  O   UNL     1      -7.851  -9.600  13.723  0.00  0.00    -0.439 OA
ATOM      6  N   UNL     1      -6.835 -10.093  15.689  0.00  0.00    -0.213 NA
ATOM     12  C   UNL     1      -7.940  -9.727  15.077  0.00  0.00    +0.201 A 
ATOM     15  C   UNL     1      -5.933 -10.223  14.661  0.00  0.00    +0.111 A 
ATOM     16  C   UNL     1      -6.551  -9.922  13.456  0.00  0.00    +0.155 A 
ATOM     17  C   UNL     1      -4.579 -10.588  14.654  0.00  0.00    +0.058 A 
ATOM     18  C   UNL     1      -3.914 -10.631  13.420  0.00  0.00    +0.090 A 
ATOM     19  C   UNL     1      -5.926  -9.953  12.216  0.00  0.00    +0.050 A 
ATOM     22  C   UNL     1      -4.576 -10.319  12.227  0.00  0.00    +0.030 A 
ENDROOT
BRANCH  12   8
ATOM      5  N   UNL     1     -10.716  -7.668  16.293  0.00  0.00    -0.297 NA
ATOM      8  C   UNL     1      -9.293  -9.428  15.680  0.00  0.00    +0.090 C 
ATOM      9  C   UNL     1      -9.298  -9.279  17.212  0.00  0.00    +0.029 C 
ATOM     10  C   UNL     1      -9.904  -8.119  15.161  0.00  0.00    +0.097 C 
ATOM     11  C   UNL     1      -9.881  -7.896  17.472  0.00  0.00    +0.085 C 
BRANCH   5  13
ATOM     13  C   UNL     1     -11.124  -6.277  16.163  0.00  0.00    +0.119 C 
BRANCH  13  14
ATOM      7  N   UNL     1     -14.796  -5.884  13.958  0.00  0.00    -0.263 NA
ATOM     14  C   UNL     1     -12.410  -6.139  15.392  0.00  0.00    -0.031 A 
ATOM     20  C   UNL     1     -13.561  -6.784  15.830  0.00  0.00    +0.024 A 
ATOM     21  C   UNL     1     -12.451  -5.366  14.236  0.00  0.00    +0.024 A 
ATOM     24  C   UNL     1     -14.717  -6.626  15.085  0.00  0.00    +0.111 A 
ATOM     25  C   UNL     1     -13.659  -5.270  13.562  0.00  0.00    +0.111 A 
ENDBRANCH  13  14
ENDBRANCH   5  13
ENDBRANCH  12   8
BRANCH  18   1
ATOM      1  S   UNL     1      -2.224 -11.080  13.375  0.00  0.00    -0.003 S 
ATOM      3  O   UNL     1      -2.102 -12.379  12.729  0.00  0.00    -0.169 OA
ATOM      4  O   UNL     1      -1.474  -9.944  12.864  0.00  0.00    -0.169 OA
BRANCH   1  23
ATOM     23  C   UNL     1      -1.784 -11.305  15.083  0.00  0.00    +0.168 C 
ATOM     26  C   UNL     1      -1.068 -10.093  15.636  0.00  0.00    +0.028 C 
ENDBRANCH   1  23
ENDBRANCH  18   1
TORSDOF 5
ENDMDL
