MODEL 1
REMARK VINA RESULT:      -5.8      0.000      0.000
REMARK  Name = 75536509
REMARK  7 active torsions:
REMARK  status: ('A' for Active; 'I' for Inactive)
REMARK    1  A    between atoms: O_2  and  C_9
REMARK    2  A    between atoms: N_4  and  C_8
REMARK    3  A    between atoms: N_4  and  C_13
REMARK    4  A    between atoms: N_5  and  C_12
REMARK    5  A    between atoms: C_10  and  C_12
REMARK    6  A    between atoms: C_13  and  C_14
REMARK    7  A    between atoms: C_15  and  C_17
REMARK                            x       y       z     vdW  Elec       q    Type
REMARK                         _______ _______ _______ _____ _____    ______ ____
ROOT
ATOM      1  O   UNL     1      13.760   9.309  22.343  0.00  0.00    -0.371 OA
ATOM      8  C   UNL     1      12.560   7.524  21.338  0.00  0.00    +0.111 C 
ATOM      9  C   UNL     1      14.002   7.478  20.866  0.00  0.00    +0.164 C 
ATOM     10  C   UNL     1      14.692   8.286  21.956  0.00  0.00    +0.165 C 
ATOM     11  C   UNL     1      12.457   8.949  21.853  0.00  0.00    +0.181 C 
ENDROOT
BRANCH   9   2
ATOM      2  O   UNL     1      14.508   6.160  20.785  0.00  0.00    -0.388 OA
ATOM     20  H   UNL     1      15.283   6.094  21.368  0.00  0.00    +0.210 HD
ENDBRANCH   9   2
BRANCH   8   4
ATOM      4  N   UNL     1      11.594   7.228  20.291  0.00  0.00    -0.304 NA
ATOM     19  H   UNL     1      10.849   6.650  20.680  0.00  0.00    +0.123 HD
BRANCH   4  13
ATOM     13  C   UNL     1      11.013   8.452  19.753  0.00  0.00    +0.136 C 
BRANCH  13  14
ATOM      6  N   UNL     1      10.252   8.545  17.350  0.00  0.00    -0.347 N 
ATOM      7  N   UNL     1      12.126   8.827  16.193  0.00  0.00    -0.244 NA
ATOM     14  C   UNL     1      11.259   8.585  18.272  0.00  0.00    +0.049 A 
ATOM     16  C   UNL     1      12.405   8.760  17.535  0.00  0.00    +0.134 A 
ATOM     18  C   UNL     1      10.821   8.695  16.116  0.00  0.00    +0.196 A 
ATOM     22  H   UNL     1       9.265   8.426  17.541  0.00  0.00    +0.167 HD
ENDBRANCH  13  14
ENDBRANCH   4  13
ENDBRANCH   8   4
BRANCH  10  12
ATOM     12  C   UNL     1      15.993   8.923  21.500  0.00  0.00    +0.138 C 
BRANCH  12   5
ATOM      3  O   UNL     1      17.323   6.953  19.834  0.00  0.00    -0.276 OA
ATOM      5  N   UNL     1      17.122   8.109  21.846  0.00  0.00    -0.313 N 
ATOM     15  C   UNL     1      17.698   7.186  20.980  0.00  0.00    +0.210 C 
ATOM     17  C   UNL     1      18.884   6.485  21.587  0.00  0.00    +0.109 C 
ATOM     21  H   UNL     1      17.514   8.217  22.777  0.00  0.00    +0.149 HD
ENDBRANCH  12   5
ENDBRANCH  10  12
TORSDOF 6
ENDMDL
MODEL 2
REMARK VINA RESULT:      -5.7      3.796      6.141
REMARK  Name = 75536509
REMARK  7 active torsions:
REMARK  status: ('A' for Active; 'I' for Inactive)
REMARK    1  A    between atoms: O_2  and  C_9
REMARK    2  A    between atoms: N_4  and  C_8
REMARK    3  A    between atoms: N_4  and  C_13
REMARK    4  A    between atoms: N_5  and  C_12
REMARK    5  A    between atoms: C_10  and  C_12
REMARK    6  A    between atoms: C_13  and  C_14
REMARK    7  A    between atoms: C_15  and  C_17
REMARK                            x       y       z     vdW  Elec       q    Type
REMARK                         _______ _______ _______ _____ _____    ______ ____
ROOT
ATOM      1  O   UNL     1      13.497   8.354  21.247  0.00  0.00    -0.371 OA
ATOM      8  C   UNL     1      11.469   8.913  22.348  0.00  0.00    +0.111 C 
ATOM      9  C   UNL     1      11.147   8.149  21.077  0.00  0.00    +0.164 C 
ATOM     10  C   UNL     1      12.471   7.444  20.816  0.00  0.00    +0.165 C 
ATOM     11  C   UNL     1      12.894   9.363  22.077  0.00  0.00    +0.181 C 
ENDROOT
BRANCH   9   2
ATOM      2  O   UNL     1      10.084   7.230  21.246  0.00  0.00    -0.388 OA
ATOM     20  H   UNL     1       9.257   7.733  21.327  0.00  0.00    +0.210 HD
ENDBRANCH   9   2
BRANCH   8   4
ATOM      4  N   UNL     1      10.564  10.023  22.606  0.00  0.00    -0.304 NA
ATOM     19  H   UNL     1      10.313  10.024  23.595  0.00  0.00    +0.123 HD
BRANCH   4  13
ATOM     13  C   UNL     1      11.190  11.297  22.275  0.00  0.00    +0.136 C 
BRANCH  13  14
ATOM      6  N   UNL     1      10.125  12.386  24.285  0.00  0.00    -0.347 N 
ATOM      7  N   UNL     1      11.686  13.767  25.050  0.00  0.00    -0.244 NA
ATOM     14  C   UNL     1      11.195  12.241  23.449  0.00  0.00    +0.049 A 
ATOM     16  C   UNL     1      12.145  13.103  23.941  0.00  0.00    +0.134 A 
ATOM     18  C   UNL     1      10.466  13.312  25.231  0.00  0.00    +0.196 A 
ATOM     22  H   UNL     1       9.240  11.898  24.220  0.00  0.00    +0.167 HD
ENDBRANCH  13  14
ENDBRANCH   4  13
ENDBRANCH   8   4
BRANCH  10  12
ATOM     12  C   UNL     1      12.684   7.086  19.356  0.00  0.00    +0.138 C 
BRANCH  12   5
ATOM      3  O   UNL     1      12.988   8.178  16.684  0.00  0.00    -0.276 OA
ATOM      5  N   UNL     1      11.662   7.653  18.525  0.00  0.00    -0.313 N 
ATOM     15  C   UNL     1      11.899   8.155  17.251  0.00  0.00    +0.210 C 
ATOM     17  C   UNL     1      10.648   8.668  16.589  0.00  0.00    +0.109 C 
ATOM     21  H   UNL     1      10.718   7.688  18.898  0.00  0.00    +0.149 HD
ENDBRANCH  12   5
ENDBRANCH  10  12
TORSDOF 6
ENDMDL
MODEL 3
REMARK VINA RESULT:      -5.6      2.845      4.500
REMARK  Name = 75536509
REMARK  7 active torsions:
REMARK  status: ('A' for Active; 'I' for Inactive)
REMARK    1  A    between atoms: O_2  and  C_9
REMARK    2  A    between atoms: N_4  and  C_8
REMARK    3  A    between atoms: N_4  and  C_13
REMARK    4  A    between atoms: N_5  and  C_12
REMARK    5  A    between atoms: C_10  and  C_12
REMARK    6  A    between atoms: C_13  and  C_14
REMARK    7  A    between atoms: C_15  and  C_17
REMARK                            x       y       z     vdW  Elec       q    Type
REMARK                         _______ _______ _______ _____ _____    ______ ____
ROOT
ATOM      1  O   UNL     1      16.629   5.916  19.089  0.00  0.00    -0.371 OA
ATOM      8  C   UNL     1      15.970   7.231  20.954  0.00  0.00    +0.111 C 
ATOM      9  C   UNL     1      17.326   6.611  21.240  0.00  0.00    +0.164 C 
ATOM     10  C   UNL     1      17.803   6.287  19.831  0.00  0.00    +0.165 C 
ATOM     11  C   UNL     1      15.469   6.352  19.821  0.00  0.00    +0.181 C 
ENDROOT
BRANCH   9   2
ATOM      2  O   UNL     1      18.204   7.499  21.904  0.00  0.00    -0.388 OA
ATOM     20  H   UNL     1      17.787   8.376  21.932  0.00  0.00    +0.210 HD
ENDBRANCH   9   2
BRANCH   8   4
ATOM      4  N   UNL     1      15.078   7.239  22.102  0.00  0.00    -0.304 NA
ATOM     19  H   UNL     1      15.636   7.239  22.957  0.00  0.00    +0.123 HD
BRANCH   4  13
ATOM     13  C   UNL     1      14.222   8.419  22.094  0.00  0.00    +0.136 C 
BRANCH  13  14
ATOM      6  N   UNL     1      11.757   8.518  22.620  0.00  0.00    -0.347 N 
ATOM      7  N   UNL     1      10.812   7.263  21.052  0.00  0.00    -0.244 NA
ATOM     14  C   UNL     1      12.781   8.064  21.837  0.00  0.00    +0.049 A 
ATOM     16  C   UNL     1      12.173   7.292  20.877  0.00  0.00    +0.134 A 
ATOM     18  C   UNL     1      10.594   8.011  22.110  0.00  0.00    +0.196 A 
ATOM     22  H   UNL     1      11.840   9.120  23.430  0.00  0.00    +0.167 HD
ENDBRANCH  13  14
ENDBRANCH   4  13
ENDBRANCH   8   4
BRANCH  10  12
ATOM     12  C   UNL     1      18.816   5.158  19.784  0.00  0.00    +0.138 C 
BRANCH  12   5
ATOM      3  O   UNL     1      21.053   3.607  20.796  0.00  0.00    -0.276 OA
ATOM      5  N   UNL     1      20.136   5.629  20.088  0.00  0.00    -0.313 N 
ATOM     15  C   UNL     1      21.151   4.811  20.571  0.00  0.00    +0.210 C 
ATOM     17  C   UNL     1      22.443   5.555  20.782  0.00  0.00    +0.109 C 
ATOM     21  H   UNL     1      20.331   6.615  19.942  0.00  0.00    +0.149 HD
ENDBRANCH  12   5
ENDBRANCH  10  12
TORSDOF 6
ENDMDL
MODEL 4
REMARK VINA RESULT:      -5.6      2.959      4.376
REMARK  Name = 75536509
REMARK  7 active torsions:
REMARK  status: ('A' for Active; 'I' for Inactive)
REMARK    1  A    between atoms: O_2  and  C_9
REMARK    2  A    between atoms: N_4  and  C_8
REMARK    3  A    between atoms: N_4  and  C_13
REMARK    4  A    between atoms: N_5  and  C_12
REMARK    5  A    between atoms: C_10  and  C_12
REMARK    6  A    between atoms: C_13  and  C_14
REMARK    7  A    between atoms: C_15  and  C_17
REMARK                            x       y       z     vdW  Elec       q    Type
REMARK                         _______ _______ _______ _____ _____    ______ ____
ROOT
ATOM      1  O   UNL     1      13.236   6.582  20.736  0.00  0.00    -0.371 OA
ATOM      8  C   UNL     1      11.089   7.589  20.863  0.00  0.00    +0.111 C 
ATOM      9  C   UNL     1      11.834   8.162  19.671  0.00  0.00    +0.164 C 
ATOM     10  C   UNL     1      12.883   7.084  19.436  0.00  0.00    +0.165 C 
ATOM     11  C   UNL     1      12.229   6.997  21.675  0.00  0.00    +0.181 C 
ENDROOT
BRANCH   9   2
ATOM      2  O   UNL     1      11.001   8.344  18.543  0.00  0.00    -0.388 OA
ATOM     20  H   UNL     1      10.200   8.814  18.827  0.00  0.00    +0.210 HD
ENDBRANCH   9   2
BRANCH   8   4
ATOM      4  N   UNL     1      10.321   8.578  21.602  0.00  0.00    -0.304 NA
ATOM     19  H   UNL     1       9.409   8.185  21.835  0.00  0.00    +0.123 HD
BRANCH   4  13
ATOM     13  C   UNL     1      11.002   8.958  22.834  0.00  0.00    +0.136 C 
BRANCH  13  14
ATOM      6  N   UNL     1      10.995  11.343  22.013  0.00  0.00    -0.347 N 
ATOM      7  N   UNL     1      10.955  12.560  23.869  0.00  0.00    -0.244 NA
ATOM     14  C   UNL     1      10.986  10.449  23.046  0.00  0.00    +0.049 A 
ATOM     16  C   UNL     1      10.962  11.224  24.181  0.00  0.00    +0.134 A 
ATOM     18  C   UNL     1      10.976  12.598  22.556  0.00  0.00    +0.196 A 
ATOM     22  H   UNL     1      11.012  11.121  21.026  0.00  0.00    +0.167 HD
ENDBRANCH  13  14
ENDBRANCH   4  13
ENDBRANCH   8   4
BRANCH  10  12
ATOM     12  C   UNL     1      14.125   7.597  18.730  0.00  0.00    +0.138 C 
BRANCH  12   5
ATOM      3  O   UNL     1      16.362   5.751  18.630  0.00  0.00    -0.276 OA
ATOM      5  N   UNL     1      15.268   7.566  19.595  0.00  0.00    -0.313 N 
ATOM     15  C   UNL     1      16.298   6.641  19.474  0.00  0.00    +0.210 C 
ATOM     17  C   UNL     1      17.385   6.848  20.494  0.00  0.00    +0.109 C 
ATOM     21  H   UNL     1      15.318   8.260  20.336  0.00  0.00    +0.149 HD
ENDBRANCH  12   5
ENDBRANCH  10  12
TORSDOF 6
ENDMDL
MODEL 5
REMARK VINA RESULT:      -5.4      3.047      5.154
REMARK  Name = 75536509
REMARK  7 active torsions:
REMARK  status: ('A' for Active; 'I' for Inactive)
REMARK    1  A    between atoms: O_2  and  C_9
REMARK    2  A    between atoms: N_4  and  C_8
REMARK    3  A    between atoms: N_4  and  C_13
REMARK    4  A    between atoms: N_5  and  C_12
REMARK    5  A    between atoms: C_10  and  C_12
REMARK    6  A    between atoms: C_13  and  C_14
REMARK    7  A    between atoms: C_15  and  C_17
REMARK                            x       y       z     vdW  Elec       q    Type
REMARK                         _______ _______ _______ _____ _____    ______ ____
ROOT
ATOM      1  O   UNL     1      14.866   7.979  19.886  0.00  0.00    -0.371 OA
ATOM      8  C   UNL     1      12.981   7.384  21.202  0.00  0.00    +0.111 C 
ATOM      9  C   UNL     1      12.675   7.100  19.743  0.00  0.00    +0.164 C 
ATOM     10  C   UNL     1      14.079   7.021  19.159  0.00  0.00    +0.165 C 
ATOM     11  C   UNL     1      14.155   8.341  21.083  0.00  0.00    +0.181 C 
ENDROOT
BRANCH   9   2
ATOM      2  O   UNL     1      11.958   5.895  19.560  0.00  0.00    -0.388 OA
ATOM     20  H   UNL     1      12.006   5.651  18.620  0.00  0.00    +0.210 HD
ENDBRANCH   9   2
BRANCH   8   4
ATOM      4  N   UNL     1      11.859   7.952  21.934  0.00  0.00    -0.304 NA
ATOM     19  H   UNL     1      12.148   8.133  22.896  0.00  0.00    +0.123 HD
BRANCH   4  13
ATOM     13  C   UNL     1      11.417   9.202  21.328  0.00  0.00    +0.136 C 
BRANCH  13  14
ATOM      6  N   UNL     1      11.182  10.048  23.693  0.00  0.00    -0.347 N 
ATOM      7  N   UNL     1      11.031  12.252  23.473  0.00  0.00    -0.244 NA
ATOM     14  C   UNL     1      11.260  10.296  22.352  0.00  0.00    +0.049 A 
ATOM     16  C   UNL     1      11.165  11.663  22.241  0.00  0.00    +0.134 A 
ATOM     18  C   UNL     1      11.045  11.252  24.325  0.00  0.00    +0.196 A 
ATOM     22  H   UNL     1      11.219   9.140  24.140  0.00  0.00    +0.167 HD
ENDBRANCH  13  14
ENDBRANCH   4  13
ENDBRANCH   8   4
BRANCH  10  12
ATOM     12  C   UNL     1      14.131   7.335  17.675  0.00  0.00    +0.138 C 
BRANCH  12   5
ATOM      3  O   UNL     1      13.423   8.744  15.238  0.00  0.00    -0.276 OA
ATOM      5  N   UNL     1      14.178   8.749  17.441  0.00  0.00    -0.313 N 
ATOM     15  C   UNL     1      13.818   9.341  16.236  0.00  0.00    +0.210 C 
ATOM     17  C   UNL     1      13.938  10.841  16.269  0.00  0.00    +0.109 C 
ATOM     21  H   UNL     1      14.495   9.342  18.203  0.00  0.00    +0.149 HD
ENDBRANCH  12   5
ENDBRANCH  10  12
TORSDOF 6
ENDMDL
MODEL 6
REMARK VINA RESULT:      -5.3      3.237      4.470
REMARK  Name = 75536509
REMARK  7 active torsions:
REMARK  status: ('A' for Active; 'I' for Inactive)
REMARK    1  A    between atoms: O_2  and  C_9
REMARK    2  A    between atoms: N_4  and  C_8
REMARK    3  A    between atoms: N_4  and  C_13
REMARK    4  A    between atoms: N_5  and  C_12
REMARK    5  A    between atoms: C_10  and  C_12
REMARK    6  A    between atoms: C_13  and  C_14
REMARK    7  A    between atoms: C_15  and  C_17
REMARK                            x       y       z     vdW  Elec       q    Type
REMARK                         _______ _______ _______ _____ _____    ______ ____
ROOT
ATOM      1  O   UNL     1      10.502   8.369  19.939  0.00  0.00    -0.371 OA
ATOM      8  C   UNL     1      12.503   7.467  19.031  0.00  0.00    +0.111 C 
ATOM      9  C   UNL     1      12.615   7.495  20.545  0.00  0.00    +0.164 C 
ATOM     10  C   UNL     1      11.149   7.572  20.946  0.00  0.00    +0.165 C 
ATOM     11  C   UNL     1      11.370   8.451  18.795  0.00  0.00    +0.181 C 
ENDROOT
BRANCH   9   2
ATOM      2  O   UNL     1      13.246   6.343  21.067  0.00  0.00    -0.388 OA
ATOM     20  H   UNL     1      13.491   5.765  20.325  0.00  0.00    +0.210 HD
ENDBRANCH   9   2
BRANCH   8   4
ATOM      4  N   UNL     1      13.731   7.841  18.348  0.00  0.00    -0.304 NA
ATOM     19  H   UNL     1      13.672   7.544  17.373  0.00  0.00    +0.123 HD
BRANCH   4  13
ATOM     13  C   UNL     1      13.937   9.284  18.392  0.00  0.00    +0.136 C 
BRANCH  13  14
ATOM      6  N   UNL     1      14.977  10.815  16.679  0.00  0.00    -0.347 N 
ATOM      7  N   UNL     1      13.796  10.455  14.834  0.00  0.00    -0.244 NA
ATOM     14  C   UNL     1      14.041   9.877  17.011  0.00  0.00    +0.049 A 
ATOM     16  C   UNL     1      13.325   9.671  15.856  0.00  0.00    +0.134 A 
ATOM     18  C   UNL     1      14.791  11.132  15.362  0.00  0.00    +0.196 A 
ATOM     22  H   UNL     1      15.680  11.207  17.293  0.00  0.00    +0.167 HD
ENDBRANCH  13  14
ENDBRANCH   4  13
ENDBRANCH   8   4
BRANCH  10  12
ATOM     12  C   UNL     1      10.931   8.197  22.312  0.00  0.00    +0.138 C 
BRANCH  12   5
ATOM      3  O   UNL     1      11.071  11.091  22.128  0.00  0.00    -0.276 OA
ATOM      5  N   UNL     1      12.030   9.042  22.681  0.00  0.00    -0.313 N 
ATOM     15  C   UNL     1      12.010  10.426  22.558  0.00  0.00    +0.210 C 
ATOM     17  C   UNL     1      13.284  11.069  23.039  0.00  0.00    +0.109 C 
ATOM     21  H   UNL     1      12.865   8.595  23.048  0.00  0.00    +0.149 HD
ENDBRANCH  12   5
ENDBRANCH  10  12
TORSDOF 6
ENDMDL
MODEL 7
REMARK VINA RESULT:      -5.3     13.382     16.610
REMARK  Name = 75536509
REMARK  7 active torsions:
REMARK  status: ('A' for Active; 'I' for Inactive)
REMARK    1  A    between atoms: O_2  and  C_9
REMARK    2  A    between atoms: N_4  and  C_8
REMARK    3  A    between atoms: N_4  and  C_13
REMARK    4  A    between atoms: N_5  and  C_12
REMARK    5  A    between atoms: C_10  and  C_12
REMARK    6  A    between atoms: C_13  and  C_14
REMARK    7  A    between atoms: C_15  and  C_17
REMARK                            x       y       z     vdW  Elec       q    Type
REMARK                         _______ _______ _______ _____ _____    ______ ____
ROOT
ATOM      1  O   UNL     1       8.893   6.881   4.754  0.00  0.00    -0.371 OA
ATOM      8  C   UNL     1      10.188   4.995   4.118  0.00  0.00    +0.111 C 
ATOM      9  C   UNL     1      10.235   5.142   5.628  0.00  0.00    +0.164 C 
ATOM     10  C   UNL     1       8.998   5.993   5.879  0.00  0.00    +0.165 C 
ATOM     11  C   UNL     1       9.728   6.380   3.695  0.00  0.00    +0.181 C 
ENDROOT
BRANCH   9   2
ATOM      2  O   UNL     1      10.167   3.899   6.300  0.00  0.00    -0.388 OA
ATOM     20  H   UNL     1      11.007   3.758   6.767  0.00  0.00    +0.210 HD
ENDBRANCH   9   2
BRANCH   8   4
ATOM      4  N   UNL     1      11.463   4.617   3.528  0.00  0.00    -0.304 NA
ATOM     19  H   UNL     1      11.947   3.981   4.162  0.00  0.00    +0.123 HD
BRANCH   4  13
ATOM     13  C   UNL     1      11.271   3.953   2.245  0.00  0.00    +0.136 C 
BRANCH  13  14
ATOM      6  N   UNL     1      13.786   3.873   2.088  0.00  0.00    -0.347 N 
ATOM      7  N   UNL     1      14.191   3.578  -0.075  0.00  0.00    -0.244 NA
ATOM     14  C   UNL     1      12.563   3.822   1.482  0.00  0.00    +0.049 A 
ATOM     16  C   UNL     1      12.838   3.640   0.148  0.00  0.00    +0.134 A 
ATOM     18  C   UNL     1      14.733   3.722   1.113  0.00  0.00    +0.196 A 
ATOM     22  H   UNL     1      13.964   3.999   3.077  0.00  0.00    +0.167 HD
ENDBRANCH  13  14
ENDBRANCH   4  13
ENDBRANCH   8   4
BRANCH  10  12
ATOM     12  C   UNL     1       9.073   6.799   7.163  0.00  0.00    +0.138 C 
BRANCH  12   5
ATOM      3  O   UNL     1      10.891   5.454   8.984  0.00  0.00    -0.276 OA
ATOM      5  N   UNL     1       8.731   5.998   8.302  0.00  0.00    -0.313 N 
ATOM     15  C   UNL     1       9.673   5.388   9.123  0.00  0.00    +0.210 C 
ATOM     17  C   UNL     1       9.044   4.628  10.260  0.00  0.00    +0.109 C 
ATOM     21  H   UNL     1       7.745   5.873   8.511  0.00  0.00    +0.149 HD
ENDBRANCH  12   5
ENDBRANCH  10  12
TORSDOF 6
ENDMDL
MODEL 8
REMARK VINA RESULT:      -5.2     25.673     27.043
REMARK  Name = 75536509
REMARK  7 active torsions:
REMARK  status: ('A' for Active; 'I' for Inactive)
REMARK    1  A    between atoms: O_2  and  C_9
REMARK    2  A    between atoms: N_4  and  C_8
REMARK    3  A    between atoms: N_4  and  C_13
REMARK    4  A    between atoms: N_5  and  C_12
REMARK    5  A    between atoms: C_10  and  C_12
REMARK    6  A    between atoms: C_13  and  C_14
REMARK    7  A    between atoms: C_15  and  C_17
REMARK                            x       y       z     vdW  Elec       q    Type
REMARK                         _______ _______ _______ _____ _____    ______ ____
ROOT
ATOM      1  O   UNL     1      -3.961 -10.361  14.081  0.00  0.00    -0.371 OA
ATOM      8  C   UNL     1      -3.261 -10.904  16.284  0.00  0.00    +0.111 C 
ATOM      9  C   UNL     1      -2.223 -11.407  15.297  0.00  0.00    +0.164 C 
ATOM     10  C   UNL     1      -2.536 -10.548  14.080  0.00  0.00    +0.165 C 
ATOM     11  C   UNL     1      -4.467 -10.711  15.381  0.00  0.00    +0.181 C 
ENDROOT
BRANCH   9   2
ATOM      2  O   UNL     1      -0.898 -11.216  15.752  0.00  0.00    -0.388 OA
ATOM     20  H   UNL     1      -0.830 -11.572  16.654  0.00  0.00    +0.210 HD
ENDBRANCH   9   2
BRANCH   8   4
ATOM      4  N   UNL     1      -3.516 -11.823  17.382  0.00  0.00    -0.304 NA
ATOM     19  H   UNL     1      -3.513 -11.301  18.259  0.00  0.00    +0.123 HD
BRANCH   4  13
ATOM     13  C   UNL     1      -4.807 -12.481  17.226  0.00  0.00    +0.136 C 
BRANCH  13  14
ATOM      6  N   UNL     1      -6.799 -12.977  18.692  0.00  0.00    -0.347 N 
ATOM      7  N   UNL     1      -6.802 -11.334  20.184  0.00  0.00    -0.244 NA
ATOM     14  C   UNL     1      -5.730 -12.186  18.380  0.00  0.00    +0.049 A 
ATOM     16  C   UNL     1      -5.752 -11.179  19.315  0.00  0.00    +0.134 A 
ATOM     18  C   UNL     1      -7.413 -12.425  19.782  0.00  0.00    +0.196 A 
ATOM     22  H   UNL     1      -7.087 -13.817  18.207  0.00  0.00    +0.167 HD
ENDBRANCH  13  14
ENDBRANCH   4  13
ENDBRANCH   8   4
BRANCH  10  12
ATOM     12  C   UNL     1      -2.104 -11.182  12.770  0.00  0.00    +0.138 C 
BRANCH  12   5
ATOM      3  O   UNL     1      -1.516  -9.085  10.850  0.00  0.00    -0.276 OA
ATOM      5  N   UNL     1      -2.926 -10.742  11.680  0.00  0.00    -0.313 N 
ATOM     15  C   UNL     1      -2.563  -9.725  10.806  0.00  0.00    +0.210 C 
ATOM     17  C   UNL     1      -3.598  -9.481   9.740  0.00  0.00    +0.109 C 
ATOM     21  H   UNL     1      -3.822 -11.203  11.551  0.00  0.00    +0.149 HD
ENDBRANCH  12   5
ENDBRANCH  10  12
TORSDOF 6
ENDMDL
MODEL 9
REMARK VINA RESULT:      -5.1     26.126     28.110
REMARK  Name = 75536509
REMARK  7 active torsions:
REMARK  status: ('A' for Active; 'I' for Inactive)
REMARK    1  A    between atoms: O_2  and  C_9
REMARK    2  A    between atoms: N_4  and  C_8
REMARK    3  A    between atoms: N_4  and  C_13
REMARK    4  A    between atoms: N_5  and  C_12
REMARK    5  A    between atoms: C_10  and  C_12
REMARK    6  A    between atoms: C_13  and  C_14
REMARK    7  A    between atoms: C_15  and  C_17
REMARK                            x       y       z     vdW  Elec       q    Type
REMARK                         _______ _______ _______ _____ _____    ______ ____
ROOT
ATOM      1  O   UNL     1      -7.674 -12.877  18.464  0.00  0.00    -0.371 OA
ATOM      8  C   UNL     1      -5.629 -11.699  18.726  0.00  0.00    +0.111 C 
ATOM      9  C   UNL     1      -6.778 -10.786  19.112  0.00  0.00    +0.164 C 
ATOM     10  C   UNL     1      -7.876 -11.802  19.397  0.00  0.00    +0.165 C 
ATOM     11  C   UNL     1      -6.349 -12.765  17.917  0.00  0.00    +0.181 C 
ENDROOT
BRANCH   9   2
ATOM      2  O   UNL     1      -6.488  -9.991  20.245  0.00  0.00    -0.388 OA
ATOM     20  H   UNL     1      -5.539  -9.782  20.236  0.00  0.00    +0.210 HD
ENDBRANCH   9   2
BRANCH   8   4
ATOM      4  N   UNL     1      -4.579 -11.030  17.974  0.00  0.00    -0.304 NA
ATOM     19  H   UNL     1      -3.740 -10.976  18.552  0.00  0.00    +0.123 HD
BRANCH   4  13
ATOM     13  C   UNL     1      -4.267 -11.756  16.749  0.00  0.00    +0.136 C 
BRANCH  13  14
ATOM      6  N   UNL     1      -1.850 -11.043  16.642  0.00  0.00    -0.347 N 
ATOM      7  N   UNL     1      -1.604 -10.253  14.582  0.00  0.00    -0.244 NA
ATOM     14  C   UNL     1      -3.070 -11.174  16.043  0.00  0.00    +0.049 A 
ATOM     16  C   UNL     1      -2.893 -10.680  14.772  0.00  0.00    +0.134 A 
ATOM     18  C   UNL     1      -1.001 -10.485  15.726  0.00  0.00    +0.196 A 
ATOM     22  H   UNL     1      -1.613 -11.309  17.590  0.00  0.00    +0.167 HD
ENDBRANCH  13  14
ENDBRANCH   4  13
ENDBRANCH   8   4
BRANCH  10  12
ATOM     12  C   UNL     1      -9.275 -11.237  19.232  0.00  0.00    +0.138 C 
BRANCH  12   5
ATOM      3  O   UNL     1     -10.540 -10.201  16.833  0.00  0.00    -0.276 OA
ATOM      5  N   UNL     1      -9.240  -9.890  18.741  0.00  0.00    -0.313 N 
ATOM     15  C   UNL     1      -9.878  -9.480  17.576  0.00  0.00    +0.210 C 
ATOM     17  C   UNL     1      -9.700  -8.010  17.304  0.00  0.00    +0.109 C 
ATOM     21  H   UNL     1      -8.715  -9.206  19.278  0.00  0.00    +0.149 HD
ENDBRANCH  12   5
ENDBRANCH  10  12
TORSDOF 6
ENDMDL
MODEL 10
REMARK VINA RESULT:      -5.0      3.094      5.576
REMARK  Name = 75536509
REMARK  7 active torsions:
REMARK  status: ('A' for Active; 'I' for Inactive)
REMARK    1  A    between atoms: O_2  and  C_9
REMARK    2  A    between atoms: N_4  and  C_8
REMARK    3  A    between atoms: N_4  and  C_13
REMARK    4  A    between atoms: N_5  and  C_12
REMARK    5  A    between atoms: C_10  and  C_12
REMARK    6  A    between atoms: C_13  and  C_14
REMARK    7  A    between atoms: C_15  and  C_17
REMARK                            x       y       z     vdW  Elec       q    Type
REMARK                         _______ _______ _______ _____ _____    ______ ____
ROOT
ATOM      1  O   UNL     1      13.377   7.490  17.370  0.00  0.00    -0.371 OA
ATOM      8  C   UNL     1      12.620   7.420  19.620  0.00  0.00    +0.111 C 
ATOM      9  C   UNL     1      11.837   8.480  18.867  0.00  0.00    +0.164 C 
ATOM     10  C   UNL     1      12.048   8.032  17.427  0.00  0.00    +0.165 C 
ATOM     11  C   UNL     1      13.825   7.235  18.713  0.00  0.00    +0.181 C 
ENDROOT
BRANCH   9   2
ATOM      2  O   UNL     1      10.467   8.501  19.219  0.00  0.00    -0.388 OA
ATOM     20  H   UNL     1      10.329   7.867  19.942  0.00  0.00    +0.210 HD
ENDBRANCH   9   2
BRANCH   8   4
ATOM      4  N   UNL     1      12.984   7.814  20.972  0.00  0.00    -0.304 NA
ATOM     19  H   UNL     1      13.766   7.239  21.286  0.00  0.00    +0.123 HD
BRANCH   4  13
ATOM     13  C   UNL     1      13.376   9.217  21.022  0.00  0.00    +0.136 C 
BRANCH  13  14
ATOM      6  N   UNL     1      11.867   9.595  23.007  0.00  0.00    -0.347 N 
ATOM      7  N   UNL     1      11.033  11.626  22.681  0.00  0.00    -0.244 NA
ATOM     14  C   UNL     1      12.412  10.040  21.837  0.00  0.00    +0.049 A 
ATOM     16  C   UNL     1      11.883  11.295  21.657  0.00  0.00    +0.134 A 
ATOM     18  C   UNL     1      11.046  10.582  23.478  0.00  0.00    +0.196 A 
ATOM     22  H   UNL     1      12.037   8.700  23.449  0.00  0.00    +0.167 HD
ENDBRANCH  13  14
ENDBRANCH   4  13
ENDBRANCH   8   4
BRANCH  10  12
ATOM     12  C   UNL     1      11.911   9.160  16.421  0.00  0.00    +0.138 C 
BRANCH  12   5
ATOM      3  O   UNL     1      14.260   9.971  14.919  0.00  0.00    -0.276 OA
ATOM      5  N   UNL     1      12.807  10.239  16.720  0.00  0.00    -0.313 N 
ATOM     15  C   UNL     1      13.913  10.558  15.942  0.00  0.00    +0.210 C 
ATOM     17  C   UNL     1      14.669  11.749  16.468  0.00  0.00    +0.109 C 
ATOM     21  H   UNL     1      12.616  10.793  17.550  0.00  0.00    +0.149 HD
ENDBRANCH  12   5
ENDBRANCH  10  12
TORSDOF 6
ENDMDL
