MODEL 1
REMARK VINA RESULT:      -7.2      0.000      0.000
REMARK  Name = 51137522
REMARK  7 active torsions:
REMARK  status: ('A' for Active; 'I' for Inactive)
REMARK    1  A    between atoms: N_3  and  C_11
REMARK    2  A    between atoms: N_6  and  C_23
REMARK    3  A    between atoms: N_6  and  C_26
REMARK    4  A    between atoms: N_6  and  C_27
REMARK    5  A    between atoms: C_7  and  C_12
REMARK    6  A    between atoms: C_11  and  C_13
REMARK    7  A    between atoms: C_14  and  C_17
REMARK                            x       y       z     vdW  Elec       q    Type
REMARK                         _______ _______ _______ _____ _____    ______ ____
ROOT
ATOM      2  O   UNL     1      16.752   7.685  20.206  0.00  0.00    -0.420 OA
ATOM      4  N   UNL     1      15.449   6.655  18.709  0.00  0.00    -0.112 NA
ATOM      5  N   UNL     1      16.545   5.848  18.947  0.00  0.00    -0.107 NA
ATOM     12  C   UNL     1      15.612   7.716  19.464  0.00  0.00    +0.222 A 
ATOM     14  C   UNL     1      17.279   6.488  19.827  0.00  0.00    +0.248 A 
ENDROOT
BRANCH  14  17
ATOM     17  C   UNL     1      18.525   6.128  20.439  0.00  0.00    +0.039 A 
ATOM     21  C   UNL     1      19.294   5.095  19.902  0.00  0.00    +0.015 A 
ATOM     22  C   UNL     1      18.968   6.811  21.572  0.00  0.00    +0.015 A 
ATOM     23  C   UNL     1      20.949   5.428  21.630  0.00  0.00    +0.029 A 
ATOM     24  C   UNL     1      20.505   4.745  20.497  0.00  0.00    +0.024 A 
ATOM     25  C   UNL     1      20.179   6.461  22.167  0.00  0.00    +0.024 A 
BRANCH  23   6
ATOM      6  N   UNL     1      22.173   5.074  22.232  0.00  0.00    -0.336 N 
ATOM     26  C   UNL     1      22.442   3.696  22.594  0.00  0.00    +0.129 C 
ATOM     27  C   UNL     1      23.183   6.082  22.492  0.00  0.00    +0.129 C 
ENDBRANCH  23   6
ENDBRANCH  14  17
BRANCH  12   7
ATOM      3  N   UNL     1      12.701   9.664  20.538  0.00  0.00    -0.297 NA
ATOM      7  C   UNL     1      14.730   8.933  19.617  0.00  0.00    +0.092 C 
ATOM      8  C   UNL     1      13.694   9.126  18.495  0.00  0.00    +0.029 C 
ATOM      9  C   UNL     1      13.902   8.914  20.909  0.00  0.00    +0.097 C 
ATOM     10  C   UNL     1      12.348   9.176  19.205  0.00  0.00    +0.085 C 
BRANCH   3  11
ATOM     11  C   UNL     1      11.619   9.490  21.496  0.00  0.00    +0.119 C 
BRANCH  11  13
ATOM      1 CL   UNL     1      10.375  14.596  24.423  0.00  0.00    -0.084 Cl
ATOM     13  C   UNL     1      11.308  10.768  22.230  0.00  0.00    -0.033 A 
ATOM     15  C   UNL     1      11.371  11.989  21.558  0.00  0.00    +0.006 A 
ATOM     16  C   UNL     1      10.959  10.730  23.579  0.00  0.00    +0.006 A 
ATOM     18  C   UNL     1      11.083  13.173  22.238  0.00  0.00    +0.020 A 
ATOM     19  C   UNL     1      10.671  11.915  24.259  0.00  0.00    +0.020 A 
ATOM     20  C   UNL     1      10.733  13.136  23.588  0.00  0.00    +0.041 A 
ENDBRANCH  11  13
ENDBRANCH   3  11
ENDBRANCH  12   7
TORSDOF 5
ENDMDL
MODEL 2
REMARK VINA RESULT:      -7.2      1.158      1.740
REMARK  Name = 51137522
REMARK  7 active torsions:
REMARK  status: ('A' for Active; 'I' for Inactive)
REMARK    1  A    between atoms: N_3  and  C_11
REMARK    2  A    between atoms: N_6  and  C_23
REMARK    3  A    between atoms: N_6  and  C_26
REMARK    4  A    between atoms: N_6  and  C_27
REMARK    5  A    between atoms: C_7  and  C_12
REMARK    6  A    between atoms: C_11  and  C_13
REMARK    7  A    between atoms: C_14  and  C_17
REMARK                            x       y       z     vdW  Elec       q    Type
REMARK                         _______ _______ _______ _____ _____    ______ ____
ROOT
ATOM      2  O   UNL     1      15.543   8.164  20.320  0.00  0.00    -0.420 OA
ATOM      4  N   UNL     1      14.448   6.965  18.782  0.00  0.00    -0.112 NA
ATOM      5  N   UNL     1      15.693   6.393  18.963  0.00  0.00    -0.107 NA
ATOM     12  C   UNL     1      14.404   7.996  19.593  0.00  0.00    +0.222 A 
ATOM     14  C   UNL     1      16.298   7.125  19.869  0.00  0.00    +0.248 A 
ENDROOT
BRANCH  14  17
ATOM     17  C   UNL     1      17.604   7.001  20.446  0.00  0.00    +0.039 A 
ATOM     21  C   UNL     1      18.014   7.883  21.444  0.00  0.00    +0.015 A 
ATOM     22  C   UNL     1      18.466   5.994  20.008  0.00  0.00    +0.015 A 
ATOM     23  C   UNL     1      20.147   6.755  21.568  0.00  0.00    +0.029 A 
ATOM     24  C   UNL     1      19.285   7.762  22.005  0.00  0.00    +0.024 A 
ATOM     25  C   UNL     1      19.737   5.872  20.569  0.00  0.00    +0.024 A 
BRANCH  23   6
ATOM      6  N   UNL     1      21.432   6.633  22.134  0.00  0.00    -0.336 N 
ATOM     26  C   UNL     1      21.716   7.197  23.439  0.00  0.00    +0.129 C 
ATOM     27  C   UNL     1      22.484   5.934  21.423  0.00  0.00    +0.129 C 
ENDBRANCH  23   6
ENDBRANCH  14  17
BRANCH  12   7
ATOM      3  N   UNL     1      11.637   9.619  21.361  0.00  0.00    -0.297 NA
ATOM      7  C   UNL     1      13.293   8.993  19.824  0.00  0.00    +0.092 C 
ATOM      8  C   UNL     1      11.913   8.554  19.302  0.00  0.00    +0.029 C 
ATOM      9  C   UNL     1      13.065   9.302  21.310  0.00  0.00    +0.097 C 
ATOM     10  C   UNL     1      10.995   8.612  20.516  0.00  0.00    +0.085 C 
BRANCH   3  11
ATOM     11  C   UNL     1      11.115   9.615  22.720  0.00  0.00    +0.119 C 
BRANCH  11  13
ATOM      1 CL   UNL     1      10.693  15.177  24.974  0.00  0.00    -0.084 Cl
ATOM     13  C   UNL     1      11.010  11.008  23.285  0.00  0.00    -0.033 A 
ATOM     15  C   UNL     1      10.912  12.102  22.426  0.00  0.00    +0.006 A 
ATOM     16  C   UNL     1      11.011  11.202  24.666  0.00  0.00    +0.006 A 
ATOM     18  C   UNL     1      10.816  13.391  22.949  0.00  0.00    +0.020 A 
ATOM     19  C   UNL     1      10.915  12.492  25.189  0.00  0.00    +0.020 A 
ATOM     20  C   UNL     1      10.816  13.587  24.330  0.00  0.00    +0.041 A 
ENDBRANCH  11  13
ENDBRANCH   3  11
ENDBRANCH  12   7
TORSDOF 5
ENDMDL
MODEL 3
REMARK VINA RESULT:      -7.0     27.787     30.574
REMARK  Name = 51137522
REMARK  7 active torsions:
REMARK  status: ('A' for Active; 'I' for Inactive)
REMARK    1  A    between atoms: N_3  and  C_11
REMARK    2  A    between atoms: N_6  and  C_23
REMARK    3  A    between atoms: N_6  and  C_26
REMARK    4  A    between atoms: N_6  and  C_27
REMARK    5  A    between atoms: C_7  and  C_12
REMARK    6  A    between atoms: C_11  and  C_13
REMARK    7  A    between atoms: C_14  and  C_17
REMARK                            x       y       z     vdW  Elec       q    Type
REMARK                         _______ _______ _______ _____ _____    ______ ____
ROOT
ATOM      2  O   UNL     1      -5.483 -10.350  16.940  0.00  0.00    -0.420 OA
ATOM      4  N   UNL     1      -3.996 -11.627  18.017  0.00  0.00    -0.112 NA
ATOM      5  N   UNL     1      -5.200 -11.714  18.690  0.00  0.00    -0.107 NA
ATOM     12  C   UNL     1      -4.208 -10.820  17.003  0.00  0.00    +0.222 A 
ATOM     14  C   UNL     1      -6.039 -10.953  18.026  0.00  0.00    +0.248 A 
ENDROOT
BRANCH  14  17
ATOM     17  C   UNL     1      -7.424 -10.666  18.265  0.00  0.00    +0.039 A 
ATOM     21  C   UNL     1      -8.091 -11.276  19.327  0.00  0.00    +0.015 A 
ATOM     22  C   UNL     1      -8.103  -9.776  17.434  0.00  0.00    +0.015 A 
ATOM     23  C   UNL     1     -10.117 -10.106  18.728  0.00  0.00    +0.029 A 
ATOM     24  C   UNL     1      -9.436 -10.997  19.559  0.00  0.00    +0.024 A 
ATOM     25  C   UNL     1      -9.450  -9.496  17.666  0.00  0.00    +0.024 A 
BRANCH  23   6
ATOM      6  N   UNL     1     -11.478  -9.824  18.962  0.00  0.00    -0.336 N 
ATOM     26  C   UNL     1     -12.059 -10.041  20.273  0.00  0.00    +0.129 C 
ATOM     27  C   UNL     1     -12.314  -9.306  17.897  0.00  0.00    +0.129 C 
ENDBRANCH  23   6
ENDBRANCH  14  17
BRANCH  12   7
ATOM      3  N   UNL     1      -2.187 -11.042  13.956  0.00  0.00    -0.297 NA
ATOM      7  C   UNL     1      -3.254 -10.356  15.928  0.00  0.00    +0.092 C 
ATOM      8  C   UNL     1      -1.768 -10.636  16.216  0.00  0.00    +0.029 C 
ATOM      9  C   UNL     1      -3.516 -11.018  14.568  0.00  0.00    +0.097 C 
ATOM     10  C   UNL     1      -1.284 -11.457  15.029  0.00  0.00    +0.085 C 
BRANCH   3  11
ATOM     11  C   UNL     1      -2.122 -11.930  12.804  0.00  0.00    +0.119 C 
BRANCH  11  13
ATOM      1 CL   UNL     1      -4.920  -9.593   8.018  0.00  0.00    -0.084 Cl
ATOM     13  C   UNL     1      -2.822 -11.345  11.605  0.00  0.00    -0.033 A 
ATOM     15  C   UNL     1      -3.685 -12.136  10.846  0.00  0.00    +0.006 A 
ATOM     16  C   UNL     1      -2.607 -10.012  11.254  0.00  0.00    +0.006 A 
ATOM     18  C   UNL     1      -4.332 -11.594   9.736  0.00  0.00    +0.020 A 
ATOM     19  C   UNL     1      -3.254  -9.470  10.143  0.00  0.00    +0.020 A 
ATOM     20  C   UNL     1      -4.118 -10.261   9.385  0.00  0.00    +0.041 A 
ENDBRANCH  11  13
ENDBRANCH   3  11
ENDBRANCH  12   7
TORSDOF 5
ENDMDL
MODEL 4
REMARK VINA RESULT:      -7.0     27.443     31.724
REMARK  Name = 51137522
REMARK  7 active torsions:
REMARK  status: ('A' for Active; 'I' for Inactive)
REMARK    1  A    between atoms: N_3  and  C_11
REMARK    2  A    between atoms: N_6  and  C_23
REMARK    3  A    between atoms: N_6  and  C_26
REMARK    4  A    between atoms: N_6  and  C_27
REMARK    5  A    between atoms: C_7  and  C_12
REMARK    6  A    between atoms: C_11  and  C_13
REMARK    7  A    between atoms: C_14  and  C_17
REMARK                            x       y       z     vdW  Elec       q    Type
REMARK                         _______ _______ _______ _____ _____    ______ ____
ROOT
ATOM      2  O   UNL     1     -15.077   5.689  23.752  0.00  0.00    -0.420 OA
ATOM      4  N   UNL     1     -15.757   3.717  22.948  0.00  0.00    -0.112 NA
ATOM      5  N   UNL     1     -15.014   4.345  21.966  0.00  0.00    -0.107 NA
ATOM     12  C   UNL     1     -15.767   4.537  23.972  0.00  0.00    +0.222 A 
ATOM     14  C   UNL     1     -14.638   5.494  22.479  0.00  0.00    +0.248 A 
ENDROOT
BRANCH  14  17
ATOM     17  C   UNL     1     -13.850   6.551  21.916  0.00  0.00    +0.039 A 
ATOM     21  C   UNL     1     -14.273   7.875  22.031  0.00  0.00    +0.015 A 
ATOM     22  C   UNL     1     -12.659   6.255  21.253  0.00  0.00    +0.015 A 
ATOM     23  C   UNL     1     -12.315   8.607  20.821  0.00  0.00    +0.029 A 
ATOM     24  C   UNL     1     -13.507   8.903  21.484  0.00  0.00    +0.024 A 
ATOM     25  C   UNL     1     -11.892   7.283  20.706  0.00  0.00    +0.024 A 
BRANCH  23   6
ATOM      6  N   UNL     1     -11.541   9.646  20.267  0.00  0.00    -0.336 N 
ATOM     26  C   UNL     1     -10.376   9.343  19.457  0.00  0.00    +0.129 C 
ATOM     27  C   UNL     1     -11.902  11.032  20.492  0.00  0.00    +0.129 C 
ENDBRANCH  23   6
ENDBRANCH  14  17
BRANCH  12   7
ATOM      3  N   UNL     1     -16.988   2.791  26.952  0.00  0.00    -0.297 NA
ATOM      7  C   UNL     1     -16.424   4.381  25.324  0.00  0.00    +0.092 C 
ATOM      8  C   UNL     1     -17.939   4.113  25.279  0.00  0.00    +0.029 C 
ATOM      9  C   UNL     1     -15.848   3.215  26.138  0.00  0.00    +0.097 C 
ATOM     10  C   UNL     1     -18.131   2.807  26.039  0.00  0.00    +0.085 C 
BRANCH   3  11
ATOM     11  C   UNL     1     -16.783   1.483  27.558  0.00  0.00    +0.119 C 
BRANCH  11  13
ATOM      1 CL   UNL     1     -14.487   1.921  33.102  0.00  0.00    -0.084 Cl
ATOM     13  C   UNL     1     -16.208   1.593  28.947  0.00  0.00    -0.033 A 
ATOM     15  C   UNL     1     -15.449   0.547  29.471  0.00  0.00    +0.006 A 
ATOM     16  C   UNL     1     -16.437   2.740  29.707  0.00  0.00    +0.006 A 
ATOM     18  C   UNL     1     -14.918   0.649  30.757  0.00  0.00    +0.020 A 
ATOM     19  C   UNL     1     -15.906   2.841  30.993  0.00  0.00    +0.020 A 
ATOM     20  C   UNL     1     -15.146   1.796  31.518  0.00  0.00    +0.041 A 
ENDBRANCH  11  13
ENDBRANCH   3  11
ENDBRANCH  12   7
TORSDOF 5
ENDMDL
MODEL 5
REMARK VINA RESULT:      -6.7     28.292     29.839
REMARK  Name = 51137522
REMARK  7 active torsions:
REMARK  status: ('A' for Active; 'I' for Inactive)
REMARK    1  A    between atoms: N_3  and  C_11
REMARK    2  A    between atoms: N_6  and  C_23
REMARK    3  A    between atoms: N_6  and  C_26
REMARK    4  A    between atoms: N_6  and  C_27
REMARK    5  A    between atoms: C_7  and  C_12
REMARK    6  A    between atoms: C_11  and  C_13
REMARK    7  A    between atoms: C_14  and  C_17
REMARK                            x       y       z     vdW  Elec       q    Type
REMARK                         _______ _______ _______ _____ _____    ______ ____
ROOT
ATOM      2  O   UNL     1      -4.685  -9.624  12.146  0.00  0.00    -0.420 OA
ATOM      4  N   UNL     1      -3.065 -10.383  10.804  0.00  0.00    -0.112 NA
ATOM      5  N   UNL     1      -2.835 -10.878  12.074  0.00  0.00    -0.107 NA
ATOM     12  C   UNL     1      -4.154  -9.656  10.893  0.00  0.00    +0.222 A 
ATOM     14  C   UNL     1      -3.805 -10.410  12.824  0.00  0.00    +0.248 A 
ENDROOT
BRANCH  14  17
ATOM     17  C   UNL     1      -4.074 -10.595  14.220  0.00  0.00    +0.039 A 
ATOM     21  C   UNL     1      -3.055 -11.003  15.080  0.00  0.00    +0.015 A 
ATOM     22  C   UNL     1      -5.357 -10.367  14.718  0.00  0.00    +0.015 A 
ATOM     23  C   UNL     1      -4.600 -10.955  16.937  0.00  0.00    +0.029 A 
ATOM     24  C   UNL     1      -3.317 -11.183  16.437  0.00  0.00    +0.024 A 
ATOM     25  C   UNL     1      -5.620 -10.546  16.076  0.00  0.00    +0.024 A 
BRANCH  23   6
ATOM      6  N   UNL     1      -4.866 -11.138  18.309  0.00  0.00    -0.336 N 
ATOM     26  C   UNL     1      -6.033 -10.530  18.918  0.00  0.00    +0.129 C 
ATOM     27  C   UNL     1      -3.980 -11.942  19.127  0.00  0.00    +0.129 C 
ENDBRANCH  23   6
ENDBRANCH  14  17
BRANCH  12   7
ATOM      3  N   UNL     1      -6.961  -8.632   8.773  0.00  0.00    -0.297 NA
ATOM      7  C   UNL     1      -4.878  -8.873   9.823  0.00  0.00    +0.092 C 
ATOM      8  C   UNL     1      -4.821  -9.494   8.416  0.00  0.00    +0.029 C 
ATOM      9  C   UNL     1      -6.376  -8.707  10.113  0.00  0.00    +0.097 C 
ATOM     10  C   UNL     1      -6.276  -9.670   8.003  0.00  0.00    +0.085 C 
BRANCH   3  11
ATOM     11  C   UNL     1      -8.405  -8.814   8.787  0.00  0.00    +0.119 C 
BRANCH  11  13
ATOM      1 CL   UNL     1     -11.324  -3.559   9.039  0.00  0.00    -0.084 Cl
ATOM     13  C   UNL     1      -9.136  -7.498   8.849  0.00  0.00    -0.033 A 
ATOM     15  C   UNL     1     -10.425  -7.441   9.381  0.00  0.00    +0.006 A 
ATOM     16  C   UNL     1      -8.525  -6.338   8.375  0.00  0.00    +0.006 A 
ATOM     18  C   UNL     1     -11.101  -6.223   9.438  0.00  0.00    +0.020 A 
ATOM     19  C   UNL     1      -9.202  -5.119   8.432  0.00  0.00    +0.020 A 
ATOM     20  C   UNL     1     -10.489  -5.062   8.964  0.00  0.00    +0.041 A 
ENDBRANCH  11  13
ENDBRANCH   3  11
ENDBRANCH  12   7
TORSDOF 5
ENDMDL
MODEL 6
REMARK VINA RESULT:      -6.6     28.424     31.483
REMARK  Name = 51137522
REMARK  7 active torsions:
REMARK  status: ('A' for Active; 'I' for Inactive)
REMARK    1  A    between atoms: N_3  and  C_11
REMARK    2  A    between atoms: N_6  and  C_23
REMARK    3  A    between atoms: N_6  and  C_26
REMARK    4  A    between atoms: N_6  and  C_27
REMARK    5  A    between atoms: C_7  and  C_12
REMARK    6  A    between atoms: C_11  and  C_13
REMARK    7  A    between atoms: C_14  and  C_17
REMARK                            x       y       z     vdW  Elec       q    Type
REMARK                         _______ _______ _______ _____ _____    ______ ____
ROOT
ATOM      2  O   UNL     1      -8.160  -9.728  17.800  0.00  0.00    -0.420 OA
ATOM      4  N   UNL     1      -8.221 -11.054  19.599  0.00  0.00    -0.112 NA
ATOM      5  N   UNL     1      -9.492 -10.553  19.395  0.00  0.00    -0.107 NA
ATOM     12  C   UNL     1      -7.476 -10.546  18.645  0.00  0.00    +0.222 A 
ATOM     14  C   UNL     1      -9.410  -9.784  18.335  0.00  0.00    +0.248 A 
ENDROOT
BRANCH  14  17
ATOM     17  C   UNL     1     -10.415  -9.010  17.666  0.00  0.00    +0.039 A 
ATOM     21  C   UNL     1     -11.715  -9.502  17.553  0.00  0.00    +0.015 A 
ATOM     22  C   UNL     1     -10.092  -7.764  17.129  0.00  0.00    +0.015 A 
ATOM     23  C   UNL     1     -12.370  -7.503  16.366  0.00  0.00    +0.029 A 
ATOM     24  C   UNL     1     -12.692  -8.750  16.903  0.00  0.00    +0.024 A 
ATOM     25  C   UNL     1     -11.069  -7.011  16.480  0.00  0.00    +0.024 A 
BRANCH  23   6
ATOM      6  N   UNL     1     -13.357  -6.742  15.708  0.00  0.00    -0.336 N 
ATOM     26  C   UNL     1     -12.983  -5.757  14.711  0.00  0.00    +0.129 C 
ATOM     27  C   UNL     1     -14.761  -6.938  16.014  0.00  0.00    +0.129 C 
ENDBRANCH  23   6
ENDBRANCH  14  17
BRANCH  12   7
ATOM      3  N   UNL     1      -4.499 -11.972  17.056  0.00  0.00    -0.297 NA
ATOM      7  C   UNL     1      -6.004 -10.741  18.367  0.00  0.00    +0.092 C 
ATOM      8  C   UNL     1      -5.317 -11.809  19.237  0.00  0.00    +0.029 C 
ATOM      9  C   UNL     1      -5.720 -11.176  16.923  0.00  0.00    +0.097 C 
ATOM     10  C   UNL     1      -4.712 -12.795  18.246  0.00  0.00    +0.085 C 
BRANCH   3  11
ATOM     11  C   UNL     1      -4.225 -12.772  15.871  0.00  0.00    +0.119 C 
BRANCH  11  13
ATOM      1 CL   UNL     1      -1.333  -9.608  11.650  0.00  0.00    -0.084 Cl
ATOM     13  C   UNL     1      -3.502 -11.980  14.814  0.00  0.00    -0.033 A 
ATOM     15  C   UNL     1      -2.467 -11.116  15.176  0.00  0.00    +0.006 A 
ATOM     16  C   UNL     1      -3.867 -12.108  13.474  0.00  0.00    +0.006 A 
ATOM     18  C   UNL     1      -1.798 -10.382  14.198  0.00  0.00    +0.020 A 
ATOM     19  C   UNL     1      -3.197 -11.374  12.495  0.00  0.00    +0.020 A 
ATOM     20  C   UNL     1      -2.162 -10.511  12.857  0.00  0.00    +0.041 A 
ENDBRANCH  11  13
ENDBRANCH   3  11
ENDBRANCH  12   7
TORSDOF 5
ENDMDL
MODEL 7
REMARK VINA RESULT:      -6.6      3.180      4.043
REMARK  Name = 51137522
REMARK  7 active torsions:
REMARK  status: ('A' for Active; 'I' for Inactive)
REMARK    1  A    between atoms: N_3  and  C_11
REMARK    2  A    between atoms: N_6  and  C_23
REMARK    3  A    between atoms: N_6  and  C_26
REMARK    4  A    between atoms: N_6  and  C_27
REMARK    5  A    between atoms: C_7  and  C_12
REMARK    6  A    between atoms: C_11  and  C_13
REMARK    7  A    between atoms: C_14  and  C_17
REMARK                            x       y       z     vdW  Elec       q    Type
REMARK                         _______ _______ _______ _____ _____    ______ ____
ROOT
ATOM      2  O   UNL     1      16.872   6.277  21.073  0.00  0.00    -0.420 OA
ATOM      4  N   UNL     1      16.171   6.169  18.952  0.00  0.00    -0.112 NA
ATOM      5  N   UNL     1      17.535   5.946  18.963  0.00  0.00    -0.107 NA
ATOM     12  C   UNL     1      15.827   6.358  20.204  0.00  0.00    +0.222 A 
ATOM     14  C   UNL     1      17.902   6.018  20.221  0.00  0.00    +0.248 A 
ENDROOT
BRANCH  14  17
ATOM     17  C   UNL     1      19.194   5.868  20.824  0.00  0.00    +0.039 A 
ATOM     21  C   UNL     1      20.128   4.997  20.266  0.00  0.00    +0.015 A 
ATOM     22  C   UNL     1      19.516   6.595  21.970  0.00  0.00    +0.015 A 
ATOM     23  C   UNL     1      21.708   5.578  21.998  0.00  0.00    +0.029 A 
ATOM     24  C   UNL     1      21.385   4.851  20.852  0.00  0.00    +0.024 A 
ATOM     25  C   UNL     1      20.773   6.450  22.557  0.00  0.00    +0.024 A 
BRANCH  23   6
ATOM      6  N   UNL     1      22.978   5.431  22.592  0.00  0.00    -0.336 N 
ATOM     26  C   UNL     1      23.108   4.843  23.911  0.00  0.00    +0.129 C 
ATOM     27  C   UNL     1      24.171   5.859  21.889  0.00  0.00    +0.129 C 
ENDBRANCH  23   6
ENDBRANCH  14  17
BRANCH  12   7
ATOM      3  N   UNL     1      12.557   7.978  20.524  0.00  0.00    -0.297 NA
ATOM      7  C   UNL     1      14.467   6.645  20.796  0.00  0.00    +0.092 C 
ATOM      8  C   UNL     1      14.450   7.746  21.872  0.00  0.00    +0.029 C 
ATOM      9  C   UNL     1      13.445   7.109  19.750  0.00  0.00    +0.097 C 
ATOM     10  C   UNL     1      13.449   8.776  21.365  0.00  0.00    +0.085 C 
BRANCH   3  11
ATOM     11  C   UNL     1      11.709   8.804  19.677  0.00  0.00    +0.119 C 
BRANCH  11  13
ATOM      1 CL   UNL     1      14.709  10.951  14.925  0.00  0.00    -0.084 Cl
ATOM     13  C   UNL     1      12.460   9.341  18.486  0.00  0.00    -0.033 A 
ATOM     15  C   UNL     1      13.307  10.440  18.635  0.00  0.00    +0.006 A 
ATOM     16  C   UNL     1      12.307   8.742  17.237  0.00  0.00    +0.006 A 
ATOM     18  C   UNL     1      14.001  10.937  17.533  0.00  0.00    +0.020 A 
ATOM     19  C   UNL     1      13.001   9.240  16.134  0.00  0.00    +0.020 A 
ATOM     20  C   UNL     1      13.849  10.338  16.282  0.00  0.00    +0.041 A 
ENDBRANCH  11  13
ENDBRANCH   3  11
ENDBRANCH  12   7
TORSDOF 5
ENDMDL
MODEL 8
REMARK VINA RESULT:      -6.5     19.102     22.241
REMARK  Name = 51137522
REMARK  7 active torsions:
REMARK  status: ('A' for Active; 'I' for Inactive)
REMARK    1  A    between atoms: N_3  and  C_11
REMARK    2  A    between atoms: N_6  and  C_23
REMARK    3  A    between atoms: N_6  and  C_26
REMARK    4  A    between atoms: N_6  and  C_27
REMARK    5  A    between atoms: C_7  and  C_12
REMARK    6  A    between atoms: C_11  and  C_13
REMARK    7  A    between atoms: C_14  and  C_17
REMARK                            x       y       z     vdW  Elec       q    Type
REMARK                         _______ _______ _______ _____ _____    ______ ____
ROOT
ATOM      2  O   UNL     1      11.052   4.437  -0.049  0.00  0.00    -0.420 OA
ATOM      4  N   UNL     1      12.909   3.192  -0.099  0.00  0.00    -0.112 NA
ATOM      5  N   UNL     1      12.362   3.195  -1.368  0.00  0.00    -0.107 NA
ATOM     12  C   UNL     1      12.111   3.929   0.638  0.00  0.00    +0.222 A 
ATOM     14  C   UNL     1      11.280   3.934  -1.293  0.00  0.00    +0.248 A 
ENDROOT
BRANCH  14  17
ATOM     17  C   UNL     1      10.321   4.286  -2.299  0.00  0.00    +0.039 A 
ATOM     21  C   UNL     1       9.460   5.364  -2.097  0.00  0.00    +0.015 A 
ATOM     22  C   UNL     1      10.250   3.549  -3.481  0.00  0.00    +0.015 A 
ATOM     23  C   UNL     1       8.456   4.970  -4.258  0.00  0.00    +0.029 A 
ATOM     24  C   UNL     1       8.528   5.707  -3.075  0.00  0.00    +0.024 A 
ATOM     25  C   UNL     1       9.317   3.891  -4.460  0.00  0.00    +0.024 A 
BRANCH  23   6
ATOM      6  N   UNL     1       7.513   5.315  -5.247  0.00  0.00    -0.336 N 
ATOM     26  C   UNL     1       7.825   5.139  -6.653  0.00  0.00    +0.129 C 
ATOM     27  C   UNL     1       6.216   5.843  -4.873  0.00  0.00    +0.129 C 
ENDBRANCH  23   6
ENDBRANCH  14  17
BRANCH  12   7
ATOM      3  N   UNL     1      11.070   5.371   3.841  0.00  0.00    -0.297 NA
ATOM      7  C   UNL     1      12.207   4.280   2.105  0.00  0.00    +0.092 C 
ATOM      8  C   UNL     1      12.893   5.625   2.404  0.00  0.00    +0.029 C 
ATOM      9  C   UNL     1      10.836   4.384   2.786  0.00  0.00    +0.097 C 
ATOM     10  C   UNL     1      11.870   6.419   3.207  0.00  0.00    +0.085 C 
BRANCH   3  11
ATOM     11  C   UNL     1       9.830   5.886   4.404  0.00  0.00    +0.119 C 
BRANCH  11  13
ATOM      1 CL   UNL     1       9.420   4.765  10.301  0.00  0.00    -0.084 Cl
ATOM     13  C   UNL     1       9.727   5.606   5.881  0.00  0.00    -0.033 A 
ATOM     15  C   UNL     1       9.871   4.302   6.354  0.00  0.00    +0.006 A 
ATOM     16  C   UNL     1       9.486   6.650   6.773  0.00  0.00    +0.006 A 
ATOM     18  C   UNL     1       9.775   4.042   7.721  0.00  0.00    +0.020 A 
ATOM     19  C   UNL     1       9.389   6.390   8.141  0.00  0.00    +0.020 A 
ATOM     20  C   UNL     1       9.534   5.086   8.615  0.00  0.00    +0.041 A 
ENDBRANCH  11  13
ENDBRANCH   3  11
ENDBRANCH  12   7
TORSDOF 5
ENDMDL
MODEL 9
REMARK VINA RESULT:      -6.5     27.639     30.144
REMARK  Name = 51137522
REMARK  7 active torsions:
REMARK  status: ('A' for Active; 'I' for Inactive)
REMARK    1  A    between atoms: N_3  and  C_11
REMARK    2  A    between atoms: N_6  and  C_23
REMARK    3  A    between atoms: N_6  and  C_26
REMARK    4  A    between atoms: N_6  and  C_27
REMARK    5  A    between atoms: C_7  and  C_12
REMARK    6  A    between atoms: C_11  and  C_13
REMARK    7  A    between atoms: C_14  and  C_17
REMARK                            x       y       z     vdW  Elec       q    Type
REMARK                         _______ _______ _______ _____ _____    ______ ____
ROOT
ATOM      2  O   UNL     1      -4.099 -10.545  11.760  0.00  0.00    -0.420 OA
ATOM      4  N   UNL     1      -1.925 -10.050  11.924  0.00  0.00    -0.112 NA
ATOM      5  N   UNL     1      -2.383  -9.565  10.714  0.00  0.00    -0.107 NA
ATOM     12  C   UNL     1      -2.960 -10.614  12.501  0.00  0.00    +0.222 A 
ATOM     14  C   UNL     1      -3.657  -9.877  10.659  0.00  0.00    +0.248 A 
ENDROOT
BRANCH  14  17
ATOM     17  C   UNL     1      -4.634  -9.626   9.641  0.00  0.00    +0.039 A 
ATOM     21  C   UNL     1      -5.618  -8.659   9.841  0.00  0.00    +0.015 A 
ATOM     22  C   UNL     1      -4.599 -10.350   8.449  0.00  0.00    +0.015 A 
ATOM     23  C   UNL     1      -6.534  -9.137   7.657  0.00  0.00    +0.029 A 
ATOM     24  C   UNL     1      -6.568  -8.414   8.850  0.00  0.00    +0.024 A 
ATOM     25  C   UNL     1      -5.549 -10.105   7.457  0.00  0.00    +0.024 A 
BRANCH  23   6
ATOM      6  N   UNL     1      -7.495  -8.891   6.655  0.00  0.00    -0.336 N 
ATOM     26  C   UNL     1      -7.082  -8.480   5.327  0.00  0.00    +0.129 C 
ATOM     27  C   UNL     1      -8.907  -9.053   6.938  0.00  0.00    +0.129 C 
ENDBRANCH  23   6
ENDBRANCH  14  17
BRANCH  12   7
ATOM      3  N   UNL     1      -3.544 -10.945  16.102  0.00  0.00    -0.297 NA
ATOM      7  C   UNL     1      -3.056 -11.311  13.838  0.00  0.00    +0.092 C 
ATOM      8  C   UNL     1      -1.751 -11.323  14.655  0.00  0.00    +0.029 C 
ATOM      9  C   UNL     1      -4.093 -10.672  14.772  0.00  0.00    +0.097 C 
ATOM     10  C   UNL     1      -2.112 -10.672  15.984  0.00  0.00    +0.085 C 
BRANCH   3  11
ATOM     11  C   UNL     1      -4.177 -10.143  17.139  0.00  0.00    +0.119 C 
BRANCH  11  13
ATOM      1 CL   UNL     1      -8.414 -13.232  20.089  0.00  0.00    -0.084 Cl
ATOM     13  C   UNL     1      -5.237 -10.917  17.878  0.00  0.00    -0.033 A 
ATOM     15  C   UNL     1      -5.952 -10.309  18.910  0.00  0.00    +0.006 A 
ATOM     16  C   UNL     1      -5.503 -12.241  17.530  0.00  0.00    +0.006 A 
ATOM     18  C   UNL     1      -6.934 -11.026  19.594  0.00  0.00    +0.020 A 
ATOM     19  C   UNL     1      -6.485 -12.958  18.215  0.00  0.00    +0.020 A 
ATOM     20  C   UNL     1      -7.201 -12.350  19.246  0.00  0.00    +0.041 A 
ENDBRANCH  11  13
ENDBRANCH   3  11
ENDBRANCH  12   7
TORSDOF 5
ENDMDL
MODEL 10
REMARK VINA RESULT:      -6.5      5.090     11.125
REMARK  Name = 51137522
REMARK  7 active torsions:
REMARK  status: ('A' for Active; 'I' for Inactive)
REMARK    1  A    between atoms: N_3  and  C_11
REMARK    2  A    between atoms: N_6  and  C_23
REMARK    3  A    between atoms: N_6  and  C_26
REMARK    4  A    between atoms: N_6  and  C_27
REMARK    5  A    between atoms: C_7  and  C_12
REMARK    6  A    between atoms: C_11  and  C_13
REMARK    7  A    between atoms: C_14  and  C_17
REMARK                            x       y       z     vdW  Elec       q    Type
REMARK                         _______ _______ _______ _____ _____    ______ ____
ROOT
ATOM      2  O   UNL     1      18.338   7.109  20.784  0.00  0.00    -0.420 OA
ATOM      4  N   UNL     1      19.549   8.779  21.648  0.00  0.00    -0.112 NA
ATOM      5  N   UNL     1      18.213   9.097  21.801  0.00  0.00    -0.107 NA
ATOM     12  C   UNL     1      19.575   7.611  21.049  0.00  0.00    +0.222 A 
ATOM     14  C   UNL     1      17.542   8.095  21.283  0.00  0.00    +0.248 A 
ENDROOT
BRANCH  14  17
ATOM     17  C   UNL     1      16.129   7.883  21.165  0.00  0.00    +0.039 A 
ATOM     21  C   UNL     1      15.631   7.032  20.179  0.00  0.00    +0.015 A 
ATOM     22  C   UNL     1      15.253   8.528  22.038  0.00  0.00    +0.015 A 
ATOM     23  C   UNL     1      13.379   7.470  20.938  0.00  0.00    +0.029 A 
ATOM     24  C   UNL     1      14.257   6.826  20.065  0.00  0.00    +0.024 A 
ATOM     25  C   UNL     1      13.879   8.322  21.924  0.00  0.00    +0.024 A 
BRANCH  23   6
ATOM      6  N   UNL     1      11.990   7.263  20.822  0.00  0.00    -0.336 N 
ATOM     26  C   UNL     1      11.361   6.128  21.470  0.00  0.00    +0.129 C 
ATOM     27  C   UNL     1      11.171   8.184  20.059  0.00  0.00    +0.129 C 
ENDBRANCH  23   6
ENDBRANCH  14  17
BRANCH  12   7
ATOM      3  N   UNL     1      21.773   4.682  20.946  0.00  0.00    -0.297 NA
ATOM      7  C   UNL     1      20.758   6.771  20.627  0.00  0.00    +0.092 C 
ATOM      8  C   UNL     1      22.013   6.937  21.502  0.00  0.00    +0.029 C 
ATOM      9  C   UNL     1      20.463   5.266  20.652  0.00  0.00    +0.097 C 
ATOM     10  C   UNL     1      22.339   5.532  21.993  0.00  0.00    +0.085 C 
BRANCH   3  11
ATOM     11  C   UNL     1      21.681   3.288  21.355  0.00  0.00    +0.119 C 
BRANCH  11  13
ATOM      1 CL   UNL     1      27.096   0.928  22.492  0.00  0.00    -0.084 Cl
ATOM     13  C   UNL     1      23.036   2.696  21.640  0.00  0.00    -0.033 A 
ATOM     15  C   UNL     1      23.968   2.560  20.610  0.00  0.00    +0.006 A 
ATOM     16  C   UNL     1      23.359   2.285  22.932  0.00  0.00    +0.006 A 
ATOM     18  C   UNL     1      25.222   2.012  20.874  0.00  0.00    +0.020 A 
ATOM     19  C   UNL     1      24.615   1.736  23.196  0.00  0.00    +0.020 A 
ATOM     20  C   UNL     1      25.547   1.600  22.167  0.00  0.00    +0.041 A 
ENDBRANCH  11  13
ENDBRANCH   3  11
ENDBRANCH  12   7
TORSDOF 5
ENDMDL
