MODEL 1
REMARK VINA RESULT:      -6.5      0.000      0.000
REMARK  Name = 26742923
REMARK  7 active torsions:
REMARK  status: ('A' for Active; 'I' for Inactive)
REMARK    1  A    between atoms: N_6  and  C_19
REMARK    2  A    between atoms: C_8  and  C_14
REMARK    3  A    between atoms: C_9  and  C_13
REMARK    4  A    between atoms: C_13  and  C_15
REMARK    5  A    between atoms: C_14  and  C_16
REMARK    6  A    between atoms: C_18  and  C_20
REMARK    7  A    between atoms: C_19  and  C_21
REMARK                            x       y       z     vdW  Elec       q    Type
REMARK                         _______ _______ _______ _____ _____    ______ ____
ROOT
ATOM      5  N   UNL     1      11.751  13.789  24.354  0.00  0.00    -0.316 NA
ATOM      8  C   UNL     1      12.229  11.037  23.403  0.00  0.00    +0.004 C 
ATOM      9  C   UNL     1      13.081  12.241  22.937  0.00  0.00    +0.012 C 
ATOM     10  C   UNL     1      11.610  11.358  24.773  0.00  0.00    +0.019 C 
ATOM     11  C   UNL     1      12.291  13.559  23.012  0.00  0.00    +0.085 C 
ATOM     12  C   UNL     1      10.877  12.699  24.782  0.00  0.00    +0.081 C 
ATOM     30  H   UNL     1      11.228  14.664  24.361  0.00  0.00    +0.122 HD
ENDROOT
BRANCH   9  13
ATOM     13  C   UNL     1      13.677  12.051  21.542  0.00  0.00    +0.064 C 
BRANCH  13  15
ATOM      3  O   UNL     1      16.624  10.076  22.154  0.00  0.00    -0.354 OA
ATOM      7  N   UNL     1      15.799  11.165  22.407  0.00  0.00    -0.083 NA
ATOM     15  C   UNL     1      14.781  11.035  21.553  0.00  0.00    +0.085 A 
ATOM     17  C   UNL     1      14.907   9.892  20.743  0.00  0.00    +0.076 A 
ATOM     18  C   UNL     1      16.082   9.325  21.161  0.00  0.00    +0.167 A 
BRANCH  18  20
ATOM      1  F   UNL     1      18.969   4.796  19.712  0.00  0.00    -0.205 F 
ATOM     20  C   UNL     1      16.826   8.158  20.788  0.00  0.00    +0.020 A 
ATOM     22  C   UNL     1      18.045   7.880  21.406  0.00  0.00    +0.014 A 
ATOM     23  C   UNL     1      16.331   7.300  19.805  0.00  0.00    +0.014 A 
ATOM     25  C   UNL     1      18.769   6.744  21.043  0.00  0.00    +0.039 A 
ATOM     26  C   UNL     1      17.055   6.164  19.442  0.00  0.00    +0.039 A 
ATOM     29  C   UNL     1      18.274   5.886  20.061  0.00  0.00    +0.123 A 
ENDBRANCH  18  20
ENDBRANCH  13  15
ENDBRANCH   9  13
BRANCH   8  14
ATOM     14  C   UNL     1      11.148  10.614  22.401  0.00  0.00    +0.099 C 
BRANCH  14  16
ATOM      2  O   UNL     1      11.970   8.340  22.338  0.00  0.00    -0.276 OA
ATOM      6  N   UNL     1      11.106   9.293  20.404  0.00  0.00    -0.308 N 
ATOM     16  C   UNL     1      11.463   9.287  21.744  0.00  0.00    +0.214 C 
ATOM     31  H   UNL     1      10.707  10.136  20.001  0.00  0.00    +0.149 HD
BRANCH   6  19
ATOM     19  C   UNL     1      11.295   8.158  19.531  0.00  0.00    +0.178 C 
BRANCH  19  21
ATOM      4  O   UNL     1      13.001   7.328  18.012  0.00  0.00    -0.466 OA
ATOM     21  C   UNL     1      12.346   8.418  18.491  0.00  0.00    +0.122 A 
ATOM     24  C   UNL     1      12.814   9.564  17.891  0.00  0.00    +0.046 A 
ATOM     27  C   UNL     1      13.819   9.153  16.986  0.00  0.00    +0.041 A 
ATOM     28  C   UNL     1      13.896   7.783  17.096  0.00  0.00    +0.195 A 
ENDBRANCH  19  21
ENDBRANCH   6  19
ENDBRANCH  14  16
ENDBRANCH   8  14
TORSDOF 7
ENDMDL
MODEL 2
REMARK VINA RESULT:      -6.4     27.350     29.871
REMARK  Name = 26742923
REMARK  7 active torsions:
REMARK  status: ('A' for Active; 'I' for Inactive)
REMARK    1  A    between atoms: N_6  and  C_19
REMARK    2  A    between atoms: C_8  and  C_14
REMARK    3  A    between atoms: C_9  and  C_13
REMARK    4  A    between atoms: C_13  and  C_15
REMARK    5  A    between atoms: C_14  and  C_16
REMARK    6  A    between atoms: C_18  and  C_20
REMARK    7  A    between atoms: C_19  and  C_21
REMARK                            x       y       z     vdW  Elec       q    Type
REMARK                         _______ _______ _______ _____ _____    ______ ____
ROOT
ATOM      5  N   UNL     1     -11.913  -6.516  14.276  0.00  0.00    -0.316 NA
ATOM      8  C   UNL     1     -10.980  -7.899  16.710  0.00  0.00    +0.004 C 
ATOM      9  C   UNL     1     -10.393  -8.187  15.307  0.00  0.00    +0.012 C 
ATOM     10  C   UNL     1     -11.577  -6.482  16.723  0.00  0.00    +0.019 C 
ATOM     11  C   UNL     1     -11.411  -7.889  14.193  0.00  0.00    +0.085 C 
ATOM     12  C   UNL     1     -12.545  -6.246  15.566  0.00  0.00    +0.081 C 
ATOM     30  H   UNL     1     -12.589  -6.360  13.529  0.00  0.00    +0.122 HD
ENDROOT
BRANCH   9  13
ATOM     13  C   UNL     1      -9.846  -9.608  15.167  0.00  0.00    +0.064 C 
BRANCH  13  15
ATOM      3  O   UNL     1      -6.627  -9.364  16.761  0.00  0.00    -0.354 OA
ATOM      7  N   UNL     1      -7.993  -9.118  16.706  0.00  0.00    -0.083 NA
ATOM     15  C   UNL     1      -8.400  -9.678  15.564  0.00  0.00    +0.085 A 
ATOM     17  C   UNL     1      -7.344 -10.289  14.863  0.00  0.00    +0.076 A 
ATOM     18  C   UNL     1      -6.252 -10.062  15.659  0.00  0.00    +0.167 A 
BRANCH  18  20
ATOM      1  F   UNL     1      -0.849 -11.346  15.340  0.00  0.00    -0.205 F 
ATOM     20  C   UNL     1      -4.859 -10.392  15.576  0.00  0.00    +0.020 A 
ATOM     22  C   UNL     1      -4.268 -10.619  14.334  0.00  0.00    +0.014 A 
ATOM     23  C   UNL     1      -4.095 -10.488  16.740  0.00  0.00    +0.014 A 
ATOM     25  C   UNL     1      -2.913 -10.941  14.254  0.00  0.00    +0.039 A 
ATOM     26  C   UNL     1      -2.740 -10.810  16.660  0.00  0.00    +0.039 A 
ATOM     29  C   UNL     1      -2.149 -11.036  15.417  0.00  0.00    +0.123 A 
ENDBRANCH  18  20
ENDBRANCH  13  15
ENDBRANCH   9  13
BRANCH   8  14
ATOM     14  C   UNL     1     -12.014  -8.930  17.177  0.00  0.00    +0.099 C 
BRANCH  14  16
ATOM      2  O   UNL     1     -12.433  -9.546  19.478  0.00  0.00    -0.276 OA
ATOM      6  N   UNL     1     -10.368 -10.028  18.527  0.00  0.00    -0.308 N 
ATOM     16  C   UNL     1     -11.661  -9.524  18.524  0.00  0.00    +0.214 C 
ATOM     31  H   UNL     1      -9.801  -9.945  17.688  0.00  0.00    +0.149 HD
BRANCH   6  19
ATOM     19  C   UNL     1      -9.766 -10.652  19.683  0.00  0.00    +0.178 C 
BRANCH  19  21
ATOM      4  O   UNL     1      -7.370 -10.847  20.039  0.00  0.00    -0.466 OA
ATOM     21  C   UNL     1      -8.452 -11.298  19.352  0.00  0.00    +0.122 A 
ATOM     24  C   UNL     1      -8.085 -12.286  18.468  0.00  0.00    +0.046 A 
ATOM     27  C   UNL     1      -6.690 -12.455  18.623  0.00  0.00    +0.041 A 
ATOM     28  C   UNL     1      -6.301 -11.556  19.590  0.00  0.00    +0.195 A 
ENDBRANCH  19  21
ENDBRANCH   6  19
ENDBRANCH  14  16
ENDBRANCH   8  14
TORSDOF 7
ENDMDL
MODEL 3
REMARK VINA RESULT:      -6.3      5.667     10.198
REMARK  Name = 26742923
REMARK  7 active torsions:
REMARK  status: ('A' for Active; 'I' for Inactive)
REMARK    1  A    between atoms: N_6  and  C_19
REMARK    2  A    between atoms: C_8  and  C_14
REMARK    3  A    between atoms: C_9  and  C_13
REMARK    4  A    between atoms: C_13  and  C_15
REMARK    5  A    between atoms: C_14  and  C_16
REMARK    6  A    between atoms: C_18  and  C_20
REMARK    7  A    between atoms: C_19  and  C_21
REMARK                            x       y       z     vdW  Elec       q    Type
REMARK                         _______ _______ _______ _____ _____    ______ ____
ROOT
ATOM      5  N   UNL     1      20.328   9.158  21.900  0.00  0.00    -0.316 NA
ATOM      8  C   UNL     1      21.540   6.838  20.537  0.00  0.00    +0.004 C 
ATOM      9  C   UNL     1      20.012   7.079  20.579  0.00  0.00    +0.012 C 
ATOM     10  C   UNL     1      22.265   8.181  20.718  0.00  0.00    +0.019 C 
ATOM     11  C   UNL     1      19.598   7.891  21.817  0.00  0.00    +0.085 C 
ATOM     12  C   UNL     1      21.774   8.949  21.943  0.00  0.00    +0.081 C 
ATOM     30  H   UNL     1      20.034   9.662  22.736  0.00  0.00    +0.122 HD
ENDROOT
BRANCH   9  13
ATOM     13  C   UNL     1      19.199   5.787  20.488  0.00  0.00    +0.064 C 
BRANCH  13  15
ATOM      3  O   UNL     1      16.179   5.978  18.537  0.00  0.00    -0.354 OA
ATOM      7  N   UNL     1      17.492   5.568  18.733  0.00  0.00    -0.083 NA
ATOM     15  C   UNL     1      17.826   6.042  19.936  0.00  0.00    +0.085 A 
ATOM     17  C   UNL     1      16.773   6.752  20.542  0.00  0.00    +0.076 A 
ATOM     18  C   UNL     1      15.762   6.682  19.620  0.00  0.00    +0.167 A 
BRANCH  18  20
ATOM      1  F   UNL     1      10.540   8.587  19.396  0.00  0.00    -0.205 F 
ATOM     20  C   UNL     1      14.416   7.173  19.562  0.00  0.00    +0.020 A 
ATOM     22  C   UNL     1      13.979   7.880  18.442  0.00  0.00    +0.014 A 
ATOM     23  C   UNL     1      13.544   6.943  20.626  0.00  0.00    +0.014 A 
ATOM     25  C   UNL     1      12.669   8.358  18.386  0.00  0.00    +0.039 A 
ATOM     26  C   UNL     1      12.235   7.421  20.570  0.00  0.00    +0.039 A 
ATOM     29  C   UNL     1      11.797   8.128  19.450  0.00  0.00    +0.123 A 
ENDBRANCH  18  20
ENDBRANCH  13  15
ENDBRANCH   9  13
BRANCH   8  14
ATOM     14  C   UNL     1      22.036   5.808  21.558  0.00  0.00    +0.099 C 
BRANCH  14  16
ATOM      2  O   UNL     1      24.451   5.732  21.677  0.00  0.00    -0.276 OA
ATOM      6  N   UNL     1      23.329   4.222  20.315  0.00  0.00    -0.308 N 
ATOM     16  C   UNL     1      23.411   5.276  21.213  0.00  0.00    +0.214 C 
ATOM     31  H   UNL     1      22.417   3.928  19.975  0.00  0.00    +0.149 HD
BRANCH   6  19
ATOM     19  C   UNL     1      24.488   3.523  19.809  0.00  0.00    +0.178 C 
BRANCH  19  21
ATOM      4  O   UNL     1      26.148   2.440  21.216  0.00  0.00    -0.466 OA
ATOM     21  C   UNL     1      24.892   2.385  20.702  0.00  0.00    +0.122 A 
ATOM     24  C   UNL     1      24.243   1.250  21.131  0.00  0.00    +0.046 A 
ATOM     27  C   UNL     1      25.159   0.565  21.963  0.00  0.00    +0.041 A 
ATOM     28  C   UNL     1      26.304   1.328  21.982  0.00  0.00    +0.195 A 
ENDBRANCH  19  21
ENDBRANCH   6  19
ENDBRANCH  14  16
ENDBRANCH   8  14
TORSDOF 7
ENDMDL
MODEL 4
REMARK VINA RESULT:      -6.2     27.135     29.443
REMARK  Name = 26742923
REMARK  7 active torsions:
REMARK  status: ('A' for Active; 'I' for Inactive)
REMARK    1  A    between atoms: N_6  and  C_19
REMARK    2  A    between atoms: C_8  and  C_14
REMARK    3  A    between atoms: C_9  and  C_13
REMARK    4  A    between atoms: C_13  and  C_15
REMARK    5  A    between atoms: C_14  and  C_16
REMARK    6  A    between atoms: C_18  and  C_20
REMARK    7  A    between atoms: C_19  and  C_21
REMARK                            x       y       z     vdW  Elec       q    Type
REMARK                         _______ _______ _______ _____ _____    ______ ____
ROOT
ATOM      5  N   UNL     1      -4.118  -8.705   9.348  0.00  0.00    -0.316 NA
ATOM      8  C   UNL     1      -4.362 -11.115  11.034  0.00  0.00    +0.004 C 
ATOM      9  C   UNL     1      -3.380  -9.963  11.358  0.00  0.00    +0.012 C 
ATOM     10  C   UNL     1      -5.515 -10.565  10.179  0.00  0.00    +0.019 C 
ATOM     11  C   UNL     1      -2.958  -9.203  10.090  0.00  0.00    +0.085 C 
ATOM     12  C   UNL     1      -5.020  -9.788   8.961  0.00  0.00    +0.081 C 
ATOM     30  H   UNL     1      -3.799  -8.216   8.513  0.00  0.00    +0.122 HD
ENDROOT
BRANCH   9  13
ATOM     13  C   UNL     1      -2.151 -10.427  12.140  0.00  0.00    +0.064 C 
BRANCH  13  15
ATOM      3  O   UNL     1      -2.036 -10.291  15.736  0.00  0.00    -0.354 OA
ATOM      7  N   UNL     1      -1.455 -10.155  14.481  0.00  0.00    -0.083 NA
ATOM     15  C   UNL     1      -2.423 -10.465  13.616  0.00  0.00    +0.085 A 
ATOM     17  C   UNL     1      -3.628 -10.801  14.260  0.00  0.00    +0.076 A 
ATOM     18  C   UNL     1      -3.330 -10.676  15.591  0.00  0.00    +0.167 A 
BRANCH  18  20
ATOM      1  F   UNL     1      -6.181 -11.379  20.316  0.00  0.00    -0.205 F 
ATOM     20  C   UNL     1      -4.064 -10.857  16.809  0.00  0.00    +0.020 A 
ATOM     22  C   UNL     1      -3.517 -11.607  17.850  0.00  0.00    +0.014 A 
ATOM     23  C   UNL     1      -5.328 -10.283  16.953  0.00  0.00    +0.014 A 
ATOM     25  C   UNL     1      -4.232 -11.783  19.035  0.00  0.00    +0.039 A 
ATOM     26  C   UNL     1      -6.042 -10.459  18.138  0.00  0.00    +0.039 A 
ATOM     29  C   UNL     1      -5.495 -11.209  19.179  0.00  0.00    +0.123 A 
ENDBRANCH  18  20
ENDBRANCH  13  15
ENDBRANCH   9  13
BRANCH   8  14
ATOM     14  C   UNL     1      -3.704 -12.321  10.353  0.00  0.00    +0.099 C 
BRANCH  14  16
ATOM      2  O   UNL     1      -4.852 -14.442  10.539  0.00  0.00    -0.276 OA
ATOM      6  N   UNL     1      -3.418 -13.769  12.238  0.00  0.00    -0.308 N 
ATOM     16  C   UNL     1      -4.073 -13.627  11.023  0.00  0.00    +0.214 C 
ATOM     31  H   UNL     1      -2.804 -13.027  12.561  0.00  0.00    +0.149 HD
BRANCH   6  19
ATOM     19  C   UNL     1      -3.584 -14.921  13.095  0.00  0.00    +0.178 C 
BRANCH  19  21
ATOM      4  O   UNL     1      -3.957 -15.106  15.490  0.00  0.00    -0.466 OA
ATOM     21  C   UNL     1      -4.407 -14.604  14.310  0.00  0.00    +0.122 A 
ATOM     24  C   UNL     1      -5.566 -13.888  14.501  0.00  0.00    +0.046 A 
ATOM     27  C   UNL     1      -5.845 -13.953  15.886  0.00  0.00    +0.041 A 
ATOM     28  C   UNL     1      -4.837 -14.705  16.444  0.00  0.00    +0.195 A 
ENDBRANCH  19  21
ENDBRANCH   6  19
ENDBRANCH  14  16
ENDBRANCH   8  14
TORSDOF 7
ENDMDL
MODEL 5
REMARK VINA RESULT:      -6.1     27.473     29.574
REMARK  Name = 26742923
REMARK  7 active torsions:
REMARK  status: ('A' for Active; 'I' for Inactive)
REMARK    1  A    between atoms: N_6  and  C_19
REMARK    2  A    between atoms: C_8  and  C_14
REMARK    3  A    between atoms: C_9  and  C_13
REMARK    4  A    between atoms: C_13  and  C_15
REMARK    5  A    between atoms: C_14  and  C_16
REMARK    6  A    between atoms: C_18  and  C_20
REMARK    7  A    between atoms: C_19  and  C_21
REMARK                            x       y       z     vdW  Elec       q    Type
REMARK                         _______ _______ _______ _____ _____    ______ ____
ROOT
ATOM      5  N   UNL     1      -7.026 -10.288  19.708  0.00  0.00    -0.316 NA
ATOM      8  C   UNL     1      -5.652 -11.666  17.490  0.00  0.00    +0.004 C 
ATOM      9  C   UNL     1      -7.063 -11.047  17.344  0.00  0.00    +0.012 C 
ATOM     10  C   UNL     1      -4.906 -10.951  18.629  0.00  0.00    +0.019 C 
ATOM     11  C   UNL     1      -7.804 -10.998  18.691  0.00  0.00    +0.085 C 
ATOM     12  C   UNL     1      -5.718 -10.905  19.921  0.00  0.00    +0.081 C 
ATOM     30  H   UNL     1      -7.545 -10.284  20.586  0.00  0.00    +0.122 HD
ENDROOT
BRANCH   9  13
ATOM     13  C   UNL     1      -7.918 -11.747  16.287  0.00  0.00    +0.064 C 
BRANCH  13  15
ATOM      3  O   UNL     1      -6.552 -12.335  13.009  0.00  0.00    -0.354 OA
ATOM      7  N   UNL     1      -7.169 -12.762  14.178  0.00  0.00    -0.083 NA
ATOM     15  C   UNL     1      -7.285 -11.663  14.929  0.00  0.00    +0.085 A 
ATOM     17  C   UNL     1      -6.763 -10.523  14.291  0.00  0.00    +0.076 A 
ATOM     18  C   UNL     1      -6.315 -11.001  13.087  0.00  0.00    +0.167 A 
BRANCH  18  20
ATOM      1  F   UNL     1      -3.844  -8.722   8.655  0.00  0.00    -0.205 F 
ATOM     20  C   UNL     1      -5.678 -10.414  11.945  0.00  0.00    +0.020 A 
ATOM     22  C   UNL     1      -5.169 -11.229  10.934  0.00  0.00    +0.014 A 
ATOM     23  C   UNL     1      -5.568  -9.027  11.844  0.00  0.00    +0.014 A 
ATOM     25  C   UNL     1      -4.549 -10.657   9.823  0.00  0.00    +0.039 A 
ATOM     26  C   UNL     1      -4.949  -8.455  10.732  0.00  0.00    +0.039 A 
ATOM     29  C   UNL     1      -4.439  -9.270   9.722  0.00  0.00    +0.123 A 
ENDBRANCH  18  20
ENDBRANCH  13  15
ENDBRANCH   9  13
BRANCH   8  14
ATOM     14  C   UNL     1      -5.656 -13.183  17.709  0.00  0.00    +0.099 C 
BRANCH  14  16
ATOM      2  O   UNL     1      -5.382 -15.076  16.228  0.00  0.00    -0.276 OA
ATOM      6  N   UNL     1      -4.120 -13.159  15.873  0.00  0.00    -0.308 N 
ATOM     16  C   UNL     1      -5.061 -13.932  16.536  0.00  0.00    +0.214 C 
ATOM     31  H   UNL     1      -3.911 -12.226  16.218  0.00  0.00    +0.149 HD
BRANCH   6  19
ATOM     19  C   UNL     1      -3.390 -13.622  14.715  0.00  0.00    +0.178 C 
BRANCH  19  21
ATOM      4  O   UNL     1      -2.956 -11.245  14.450  0.00  0.00    -0.466 OA
ATOM     21  C   UNL     1      -2.841 -12.484  13.904  0.00  0.00    +0.122 A 
ATOM     24  C   UNL     1      -2.221 -12.416  12.678  0.00  0.00    +0.046 A 
ATOM     27  C   UNL     1      -1.936 -11.048  12.457  0.00  0.00    +0.041 A 
ATOM     28  C   UNL     1      -2.403 -10.376  13.564  0.00  0.00    +0.195 A 
ENDBRANCH  19  21
ENDBRANCH   6  19
ENDBRANCH  14  16
ENDBRANCH   8  14
TORSDOF 7
ENDMDL
MODEL 6
REMARK VINA RESULT:      -6.0     17.524     21.481
REMARK  Name = 26742923
REMARK  7 active torsions:
REMARK  status: ('A' for Active; 'I' for Inactive)
REMARK    1  A    between atoms: N_6  and  C_19
REMARK    2  A    between atoms: C_8  and  C_14
REMARK    3  A    between atoms: C_9  and  C_13
REMARK    4  A    between atoms: C_13  and  C_15
REMARK    5  A    between atoms: C_14  and  C_16
REMARK    6  A    between atoms: C_18  and  C_20
REMARK    7  A    between atoms: C_19  and  C_21
REMARK                            x       y       z     vdW  Elec       q    Type
REMARK                         _______ _______ _______ _____ _____    ______ ____
ROOT
ATOM      5  N   UNL     1      15.215   3.891   1.509  0.00  0.00    -0.316 NA
ATOM      8  C   UNL     1      13.263   4.509  -0.616  0.00  0.00    +0.004 C 
ATOM      9  C   UNL     1      12.879   4.454   0.882  0.00  0.00    +0.012 C 
ATOM     10  C   UNL     1      14.766   4.813  -0.738  0.00  0.00    +0.019 C 
ATOM     11  C   UNL     1      13.809   3.519   1.673  0.00  0.00    +0.085 C 
ATOM     12  C   UNL     1      15.622   3.871   0.105  0.00  0.00    +0.081 C 
ATOM     30  H   UNL     1      15.798   3.245   2.039  0.00  0.00    +0.122 HD
ENDROOT
BRANCH   9  13
ATOM     13  C   UNL     1      11.415   4.077   1.112  0.00  0.00    +0.064 C 
BRANCH  13  15
ATOM      3  O   UNL     1       9.965   6.202   3.630  0.00  0.00    -0.354 OA
ATOM      7  N   UNL     1      10.359   5.934   2.325  0.00  0.00    -0.083 NA
ATOM     15  C   UNL     1      10.878   4.705   2.365  0.00  0.00    +0.085 A 
ATOM     17  C   UNL     1      10.840   4.151   3.657  0.00  0.00    +0.076 A 
ATOM     18  C   UNL     1      10.257   5.133   4.415  0.00  0.00    +0.167 A 
BRANCH  18  20
ATOM      1  F   UNL     1       8.893   5.635   9.784  0.00  0.00    -0.205 F 
ATOM     20  C   UNL     1       9.906   5.262   5.798  0.00  0.00    +0.020 A 
ATOM     22  C   UNL     1       9.418   6.476   6.284  0.00  0.00    +0.014 A 
ATOM     23  C   UNL     1      10.051   4.175   6.659  0.00  0.00    +0.014 A 
ATOM     25  C   UNL     1       9.076   6.602   7.630  0.00  0.00    +0.039 A 
ATOM     26  C   UNL     1       9.709   4.301   8.006  0.00  0.00    +0.039 A 
ATOM     29  C   UNL     1       9.221   5.514   8.491  0.00  0.00    +0.123 A 
ENDBRANCH  18  20
ENDBRANCH  13  15
ENDBRANCH   9  13
BRANCH   8  14
ATOM     14  C   UNL     1      12.897   3.244  -1.400  0.00  0.00    +0.099 C 
BRANCH  14  16
ATOM      2  O   UNL     1      12.538   4.163  -3.609  0.00  0.00    -0.276 OA
ATOM      6  N   UNL     1      10.796   3.064  -2.534  0.00  0.00    -0.308 N 
ATOM     16  C   UNL     1      12.089   3.554  -2.642  0.00  0.00    +0.214 C 
ATOM     31  H   UNL     1      10.515   2.587  -1.682  0.00  0.00    +0.149 HD
BRANCH   6  19
ATOM     19  C   UNL     1       9.804   3.218  -3.573  0.00  0.00    +0.178 C 
BRANCH  19  21
ATOM      4  O   UNL     1       8.136   4.778  -4.407  0.00  0.00    -0.466 OA
ATOM     21  C   UNL     1       9.009   4.481  -3.409  0.00  0.00    +0.122 A 
ATOM     24  C   UNL     1       8.968   5.447  -2.429  0.00  0.00    +0.046 A 
ATOM     27  C   UNL     1       8.009   6.396  -2.852  0.00  0.00    +0.041 A 
ATOM     28  C   UNL     1       7.532   5.945  -4.062  0.00  0.00    +0.195 A 
ENDBRANCH  19  21
ENDBRANCH   6  19
ENDBRANCH  14  16
ENDBRANCH   8  14
TORSDOF 7
ENDMDL
MODEL 7
REMARK VINA RESULT:      -5.9     26.894     29.481
REMARK  Name = 26742923
REMARK  7 active torsions:
REMARK  status: ('A' for Active; 'I' for Inactive)
REMARK    1  A    between atoms: N_6  and  C_19
REMARK    2  A    between atoms: C_8  and  C_14
REMARK    3  A    between atoms: C_9  and  C_13
REMARK    4  A    between atoms: C_13  and  C_15
REMARK    5  A    between atoms: C_14  and  C_16
REMARK    6  A    between atoms: C_18  and  C_20
REMARK    7  A    between atoms: C_19  and  C_21
REMARK                            x       y       z     vdW  Elec       q    Type
REMARK                         _______ _______ _______ _____ _____    ______ ____
ROOT
ATOM      5  N   UNL     1      -8.815 -12.501  19.103  0.00  0.00    -0.316 NA
ATOM      8  C   UNL     1      -6.861 -11.142  17.360  0.00  0.00    +0.004 C 
ATOM      9  C   UNL     1      -7.707 -12.348  16.886  0.00  0.00    +0.012 C 
ATOM     10  C   UNL     1      -7.593 -10.437  18.514  0.00  0.00    +0.019 C 
ATOM     11  C   UNL     1      -8.114 -13.253  18.061  0.00  0.00    +0.085 C 
ATOM     12  C   UNL     1      -8.001 -11.404  19.623  0.00  0.00    +0.081 C 
ATOM     30  H   UNL     1      -9.060 -13.132  19.866  0.00  0.00    +0.122 HD
ENDROOT
BRANCH   9  13
ATOM     13  C   UNL     1      -7.024 -13.165  15.790  0.00  0.00    +0.064 C 
BRANCH  13  15
ATOM      3  O   UNL     1      -7.547 -11.337  12.733  0.00  0.00    -0.354 OA
ATOM      7  N   UNL     1      -8.008 -12.040  13.839  0.00  0.00    -0.083 NA
ATOM     15  C   UNL     1      -6.907 -12.382  14.515  0.00  0.00    +0.085 A 
ATOM     17  C   UNL     1      -5.733 -11.926  13.889  0.00  0.00    +0.076 A 
ATOM     18  C   UNL     1      -6.191 -11.276  12.773  0.00  0.00    +0.167 A 
BRANCH  18  20
ATOM      1  F   UNL     1      -3.774  -8.558   8.564  0.00  0.00    -0.205 F 
ATOM     20  C   UNL     1      -5.568 -10.576  11.689  0.00  0.00    +0.020 A 
ATOM     22  C   UNL     1      -5.574  -9.181  11.663  0.00  0.00    +0.014 A 
ATOM     23  C   UNL     1      -4.955 -11.289  10.658  0.00  0.00    +0.014 A 
ATOM     25  C   UNL     1      -4.968  -8.499  10.608  0.00  0.00    +0.039 A 
ATOM     26  C   UNL     1      -4.349 -10.607   9.603  0.00  0.00    +0.039 A 
ATOM     29  C   UNL     1      -4.355  -9.213   9.577  0.00  0.00    +0.123 A 
ENDBRANCH  18  20
ENDBRANCH  13  15
ENDBRANCH   9  13
BRANCH   8  14
ATOM     14  C   UNL     1      -5.428 -11.507  17.765  0.00  0.00    +0.099 C 
BRANCH  14  16
ATOM      2  O   UNL     1      -4.627  -9.585  16.533  0.00  0.00    -0.276 OA
ATOM      6  N   UNL     1      -3.180 -11.354  16.955  0.00  0.00    -0.308 N 
ATOM     16  C   UNL     1      -4.396 -10.690  17.016  0.00  0.00    +0.214 C 
ATOM     31  H   UNL     1      -3.096 -12.276  17.373  0.00  0.00    +0.149 HD
BRANCH   6  19
ATOM     19  C   UNL     1      -2.015 -10.808  16.298  0.00  0.00    +0.178 C 
BRANCH  19  21
ATOM      4  O   UNL     1      -1.740 -12.449  14.526  0.00  0.00    -0.466 OA
ATOM     21  C   UNL     1      -1.983 -11.148  14.836  0.00  0.00    +0.122 A 
ATOM     24  C   UNL     1      -2.151 -10.403  13.692  0.00  0.00    +0.046 A 
ATOM     27  C   UNL     1      -2.003 -11.302  12.611  0.00  0.00    +0.041 A 
ATOM     28  C   UNL     1      -1.754 -12.535  13.169  0.00  0.00    +0.195 A 
ENDBRANCH  19  21
ENDBRANCH   6  19
ENDBRANCH  14  16
ENDBRANCH   8  14
TORSDOF 7
ENDMDL
MODEL 8
REMARK VINA RESULT:      -5.8     28.525     31.524
REMARK  Name = 26742923
REMARK  7 active torsions:
REMARK  status: ('A' for Active; 'I' for Inactive)
REMARK    1  A    between atoms: N_6  and  C_19
REMARK    2  A    between atoms: C_8  and  C_14
REMARK    3  A    between atoms: C_9  and  C_13
REMARK    4  A    between atoms: C_13  and  C_15
REMARK    5  A    between atoms: C_14  and  C_16
REMARK    6  A    between atoms: C_18  and  C_20
REMARK    7  A    between atoms: C_19  and  C_21
REMARK                            x       y       z     vdW  Elec       q    Type
REMARK                         _______ _______ _______ _____ _____    ______ ____
ROOT
ATOM      5  N   UNL     1     -13.600  -9.776  19.146  0.00  0.00    -0.316 NA
ATOM      8  C   UNL     1     -10.655  -9.816  18.982  0.00  0.00    +0.004 C 
ATOM      9  C   UNL     1     -11.542  -9.123  17.920  0.00  0.00    +0.012 C 
ATOM     10  C   UNL     1     -11.425  -9.887  20.311  0.00  0.00    +0.019 C 
ATOM     11  C   UNL     1     -12.938  -9.764  17.841  0.00  0.00    +0.085 C 
ATOM     12  C   UNL     1     -12.816 -10.497  20.147  0.00  0.00    +0.081 C 
ATOM     30  H   UNL     1     -14.516 -10.215  19.055  0.00  0.00    +0.122 HD
ENDROOT
BRANCH   9  13
ATOM     13  C   UNL     1     -10.894  -9.075  16.536  0.00  0.00    +0.064 C 
BRANCH  13  15
ATOM      3  O   UNL     1     -10.972  -5.745  15.171  0.00  0.00    -0.354 OA
ATOM      7  N   UNL     1     -10.388  -6.746  15.938  0.00  0.00    -0.083 NA
ATOM     15  C   UNL     1     -11.212  -7.791  15.827  0.00  0.00    +0.085 A 
ATOM     17  C   UNL     1     -12.323  -7.512  15.010  0.00  0.00    +0.076 A 
ATOM     18  C   UNL     1     -12.123  -6.212  14.624  0.00  0.00    +0.167 A 
BRANCH  18  20
ATOM      1  F   UNL     1     -14.911  -2.612  11.428  0.00  0.00    -0.205 F 
ATOM     20  C   UNL     1     -12.842  -5.285  13.800  0.00  0.00    +0.020 A 
ATOM     22  C   UNL     1     -12.147  -4.359  13.022  0.00  0.00    +0.014 A 
ATOM     23  C   UNL     1     -14.236  -5.308  13.777  0.00  0.00    +0.014 A 
ATOM     25  C   UNL     1     -12.845  -3.456  12.220  0.00  0.00    +0.039 A 
ATOM     26  C   UNL     1     -14.935  -4.405  12.975  0.00  0.00    +0.039 A 
ATOM     29  C   UNL     1     -14.240  -3.479  12.197  0.00  0.00    +0.123 A 
ENDBRANCH  18  20
ENDBRANCH  13  15
ENDBRANCH   9  13
BRANCH   8  14
ATOM     14  C   UNL     1     -10.154 -11.203  18.566  0.00  0.00    +0.099 C 
BRANCH  14  16
ATOM      2  O   UNL     1      -8.558 -12.630  19.693  0.00  0.00    -0.276 OA
ATOM      6  N   UNL     1      -7.944 -10.465  19.118  0.00  0.00    -0.308 N 
ATOM     16  C   UNL     1      -8.816 -11.540  19.191  0.00  0.00    +0.214 C 
ATOM     31  H   UNL     1      -8.261  -9.596  18.696  0.00  0.00    +0.149 HD
BRANCH   6  19
ATOM     19  C   UNL     1      -6.597 -10.504  19.638  0.00  0.00    +0.178 C 
BRANCH  19  21
ATOM      4  O   UNL     1      -5.827 -10.127  17.363  0.00  0.00    -0.466 OA
ATOM     21  C   UNL     1      -5.582 -10.732  18.554  0.00  0.00    +0.122 A 
ATOM     24  C   UNL     1      -4.410 -11.450  18.499  0.00  0.00    +0.046 A 
ATOM     27  C   UNL     1      -3.902 -11.275  17.191  0.00  0.00    +0.041 A 
ATOM     28  C   UNL     1      -4.800 -10.462  16.538  0.00  0.00    +0.195 A 
ENDBRANCH  19  21
ENDBRANCH   6  19
ENDBRANCH  14  16
ENDBRANCH   8  14
TORSDOF 7
ENDMDL
MODEL 9
REMARK VINA RESULT:      -5.8     28.651     30.705
REMARK  Name = 26742923
REMARK  7 active torsions:
REMARK  status: ('A' for Active; 'I' for Inactive)
REMARK    1  A    between atoms: N_6  and  C_19
REMARK    2  A    between atoms: C_8  and  C_14
REMARK    3  A    between atoms: C_9  and  C_13
REMARK    4  A    between atoms: C_13  and  C_15
REMARK    5  A    between atoms: C_14  and  C_16
REMARK    6  A    between atoms: C_18  and  C_20
REMARK    7  A    between atoms: C_19  and  C_21
REMARK                            x       y       z     vdW  Elec       q    Type
REMARK                         _______ _______ _______ _____ _____    ______ ____
ROOT
ATOM      5  N   UNL     1     -13.235 -10.135  14.628  0.00  0.00    -0.316 NA
ATOM      8  C   UNL     1     -11.922  -7.545  14.101  0.00  0.00    +0.004 C 
ATOM      9  C   UNL     1     -11.309  -8.620  15.030  0.00  0.00    +0.012 C 
ATOM     10  C   UNL     1     -12.869  -8.229  13.101  0.00  0.00    +0.019 C 
ATOM     11  C   UNL     1     -12.391  -9.517  15.653  0.00  0.00    +0.085 C 
ATOM     12  C   UNL     1     -13.889  -9.134  13.788  0.00  0.00    +0.081 C 
ATOM     30  H   UNL     1     -13.943 -10.713  15.079  0.00  0.00    +0.122 HD
ENDROOT
BRANCH   9  13
ATOM     13  C   UNL     1     -10.410  -8.029  16.117  0.00  0.00    +0.064 C 
BRANCH  13  15
ATOM      3  O   UNL     1      -7.568 -10.225  15.877  0.00  0.00    -0.354 OA
ATOM      7  N   UNL     1      -8.655  -9.557  15.327  0.00  0.00    -0.083 NA
ATOM     15  C   UNL     1      -9.195  -8.880  16.344  0.00  0.00    +0.085 A 
ATOM     17  C   UNL     1      -8.497  -9.079  17.549  0.00  0.00    +0.076 A 
ATOM     18  C   UNL     1      -7.484  -9.934  17.200  0.00  0.00    +0.167 A 
BRANCH  18  20
ATOM      1  F   UNL     1      -3.286 -12.345  19.940  0.00  0.00    -0.205 F 
ATOM     20  C   UNL     1      -6.402 -10.555  17.906  0.00  0.00    +0.020 A 
ATOM     22  C   UNL     1      -5.226 -10.884  17.232  0.00  0.00    +0.014 A 
ATOM     23  C   UNL     1      -6.525 -10.830  19.268  0.00  0.00    +0.014 A 
ATOM     25  C   UNL     1      -4.173 -11.489  17.919  0.00  0.00    +0.039 A 
ATOM     26  C   UNL     1      -5.472 -11.434  19.955  0.00  0.00    +0.039 A 
ATOM     29  C   UNL     1      -4.297 -11.764  19.281  0.00  0.00    +0.123 A 
ENDBRANCH  18  20
ENDBRANCH  13  15
ENDBRANCH   9  13
BRANCH   8  14
ATOM     14  C   UNL     1     -12.639  -6.413  14.845  0.00  0.00    +0.099 C 
BRANCH  14  16
ATOM      2  O   UNL     1     -14.321  -5.038  13.780  0.00  0.00    -0.276 OA
ATOM      6  N   UNL     1     -12.086  -4.744  13.219  0.00  0.00    -0.308 N 
ATOM     16  C   UNL     1     -13.136  -5.335  13.905  0.00  0.00    +0.214 C 
ATOM     31  H   UNL     1     -11.138  -5.075  13.381  0.00  0.00    +0.149 HD
BRANCH   6  19
ATOM     19  C   UNL     1     -12.269  -3.685  12.253  0.00  0.00    +0.178 C 
BRANCH  19  21
ATOM      4  O   UNL     1     -11.766  -5.433  10.640  0.00  0.00    -0.466 OA
ATOM     21  C   UNL     1     -11.829  -4.096  10.878  0.00  0.00    +0.122 A 
ATOM     24  C   UNL     1     -11.458  -3.389   9.758  0.00  0.00    +0.046 A 
ATOM     27  C   UNL     1     -11.149  -4.351   8.769  0.00  0.00    +0.041 A 
ATOM     28  C   UNL     1     -11.352  -5.580   9.354  0.00  0.00    +0.195 A 
ENDBRANCH  19  21
ENDBRANCH   6  19
ENDBRANCH  14  16
ENDBRANCH   8  14
TORSDOF 7
ENDMDL
MODEL 10
REMARK VINA RESULT:      -5.8     28.274     31.513
REMARK  Name = 26742923
REMARK  7 active torsions:
REMARK  status: ('A' for Active; 'I' for Inactive)
REMARK    1  A    between atoms: N_6  and  C_19
REMARK    2  A    between atoms: C_8  and  C_14
REMARK    3  A    between atoms: C_9  and  C_13
REMARK    4  A    between atoms: C_13  and  C_15
REMARK    5  A    between atoms: C_14  and  C_16
REMARK    6  A    between atoms: C_18  and  C_20
REMARK    7  A    between atoms: C_19  and  C_21
REMARK                            x       y       z     vdW  Elec       q    Type
REMARK                         _______ _______ _______ _____ _____    ______ ____
ROOT
ATOM      5  N   UNL     1      -3.583 -12.016  18.178  0.00  0.00    -0.316 NA
ATOM      8  C   UNL     1      -6.019 -10.828  17.011  0.00  0.00    +0.004 C 
ATOM      9  C   UNL     1      -6.062 -11.865  18.159  0.00  0.00    +0.012 C 
ATOM     10  C   UNL     1      -4.660 -10.110  17.033  0.00  0.00    +0.019 C 
ATOM     11  C   UNL     1      -4.829 -12.784  18.140  0.00  0.00    +0.085 C 
ATOM     12  C   UNL     1      -3.485 -11.085  17.055  0.00  0.00    +0.081 C 
ATOM     30  H   UNL     1      -2.792 -12.658  18.155  0.00  0.00    +0.122 HD
ENDROOT
BRANCH   9  13
ATOM     13  C   UNL     1      -7.348 -12.692  18.172  0.00  0.00    +0.064 C 
BRANCH  13  15
ATOM      3  O   UNL     1      -9.562 -10.630  20.123  0.00  0.00    -0.354 OA
ATOM      7  N   UNL     1      -8.328 -11.220  19.878  0.00  0.00    -0.083 NA
ATOM     15  C   UNL     1      -8.494 -11.912  18.748  0.00  0.00    +0.085 A 
ATOM     17  C   UNL     1      -9.800 -11.797  18.238  0.00  0.00    +0.076 A 
ATOM     18  C   UNL     1     -10.430 -10.981  19.141  0.00  0.00    +0.167 A 
BRANCH  18  20
ATOM      1  F   UNL     1     -15.566  -8.895  19.599  0.00  0.00    -0.205 F 
ATOM     20  C   UNL     1     -11.754 -10.443  19.259  0.00  0.00    +0.020 A 
ATOM     22  C   UNL     1     -12.251 -10.084  20.511  0.00  0.00    +0.014 A 
ATOM     23  C   UNL     1     -12.544 -10.280  18.121  0.00  0.00    +0.014 A 
ATOM     25  C   UNL     1     -13.539  -9.560  20.626  0.00  0.00    +0.039 A 
ATOM     26  C   UNL     1     -13.832  -9.756  18.236  0.00  0.00    +0.039 A 
ATOM     29  C   UNL     1     -14.330  -9.397  19.488  0.00  0.00    +0.123 A 
ENDBRANCH  18  20
ENDBRANCH  13  15
ENDBRANCH   9  13
BRANCH   8  14
ATOM     14  C   UNL     1      -6.301 -11.420  15.625  0.00  0.00    +0.099 C 
BRANCH  14  16
ATOM      2  O   UNL     1      -6.600  -9.831  13.826  0.00  0.00    -0.276 OA
ATOM      6  N   UNL     1      -8.426 -10.437  15.128  0.00  0.00    -0.308 N 
ATOM     16  C   UNL     1      -7.093 -10.474  14.748  0.00  0.00    +0.214 C 
ATOM     31  H   UNL     1      -8.733 -10.996  15.919  0.00  0.00    +0.149 HD
BRANCH   6  19
ATOM     19  C   UNL     1      -9.414  -9.616  14.465  0.00  0.00    +0.178 C 
BRANCH  19  21
ATOM      4  O   UNL     1     -11.005  -7.826  14.879  0.00  0.00    -0.466 OA
ATOM     21  C   UNL     1     -10.010  -8.596  15.392  0.00  0.00    +0.122 A 
ATOM     24  C   UNL     1      -9.761  -8.254  16.701  0.00  0.00    +0.046 A 
ATOM     27  C   UNL     1     -10.660  -7.208  17.013  0.00  0.00    +0.041 A 
ATOM     28  C   UNL     1     -11.396  -6.984  15.872  0.00  0.00    +0.195 A 
ENDBRANCH  19  21
ENDBRANCH   6  19
ENDBRANCH  14  16
ENDBRANCH   8  14
TORSDOF 7
ENDMDL
