MODEL 1
REMARK VINA RESULT:      -7.1      0.000      0.000
REMARK  Name = 45360866
REMARK  8 active torsions:
REMARK  status: ('A' for Active; 'I' for Inactive)
REMARK    1  A    between atoms: O_6  and  C_30
REMARK    2  A    between atoms: O_6  and  C_33
REMARK    3  A    between atoms: N_7  and  C_20
REMARK    4  A    between atoms: N_8  and  C_19
REMARK    5  A    between atoms: C_15  and  C_18
REMARK    6  A    between atoms: C_18  and  C_21
REMARK    7  A    between atoms: C_19  and  C_22
REMARK    8  A    between atoms: C_21  and  C_23
REMARK                            x       y       z     vdW  Elec       q    Type
REMARK                         _______ _______ _______ _____ _____    ______ ____
ROOT
ATOM      4  O   UNL     1     -14.753   4.614  23.931  0.00  0.00    -0.274 OA
ATOM      7  N   UNL     1     -17.393   1.888  24.699  0.00  0.00    -0.296 NA
ATOM      8  N   UNL     1     -17.033   4.786  22.494  0.00  0.00    -0.286 NA
ATOM      9  N   UNL     1     -15.785   3.977  25.871  0.00  0.00    -0.312 N 
ATOM     11  C   UNL     1     -17.920   2.996  23.873  0.00  0.00    +0.084 C 
ATOM     12  C   UNL     1     -17.174   4.362  23.900  0.00  0.00    +0.161 C 
ATOM     13  C   UNL     1     -17.965   2.685  22.365  0.00  0.00    +0.036 C 
ATOM     14  C   UNL     1     -18.033   4.054  21.724  0.00  0.00    +0.087 C 
ATOM     15  C   UNL     1     -17.425   2.145  26.167  0.00  0.00    +0.074 C 
ATOM     16  C   UNL     1     -15.786   4.327  24.534  0.00  0.00    +0.232 C 
ATOM     17  C   UNL     1     -16.972   3.556  26.589  0.00  0.00    +0.123 C 
ATOM     20  C   UNL     1     -18.085   0.626  24.388  0.00  0.00    +0.105 C 
ATOM     34  H   UNL     1     -14.902   4.012  26.372  0.00  0.00    +0.149 HD
ENDROOT
BRANCH  15  18
ATOM     18  C   UNL     1     -16.533   1.129  26.912  0.00  0.00    +0.029 C 
BRANCH  18  21
ATOM     21  C   UNL     1     -16.751   1.176  28.412  0.00  0.00    +0.097 C 
BRANCH  21  23
ATOM      5  O   UNL     1     -14.986  -0.270  29.098  0.00  0.00    -0.276 OA
ATOM     10  N   UNL     1     -14.943   1.900  29.891  0.00  0.00    -0.301 N 
ATOM     23  C   UNL     1     -15.480   0.858  29.158  0.00  0.00    +0.216 C 
ATOM     24  C   UNL     1     -15.473   3.255  30.000  0.00  0.00    +0.108 C 
ATOM     25  C   UNL     1     -13.723   1.752  30.672  0.00  0.00    +0.108 C 
ATOM     26  C   UNL     1     -14.670   3.887  31.128  0.00  0.00    +0.020 C 
ATOM     27  C   UNL     1     -13.327   3.176  31.031  0.00  0.00    +0.020 C 
ENDBRANCH  21  23
ENDBRANCH  18  21
ENDBRANCH  15  18
BRANCH   8  19
ATOM     19  C   UNL     1     -17.148   6.227  22.312  0.00  0.00    +0.120 C 
BRANCH  19  22
ATOM     22  C   UNL     1     -16.284   6.719  21.181  0.00  0.00    -0.030 A 
ATOM     28  C   UNL     1     -14.962   7.095  21.427  0.00  0.00    +0.051 A 
ATOM     29  C   UNL     1     -16.803   6.801  19.890  0.00  0.00    +0.005 A 
ATOM     30  C   UNL     1     -14.162   7.553  20.380  0.00  0.00    +0.130 A 
ATOM     31  C   UNL     1     -16.003   7.259  18.843  0.00  0.00    +0.004 A 
ATOM     32  C   UNL     1     -14.682   7.634  19.088  0.00  0.00    +0.046 A 
BRANCH  30   6
ATOM      6  O   UNL     1     -12.874   7.920  20.619  0.00  0.00    -0.406 OA
BRANCH   6  33
ATOM      1  F   UNL     1     -12.218   5.794  21.148  0.00  0.00    -0.133 F 
ATOM      2  F   UNL     1     -10.730   7.394  21.093  0.00  0.00    -0.133 F 
ATOM      3  F   UNL     1     -11.578   6.659  19.218  0.00  0.00    -0.133 F 
ATOM     33  C   UNL     1     -11.858   6.928  20.510  0.00  0.00    +0.575 C 
ENDBRANCH   6  33
ENDBRANCH  30   6
ENDBRANCH  19  22
ENDBRANCH   8  19
TORSDOF 7
ENDMDL
MODEL 2
REMARK VINA RESULT:      -7.0     17.940     19.809
REMARK  Name = 45360866
REMARK  8 active torsions:
REMARK  status: ('A' for Active; 'I' for Inactive)
REMARK    1  A    between atoms: O_6  and  C_30
REMARK    2  A    between atoms: O_6  and  C_33
REMARK    3  A    between atoms: N_7  and  C_20
REMARK    4  A    between atoms: N_8  and  C_19
REMARK    5  A    between atoms: C_15  and  C_18
REMARK    6  A    between atoms: C_18  and  C_21
REMARK    7  A    between atoms: C_19  and  C_22
REMARK    8  A    between atoms: C_21  and  C_23
REMARK                            x       y       z     vdW  Elec       q    Type
REMARK                         _______ _______ _______ _____ _____    ______ ____
ROOT
ATOM      4  O   UNL     1      -5.869  -9.381  15.991  0.00  0.00    -0.274 OA
ATOM      7  N   UNL     1      -8.730 -10.548  18.325  0.00  0.00    -0.296 NA
ATOM      8  N   UNL     1      -5.602 -11.882  16.974  0.00  0.00    -0.286 NA
ATOM      9  N   UNL     1      -8.134  -9.521  15.695  0.00  0.00    -0.312 N 
ATOM     11  C   UNL     1      -7.828 -11.645  17.912  0.00  0.00    +0.084 C 
ATOM     12  C   UNL     1      -6.971 -11.456  16.626  0.00  0.00    +0.161 C 
ATOM     13  C   UNL     1      -6.758 -12.004  18.961  0.00  0.00    +0.036 C 
ATOM     14  C   UNL     1      -5.704 -12.733  18.154  0.00  0.00    +0.087 C 
ATOM     15  C   UNL     1      -9.821 -10.249  17.356  0.00  0.00    +0.074 C 
ATOM     16  C   UNL     1      -6.911 -10.027  16.094  0.00  0.00    +0.232 C 
ATOM     17  C   UNL     1      -9.388 -10.225  15.878  0.00  0.00    +0.123 C 
ATOM     20  C   UNL     1      -9.292 -10.806  19.662  0.00  0.00    +0.105 C 
ATOM     34  H   UNL     1      -8.151  -8.605  15.259  0.00  0.00    +0.149 HD
ENDROOT
BRANCH  15  18
ATOM     18  C   UNL     1     -10.466  -8.883  17.673  0.00  0.00    +0.029 C 
BRANCH  18  21
ATOM     21  C   UNL     1     -11.562  -8.531  16.687  0.00  0.00    +0.097 C 
BRANCH  21  23
ATOM      5  O   UNL     1     -10.069  -6.836  15.930  0.00  0.00    -0.276 OA
ATOM     10  N   UNL     1     -12.254  -6.728  15.185  0.00  0.00    -0.301 N 
ATOM     23  C   UNL     1     -11.214  -7.290  15.903  0.00  0.00    +0.216 C 
ATOM     24  C   UNL     1     -13.626  -7.217  15.108  0.00  0.00    +0.108 C 
ATOM     25  C   UNL     1     -12.081  -5.525  14.384  0.00  0.00    +0.108 C 
ATOM     26  C   UNL     1     -14.393  -6.089  14.431  0.00  0.00    +0.020 C 
ATOM     27  C   UNL     1     -13.341  -5.452  13.533  0.00  0.00    +0.020 C 
ENDBRANCH  21  23
ENDBRANCH  18  21
ENDBRANCH  15  18
BRANCH   8  19
ATOM     19  C   UNL     1      -4.908 -12.546  15.878  0.00  0.00    +0.120 C 
BRANCH  19  22
ATOM     22  C   UNL     1      -3.698 -11.770  15.428  0.00  0.00    -0.030 A 
ATOM     28  C   UNL     1      -3.314 -11.795  14.086  0.00  0.00    +0.051 A 
ATOM     29  C   UNL     1      -2.963 -11.027  16.350  0.00  0.00    +0.005 A 
ATOM     30  C   UNL     1      -2.193 -11.078  13.669  0.00  0.00    +0.130 A 
ATOM     31  C   UNL     1      -1.841 -10.310  15.933  0.00  0.00    +0.004 A 
ATOM     32  C   UNL     1      -1.456 -10.334  14.592  0.00  0.00    +0.046 A 
BRANCH  30   6
ATOM      6  O   UNL     1      -1.817 -11.103  12.362  0.00  0.00    -0.406 OA
BRANCH   6  33
ATOM      1  F   UNL     1      -3.563  -9.661  12.042  0.00  0.00    -0.133 F 
ATOM      2  F   UNL     1      -3.018 -11.056  10.450  0.00  0.00    -0.133 F 
ATOM      3  F   UNL     1      -1.706  -9.362  10.882  0.00  0.00    -0.133 F 
ATOM     33  C   UNL     1      -2.524 -10.279  11.441  0.00  0.00    +0.575 C 
ENDBRANCH   6  33
ENDBRANCH  30   6
ENDBRANCH  19  22
ENDBRANCH   8  19
TORSDOF 7
ENDMDL
MODEL 3
REMARK VINA RESULT:      -6.9     16.490     18.799
REMARK  Name = 45360866
REMARK  8 active torsions:
REMARK  status: ('A' for Active; 'I' for Inactive)
REMARK    1  A    between atoms: O_6  and  C_30
REMARK    2  A    between atoms: O_6  and  C_33
REMARK    3  A    between atoms: N_7  and  C_20
REMARK    4  A    between atoms: N_8  and  C_19
REMARK    5  A    between atoms: C_15  and  C_18
REMARK    6  A    between atoms: C_18  and  C_21
REMARK    7  A    between atoms: C_19  and  C_22
REMARK    8  A    between atoms: C_21  and  C_23
REMARK                            x       y       z     vdW  Elec       q    Type
REMARK                         _______ _______ _______ _____ _____    ______ ____
ROOT
ATOM      4  O   UNL     1      -7.814  -8.927  17.260  0.00  0.00    -0.274 OA
ATOM      7  N   UNL     1     -11.674  -9.129  17.040  0.00  0.00    -0.296 NA
ATOM      8  N   UNL     1      -8.833 -11.427  17.225  0.00  0.00    -0.286 NA
ATOM      9  N   UNL     1      -9.314  -8.076  15.756  0.00  0.00    -0.312 N 
ATOM     11  C   UNL     1     -11.007 -10.429  16.813  0.00  0.00    +0.084 C 
ATOM     12  C   UNL     1      -9.512 -10.430  16.377  0.00  0.00    +0.161 C 
ATOM     13  C   UNL     1     -10.980 -11.343  18.052  0.00  0.00    +0.036 C 
ATOM     14  C   UNL     1      -9.864 -12.319  17.747  0.00  0.00    +0.087 C 
ATOM     15  C   UNL     1     -11.782  -8.271  15.826  0.00  0.00    +0.074 C 
ATOM     16  C   UNL     1      -8.793  -9.093  16.535  0.00  0.00    +0.232 C 
ATOM     17  C   UNL     1     -10.513  -8.218  14.954  0.00  0.00    +0.123 C 
ATOM     20  C   UNL     1     -13.001  -9.319  17.649  0.00  0.00    +0.105 C 
ATOM     34  H   UNL     1      -8.832  -7.183  15.755  0.00  0.00    +0.149 HD
ENDROOT
BRANCH  15  18
ATOM     18  C   UNL     1     -12.136  -6.821  16.220  0.00  0.00    +0.029 C 
BRANCH  18  21
ATOM     21  C   UNL     1     -12.117  -5.889  15.024  0.00  0.00    +0.097 C 
BRANCH  21  23
ATOM      5  O   UNL     1     -14.463  -6.297  14.943  0.00  0.00    -0.276 OA
ATOM     10  N   UNL     1     -13.604  -4.768  13.438  0.00  0.00    -0.301 N 
ATOM     23  C   UNL     1     -13.506  -5.678  14.475  0.00  0.00    +0.216 C 
ATOM     24  C   UNL     1     -12.515  -4.002  12.843  0.00  0.00    +0.108 C 
ATOM     25  C   UNL     1     -14.874  -4.459  12.795  0.00  0.00    +0.108 C 
ATOM     26  C   UNL     1     -13.123  -3.390  11.588  0.00  0.00    +0.020 C 
ATOM     27  C   UNL     1     -14.587  -3.214  11.969  0.00  0.00    +0.020 C 
ENDBRANCH  21  23
ENDBRANCH  18  21
ENDBRANCH  15  18
BRANCH   8  19
ATOM     19  C   UNL     1      -7.780 -12.155  16.530  0.00  0.00    +0.120 C 
BRANCH  19  22
ATOM     22  C   UNL     1      -6.428 -11.911  17.147  0.00  0.00    -0.030 A 
ATOM     28  C   UNL     1      -5.483 -11.137  16.470  0.00  0.00    +0.051 A 
ATOM     29  C   UNL     1      -6.120 -12.456  18.392  0.00  0.00    +0.005 A 
ATOM     30  C   UNL     1      -4.230 -10.912  17.041  0.00  0.00    +0.130 A 
ATOM     31  C   UNL     1      -4.867 -12.230  18.963  0.00  0.00    +0.004 A 
ATOM     32  C   UNL     1      -3.922 -11.458  18.287  0.00  0.00    +0.046 A 
BRANCH  30   6
ATOM      6  O   UNL     1      -3.308 -10.160  16.380  0.00  0.00    -0.406 OA
BRANCH   6  33
ATOM      1  F   UNL     1      -1.163 -10.950  16.381  0.00  0.00    -0.133 F 
ATOM      2  F   UNL     1      -1.995 -10.105  14.545  0.00  0.00    -0.133 F 
ATOM      3  F   UNL     1      -2.704 -12.050  15.243  0.00  0.00    -0.133 F 
ATOM     33  C   UNL     1      -2.289 -10.832  15.648  0.00  0.00    +0.575 C 
ENDBRANCH   6  33
ENDBRANCH  30   6
ENDBRANCH  19  22
ENDBRANCH   8  19
TORSDOF 7
ENDMDL
MODEL 4
REMARK VINA RESULT:      -6.9     30.683     35.559
REMARK  Name = 45360866
REMARK  8 active torsions:
REMARK  status: ('A' for Active; 'I' for Inactive)
REMARK    1  A    between atoms: O_6  and  C_30
REMARK    2  A    between atoms: O_6  and  C_33
REMARK    3  A    between atoms: N_7  and  C_20
REMARK    4  A    between atoms: N_8  and  C_19
REMARK    5  A    between atoms: C_15  and  C_18
REMARK    6  A    between atoms: C_18  and  C_21
REMARK    7  A    between atoms: C_19  and  C_22
REMARK    8  A    between atoms: C_21  and  C_23
REMARK                            x       y       z     vdW  Elec       q    Type
REMARK                         _______ _______ _______ _____ _____    ______ ____
ROOT
ATOM      4  O   UNL     1      12.078   7.932   5.055  0.00  0.00    -0.274 OA
ATOM      7  N   UNL     1      13.981   7.684   1.693  0.00  0.00    -0.296 NA
ATOM      8  N   UNL     1      10.993   6.251   3.242  0.00  0.00    -0.286 NA
ATOM      9  N   UNL     1      14.246   7.400   4.551  0.00  0.00    -0.312 N 
ATOM     11  C   UNL     1      12.948   6.638   1.858  0.00  0.00    +0.084 C 
ATOM     12  C   UNL     1      12.466   6.294   3.297  0.00  0.00    +0.161 C 
ATOM     13  C   UNL     1      11.621   6.951   1.141  0.00  0.00    +0.036 C 
ATOM     14  C   UNL     1      10.621   6.058   1.844  0.00  0.00    +0.087 C 
ATOM     15  C   UNL     1      15.297   7.353   2.309  0.00  0.00    +0.074 C 
ATOM     16  C   UNL     1      12.879   7.294   4.374  0.00  0.00    +0.232 C 
ATOM     17  C   UNL     1      15.216   6.723   3.712  0.00  0.00    +0.123 C 
ATOM     20  C   UNL     1      14.157   8.027   0.271  0.00  0.00    +0.105 C 
ATOM     34  H   UNL     1      14.584   7.989   5.305  0.00  0.00    +0.149 HD
ENDROOT
BRANCH  15  18
ATOM     18  C   UNL     1      16.175   8.619   2.419  0.00  0.00    +0.029 C 
BRANCH  18  21
ATOM     21  C   UNL     1      17.574   8.298   2.906  0.00  0.00    +0.097 C 
BRANCH  21  23
ATOM      5  O   UNL     1      17.079   9.782   4.702  0.00  0.00    -0.276 OA
ATOM     10  N   UNL     1      18.974   8.476   4.903  0.00  0.00    -0.301 N 
ATOM     23  C   UNL     1      17.841   8.926   4.251  0.00  0.00    +0.216 C 
ATOM     24  C   UNL     1      19.912   7.465   4.428  0.00  0.00    +0.108 C 
ATOM     25  C   UNL     1      19.373   8.989   6.206  0.00  0.00    +0.108 C 
ATOM     26  C   UNL     1      21.094   7.565   5.383  0.00  0.00    +0.020 C 
ATOM     27  C   UNL     1      20.445   8.019   6.684  0.00  0.00    +0.020 C 
ENDBRANCH  21  23
ENDBRANCH  18  21
ENDBRANCH  15  18
BRANCH   8  19
ATOM     19  C   UNL     1      10.412   5.234   4.109  0.00  0.00    +0.120 C 
BRANCH  19  22
ATOM     22  C   UNL     1       9.780   5.837   5.335  0.00  0.00    -0.030 A 
ATOM     28  C   UNL     1      10.238   5.477   6.603  0.00  0.00    +0.051 A 
ATOM     29  C   UNL     1       8.737   6.753   5.205  0.00  0.00    +0.005 A 
ATOM     30  C   UNL     1       9.652   6.033   7.740  0.00  0.00    +0.130 A 
ATOM     31  C   UNL     1       8.151   7.310   6.342  0.00  0.00    +0.004 A 
ATOM     32  C   UNL     1       8.609   6.950   7.610  0.00  0.00    +0.046 A 
BRANCH  30   6
ATOM      6  O   UNL     1      10.098   5.682   8.977  0.00  0.00    -0.406 OA
BRANCH   6  33
ATOM      1  F   UNL     1       8.244   5.167  10.212  0.00  0.00    -0.133 F 
ATOM      2  F   UNL     1      10.157   4.237  10.711  0.00  0.00    -0.133 F 
ATOM      3  F   UNL     1       9.111   3.620   8.895  0.00  0.00    -0.133 F 
ATOM     33  C   UNL     1       9.386   4.675   9.689  0.00  0.00    +0.575 C 
ENDBRANCH   6  33
ENDBRANCH  30   6
ENDBRANCH  19  22
ENDBRANCH   8  19
TORSDOF 7
ENDMDL
MODEL 5
REMARK VINA RESULT:      -6.8     30.197     35.356
REMARK  Name = 45360866
REMARK  8 active torsions:
REMARK  status: ('A' for Active; 'I' for Inactive)
REMARK    1  A    between atoms: O_6  and  C_30
REMARK    2  A    between atoms: O_6  and  C_33
REMARK    3  A    between atoms: N_7  and  C_20
REMARK    4  A    between atoms: N_8  and  C_19
REMARK    5  A    between atoms: C_15  and  C_18
REMARK    6  A    between atoms: C_18  and  C_21
REMARK    7  A    between atoms: C_19  and  C_22
REMARK    8  A    between atoms: C_21  and  C_23
REMARK                            x       y       z     vdW  Elec       q    Type
REMARK                         _______ _______ _______ _____ _____    ______ ____
ROOT
ATOM      4  O   UNL     1      10.930   4.032   3.823  0.00  0.00    -0.274 OA
ATOM      7  N   UNL     1      12.956   5.684   0.967  0.00  0.00    -0.296 NA
ATOM      8  N   UNL     1      10.815   6.729   3.743  0.00  0.00    -0.286 NA
ATOM      9  N   UNL     1      10.886   3.761   1.551  0.00  0.00    -0.312 N 
ATOM     11  C   UNL     1      12.038   6.621   1.650  0.00  0.00    +0.084 C 
ATOM     12  C   UNL     1      10.834   6.034   2.442  0.00  0.00    +0.161 C 
ATOM     13  C   UNL     1      12.722   7.503   2.712  0.00  0.00    +0.036 C 
ATOM     14  C   UNL     1      11.571   7.966   3.580  0.00  0.00    +0.087 C 
ATOM     15  C   UNL     1      12.324   4.886  -0.122  0.00  0.00    +0.074 C 
ATOM     16  C   UNL     1      10.900   4.531   2.699  0.00  0.00    +0.232 C 
ATOM     17  C   UNL     1      10.932   4.319   0.213  0.00  0.00    +0.123 C 
ATOM     20  C   UNL     1      14.143   6.390   0.457  0.00  0.00    +0.105 C 
ATOM     34  H   UNL     1      10.848   2.752   1.655  0.00  0.00    +0.149 HD
ENDROOT
BRANCH  15  18
ATOM     18  C   UNL     1      13.227   3.698  -0.514  0.00  0.00    +0.029 C 
BRANCH  18  21
ATOM     21  C   UNL     1      12.556   2.784  -1.522  0.00  0.00    +0.097 C 
BRANCH  21  23
ATOM      5  O   UNL     1      13.668   3.937  -3.285  0.00  0.00    -0.276 OA
ATOM     10  N   UNL     1      11.536   3.157  -3.713  0.00  0.00    -0.301 N 
ATOM     23  C   UNL     1      12.650   3.348  -2.917  0.00  0.00    +0.216 C 
ATOM     24  C   UNL     1      10.306   2.466  -3.341  0.00  0.00    +0.108 C 
ATOM     25  C   UNL     1      11.467   3.647  -5.082  0.00  0.00    +0.108 C 
ATOM     26  C   UNL     1       9.333   2.792  -4.466  0.00  0.00    +0.020 C 
ATOM     27  C   UNL     1      10.248   2.953  -5.672  0.00  0.00    +0.020 C 
ENDBRANCH  21  23
ENDBRANCH  18  21
ENDBRANCH  15  18
BRANCH   8  19
ATOM     19  C   UNL     1       9.470   6.972   4.249  0.00  0.00    +0.120 C 
BRANCH  19  22
ATOM     22  C   UNL     1       9.467   7.233   5.732  0.00  0.00    -0.030 A 
ATOM     28  C   UNL     1       9.965   6.269   6.610  0.00  0.00    +0.051 A 
ATOM     29  C   UNL     1       8.967   8.436   6.228  0.00  0.00    +0.005 A 
ATOM     30  C   UNL     1       9.960   6.510   7.984  0.00  0.00    +0.130 A 
ATOM     31  C   UNL     1       8.962   8.677   7.602  0.00  0.00    +0.004 A 
ATOM     32  C   UNL     1       9.460   7.713   8.480  0.00  0.00    +0.046 A 
BRANCH  30   6
ATOM      6  O   UNL     1      10.444   5.569   8.840  0.00  0.00    -0.406 OA
BRANCH   6  33
ATOM      1  F   UNL     1       8.335   5.277   9.673  0.00  0.00    -0.133 F 
ATOM      2  F   UNL     1      10.021   4.279  10.644  0.00  0.00    -0.133 F 
ATOM      3  F   UNL     1       9.340   3.572   8.691  0.00  0.00    -0.133 F 
ATOM     33  C   UNL     1       9.521   4.673   9.449  0.00  0.00    +0.575 C 
ENDBRANCH   6  33
ENDBRANCH  30   6
ENDBRANCH  19  22
ENDBRANCH   8  19
TORSDOF 7
ENDMDL
MODEL 6
REMARK VINA RESULT:      -6.8      2.246      3.337
REMARK  Name = 45360866
REMARK  8 active torsions:
REMARK  status: ('A' for Active; 'I' for Inactive)
REMARK    1  A    between atoms: O_6  and  C_30
REMARK    2  A    between atoms: O_6  and  C_33
REMARK    3  A    between atoms: N_7  and  C_20
REMARK    4  A    between atoms: N_8  and  C_19
REMARK    5  A    between atoms: C_15  and  C_18
REMARK    6  A    between atoms: C_18  and  C_21
REMARK    7  A    between atoms: C_19  and  C_22
REMARK    8  A    between atoms: C_21  and  C_23
REMARK                            x       y       z     vdW  Elec       q    Type
REMARK                         _______ _______ _______ _____ _____    ______ ____
ROOT
ATOM      4  O   UNL     1     -13.657   5.037  22.527  0.00  0.00    -0.274 OA
ATOM      7  N   UNL     1     -17.271   3.670  22.771  0.00  0.00    -0.296 NA
ATOM      8  N   UNL     1     -15.446   6.220  20.886  0.00  0.00    -0.286 NA
ATOM      9  N   UNL     1     -15.105   4.827  24.286  0.00  0.00    -0.312 N 
ATOM     11  C   UNL     1     -17.173   4.928  21.999  0.00  0.00    +0.084 C 
ATOM     12  C   UNL     1     -15.934   5.843  22.226  0.00  0.00    +0.161 C 
ATOM     13  C   UNL     1     -17.146   4.724  20.472  0.00  0.00    +0.036 C 
ATOM     14  C   UNL     1     -16.549   6.016  19.954  0.00  0.00    +0.087 C 
ATOM     15  C   UNL     1     -17.385   3.859  24.245  0.00  0.00    +0.074 C 
ATOM     16  C   UNL     1     -14.784   5.195  22.993  0.00  0.00    +0.232 C 
ATOM     17  C   UNL     1     -16.443   4.925  24.837  0.00  0.00    +0.123 C 
ATOM     20  C   UNL     1     -18.380   2.837  22.278  0.00  0.00    +0.105 C 
ATOM     34  H   UNL     1     -14.363   4.462  24.876  0.00  0.00    +0.149 HD
ENDROOT
BRANCH  15  18
ATOM     18  C   UNL     1     -17.106   2.532  24.982  0.00  0.00    +0.029 C 
BRANCH  18  21
ATOM     21  C   UNL     1     -17.539   2.589  26.434  0.00  0.00    +0.097 C 
BRANCH  21  23
ATOM      5  O   UNL     1     -17.293   0.278  26.959  0.00  0.00    -0.276 OA
ATOM     10  N   UNL     1     -16.078   1.783  28.223  0.00  0.00    -0.301 N 
ATOM     23  C   UNL     1     -16.965   1.437  27.220  0.00  0.00    +0.216 C 
ATOM     24  C   UNL     1     -15.646   3.130  28.579  0.00  0.00    +0.108 C 
ATOM     25  C   UNL     1     -15.443   0.787  29.075  0.00  0.00    +0.108 C 
ATOM     26  C   UNL     1     -14.909   2.955  29.900  0.00  0.00    +0.020 C 
ATOM     27  C   UNL     1     -14.335   1.548  29.787  0.00  0.00    +0.020 C 
ENDBRANCH  21  23
ENDBRANCH  18  21
ENDBRANCH  15  18
BRANCH   8  19
ATOM     19  C   UNL     1     -14.921   7.578  20.824  0.00  0.00    +0.120 C 
BRANCH  19  22
ATOM     22  C   UNL     1     -13.630   7.646  20.053  0.00  0.00    -0.030 A 
ATOM     28  C   UNL     1     -13.646   7.974  18.696  0.00  0.00    +0.051 A 
ATOM     29  C   UNL     1     -12.420   7.382  20.692  0.00  0.00    +0.005 A 
ATOM     30  C   UNL     1     -12.450   8.035  17.980  0.00  0.00    +0.130 A 
ATOM     31  C   UNL     1     -11.224   7.443  19.976  0.00  0.00    +0.004 A 
ATOM     32  C   UNL     1     -11.239   7.770  18.620  0.00  0.00    +0.046 A 
BRANCH  30   6
ATOM      6  O   UNL     1     -12.465   8.353  16.657  0.00  0.00    -0.406 OA
BRANCH   6  33
ATOM      1  F   UNL     1     -12.747  10.138  15.257  0.00  0.00    -0.133 F 
ATOM      2  F   UNL     1     -10.727   9.536  15.834  0.00  0.00    -0.133 F 
ATOM      3  F   UNL     1     -12.019  10.499  17.311  0.00  0.00    -0.133 F 
ATOM     33  C   UNL     1     -12.004   9.642  16.268  0.00  0.00    +0.575 C 
ENDBRANCH   6  33
ENDBRANCH  30   6
ENDBRANCH  19  22
ENDBRANCH   8  19
TORSDOF 7
ENDMDL
MODEL 7
REMARK VINA RESULT:      -6.7     31.860     35.691
REMARK  Name = 45360866
REMARK  8 active torsions:
REMARK  status: ('A' for Active; 'I' for Inactive)
REMARK    1  A    between atoms: O_6  and  C_30
REMARK    2  A    between atoms: O_6  and  C_33
REMARK    3  A    between atoms: N_7  and  C_20
REMARK    4  A    between atoms: N_8  and  C_19
REMARK    5  A    between atoms: C_15  and  C_18
REMARK    6  A    between atoms: C_18  and  C_21
REMARK    7  A    between atoms: C_19  and  C_22
REMARK    8  A    between atoms: C_21  and  C_23
REMARK                            x       y       z     vdW  Elec       q    Type
REMARK                         _______ _______ _______ _____ _____    ______ ____
ROOT
ATOM      4  O   UNL     1      12.551   5.942   7.946  0.00  0.00    -0.274 OA
ATOM      7  N   UNL     1      13.636   9.390   6.558  0.00  0.00    -0.296 NA
ATOM      8  N   UNL     1      10.544   7.484   7.003  0.00  0.00    -0.286 NA
ATOM      9  N   UNL     1      14.047   6.544   6.323  0.00  0.00    -0.312 N 
ATOM     11  C   UNL     1      12.237   9.041   6.226  0.00  0.00    +0.084 C 
ATOM     12  C   UNL     1      11.819   7.541   6.263  0.00  0.00    +0.161 C 
ATOM     13  C   UNL     1      11.194   9.688   7.156  0.00  0.00    +0.036 C 
ATOM     14  C   UNL     1       9.966   8.823   6.964  0.00  0.00    +0.087 C 
ATOM     15  C   UNL     1      14.649   8.840   5.614  0.00  0.00    +0.074 C 
ATOM     16  C   UNL     1      12.815   6.609   6.947  0.00  0.00    +0.232 C 
ATOM     17  C   UNL     1      14.417   7.375   5.194  0.00  0.00    +0.123 C 
ATOM     20  C   UNL     1      13.796  10.849   6.684  0.00  0.00    +0.105 C 
ATOM     34  H   UNL     1      14.729   5.883   6.682  0.00  0.00    +0.149 HD
ENDROOT
BRANCH  15  18
ATOM     18  C   UNL     1      16.063   8.928   6.228  0.00  0.00    +0.029 C 
BRANCH  18  21
ATOM     21  C   UNL     1      17.040   9.624   5.301  0.00  0.00    +0.097 C 
BRANCH  21  23
ATOM      5  O   UNL     1      17.515   8.145   3.495  0.00  0.00    -0.276 OA
ATOM     10  N   UNL     1      19.099   8.311   5.170  0.00  0.00    -0.301 N 
ATOM     23  C   UNL     1      17.898   8.627   4.563  0.00  0.00    +0.216 C 
ATOM     24  C   UNL     1      19.611   8.847   6.426  0.00  0.00    +0.108 C 
ATOM     25  C   UNL     1      20.035   7.360   4.588  0.00  0.00    +0.108 C 
ATOM     26  C   UNL     1      20.808   7.967   6.755  0.00  0.00    +0.020 C 
ATOM     27  C   UNL     1      21.319   7.557   5.380  0.00  0.00    +0.020 C 
ENDBRANCH  21  23
ENDBRANCH  18  21
ENDBRANCH  15  18
BRANCH   8  19
ATOM     19  C   UNL     1       9.625   6.475   6.493  0.00  0.00    +0.120 C 
BRANCH  19  22
ATOM     22  C   UNL     1       9.790   6.265   5.011  0.00  0.00    -0.030 A 
ATOM     28  C   UNL     1      10.412   5.109   4.537  0.00  0.00    +0.051 A 
ATOM     29  C   UNL     1       9.323   7.224   4.113  0.00  0.00    +0.005 A 
ATOM     30  C   UNL     1      10.567   4.914   3.164  0.00  0.00    +0.130 A 
ATOM     31  C   UNL     1       9.478   7.029   2.741  0.00  0.00    +0.004 A 
ATOM     32  C   UNL     1      10.099   5.873   2.265  0.00  0.00    +0.046 A 
BRANCH  30   6
ATOM      6  O   UNL     1      11.174   3.787   2.701  0.00  0.00    -0.406 OA
BRANCH   6  33
ATOM      1  F   UNL     1      12.022   4.092   0.599  0.00  0.00    -0.133 F 
ATOM      2  F   UNL     1      13.087   2.807   2.011  0.00  0.00    -0.133 F 
ATOM      3  F   UNL     1      13.094   4.971   2.320  0.00  0.00    -0.133 F 
ATOM     33  C   UNL     1      12.342   3.932   1.901  0.00  0.00    +0.575 C 
ENDBRANCH   6  33
ENDBRANCH  30   6
ENDBRANCH  19  22
ENDBRANCH   8  19
TORSDOF 7
ENDMDL
MODEL 8
REMARK VINA RESULT:      -6.7     20.982     23.474
REMARK  Name = 45360866
REMARK  8 active torsions:
REMARK  status: ('A' for Active; 'I' for Inactive)
REMARK    1  A    between atoms: O_6  and  C_30
REMARK    2  A    between atoms: O_6  and  C_33
REMARK    3  A    between atoms: N_7  and  C_20
REMARK    4  A    between atoms: N_8  and  C_19
REMARK    5  A    between atoms: C_15  and  C_18
REMARK    6  A    between atoms: C_18  and  C_21
REMARK    7  A    between atoms: C_19  and  C_22
REMARK    8  A    between atoms: C_21  and  C_23
REMARK                            x       y       z     vdW  Elec       q    Type
REMARK                         _______ _______ _______ _____ _____    ______ ____
ROOT
ATOM      4  O   UNL     1      -5.506  -9.446  11.874  0.00  0.00    -0.274 OA
ATOM      7  N   UNL     1      -5.421 -11.562   8.633  0.00  0.00    -0.296 NA
ATOM      8  N   UNL     1      -3.477 -11.221  11.713  0.00  0.00    -0.286 NA
ATOM      9  N   UNL     1      -5.443  -8.867   9.661  0.00  0.00    -0.312 N 
ATOM     11  C   UNL     1      -4.185 -11.675   9.436  0.00  0.00    +0.084 C 
ATOM     12  C   UNL     1      -3.860 -10.546  10.459  0.00  0.00    +0.161 C 
ATOM     13  C   UNL     1      -4.125 -12.935  10.320  0.00  0.00    +0.036 C 
ATOM     14  C   UNL     1      -3.089 -12.584  11.366  0.00  0.00    +0.087 C 
ATOM     15  C   UNL     1      -5.452 -10.392   7.710  0.00  0.00    +0.074 C 
ATOM     16  C   UNL     1      -5.013  -9.593  10.757  0.00  0.00    +0.232 C 
ATOM     17  C   UNL     1      -4.939  -9.073   8.318  0.00  0.00    +0.123 C 
ATOM     20  C   UNL     1      -5.677 -12.806   7.887  0.00  0.00    +0.105 C 
ATOM     34  H   UNL     1      -6.155  -8.158   9.809  0.00  0.00    +0.149 HD
ENDROOT
BRANCH  15  18
ATOM     18  C   UNL     1      -6.889 -10.142   7.205  0.00  0.00    +0.029 C 
BRANCH  18  21
ATOM     21  C   UNL     1      -6.957  -8.970   6.245  0.00  0.00    +0.097 C 
BRANCH  21  23
ATOM      5  O   UNL     1      -9.078  -9.065   5.165  0.00  0.00    -0.276 OA
ATOM     10  N   UNL     1      -8.815  -7.496   6.841  0.00  0.00    -0.301 N 
ATOM     23  C   UNL     1      -8.381  -8.525   6.026  0.00  0.00    +0.216 C 
ATOM     24  C   UNL     1      -8.045  -6.820   7.879  0.00  0.00    +0.108 C 
ATOM     25  C   UNL     1     -10.161  -6.949   6.749  0.00  0.00    +0.108 C 
ATOM     26  C   UNL     1      -8.892  -5.613   8.255  0.00  0.00    +0.020 C 
ATOM     27  C   UNL     1     -10.313  -6.101   8.003  0.00  0.00    +0.020 C 
ENDBRANCH  21  23
ENDBRANCH  18  21
ENDBRANCH  15  18
BRANCH   8  19
ATOM     19  C   UNL     1      -2.430 -10.523  12.448  0.00  0.00    +0.120 C 
BRANCH  19  22
ATOM     22  C   UNL     1      -2.605 -10.656  13.937  0.00  0.00    -0.030 A 
ATOM     28  C   UNL     1      -3.864 -10.947  14.467  0.00  0.00    +0.051 A 
ATOM     29  C   UNL     1      -1.513 -10.487  14.787  0.00  0.00    +0.005 A 
ATOM     30  C   UNL     1      -4.027 -11.068  15.847  0.00  0.00    +0.130 A 
ATOM     31  C   UNL     1      -1.677 -10.608  16.167  0.00  0.00    +0.004 A 
ATOM     32  C   UNL     1      -2.934 -10.900  16.697  0.00  0.00    +0.046 A 
BRANCH  30   6
ATOM      6  O   UNL     1      -5.254 -11.351  16.364  0.00  0.00    -0.406 OA
BRANCH   6  33
ATOM      1  F   UNL     1      -5.785  -9.127  16.353  0.00  0.00    -0.133 F 
ATOM      2  F   UNL     1      -5.534 -10.162  18.262  0.00  0.00    -0.133 F 
ATOM      3  F   UNL     1      -7.298 -10.582  17.043  0.00  0.00    -0.133 F 
ATOM     33  C   UNL     1      -5.980 -10.300  16.992  0.00  0.00    +0.575 C 
ENDBRANCH   6  33
ENDBRANCH  30   6
ENDBRANCH  19  22
ENDBRANCH   8  19
TORSDOF 7
ENDMDL
MODEL 9
REMARK VINA RESULT:      -6.7     29.771     34.679
REMARK  Name = 45360866
REMARK  8 active torsions:
REMARK  status: ('A' for Active; 'I' for Inactive)
REMARK    1  A    between atoms: O_6  and  C_30
REMARK    2  A    between atoms: O_6  and  C_33
REMARK    3  A    between atoms: N_7  and  C_20
REMARK    4  A    between atoms: N_8  and  C_19
REMARK    5  A    between atoms: C_15  and  C_18
REMARK    6  A    between atoms: C_18  and  C_21
REMARK    7  A    between atoms: C_19  and  C_22
REMARK    8  A    between atoms: C_21  and  C_23
REMARK                            x       y       z     vdW  Elec       q    Type
REMARK                         _______ _______ _______ _____ _____    ______ ____
ROOT
ATOM      4  O   UNL     1      11.349  10.826   7.677  0.00  0.00    -0.274 OA
ATOM      7  N   UNL     1      13.353   9.964   4.479  0.00  0.00    -0.296 NA
ATOM      8  N   UNL     1       9.876   9.888   5.617  0.00  0.00    -0.286 NA
ATOM      9  N   UNL     1      13.126   9.434   7.306  0.00  0.00    -0.312 N 
ATOM     11  C   UNL     1      11.961   9.464   4.449  0.00  0.00    +0.084 C 
ATOM     12  C   UNL     1      11.209   9.283   5.800  0.00  0.00    +0.161 C 
ATOM     13  C   UNL     1      10.990  10.361   3.659  0.00  0.00    +0.036 C 
ATOM     14  C   UNL     1       9.629   9.954   4.181  0.00  0.00    +0.087 C 
ATOM     15  C   UNL     1      14.318   9.061   5.167  0.00  0.00    +0.074 C 
ATOM     16  C   UNL     1      11.876   9.942   7.004  0.00  0.00    +0.232 C 
ATOM     17  C   UNL     1      13.808   8.451   6.487  0.00  0.00    +0.123 C 
ATOM     20  C   UNL     1      13.827  10.276   3.120  0.00  0.00    +0.105 C 
ATOM     34  H   UNL     1      13.590   9.774   8.142  0.00  0.00    +0.149 HD
ENDROOT
BRANCH  15  18
ATOM     18  C   UNL     1      15.631   9.811   5.478  0.00  0.00    +0.029 C 
BRANCH  18  21
ATOM     21  C   UNL     1      16.706   8.878   5.999  0.00  0.00    +0.097 C 
BRANCH  21  23
ATOM      5  O   UNL     1      17.377   8.473   3.749  0.00  0.00    -0.276 OA
ATOM     10  N   UNL     1      19.020   8.390   5.373  0.00  0.00    -0.301 N 
ATOM     23  C   UNL     1      17.722   8.564   4.929  0.00  0.00    +0.216 C 
ATOM     24  C   UNL     1      19.492   8.488   6.749  0.00  0.00    +0.108 C 
ATOM     25  C   UNL     1      20.114   8.076   4.465  0.00  0.00    +0.108 C 
ATOM     26  C   UNL     1      20.911   7.938   6.703  0.00  0.00    +0.020 C 
ATOM     27  C   UNL     1      21.370   8.294   5.296  0.00  0.00    +0.020 C 
ENDBRANCH  21  23
ENDBRANCH  18  21
ENDBRANCH  15  18
BRANCH   8  19
ATOM     19  C   UNL     1       8.818   9.178   6.323  0.00  0.00    +0.120 C 
BRANCH  19  22
ATOM     22  C   UNL     1       9.097   7.701   6.413  0.00  0.00    -0.030 A 
ATOM     28  C   UNL     1       9.611   7.160   7.593  0.00  0.00    +0.051 A 
ATOM     29  C   UNL     1       8.843   6.875   5.320  0.00  0.00    +0.005 A 
ATOM     30  C   UNL     1       9.872   5.792   7.676  0.00  0.00    +0.130 A 
ATOM     31  C   UNL     1       9.104   5.507   5.403  0.00  0.00    +0.004 A 
ATOM     32  C   UNL     1       9.617   4.965   6.582  0.00  0.00    +0.046 A 
BRANCH  30   6
ATOM      6  O   UNL     1      10.374   5.264   8.825  0.00  0.00    -0.406 OA
BRANCH   6  33
ATOM      1  F   UNL     1       8.990   3.474   9.156  0.00  0.00    -0.133 F 
ATOM      2  F   UNL     1       8.433   5.426   9.968  0.00  0.00    -0.133 F 
ATOM      3  F   UNL     1      10.077   4.316  10.886  0.00  0.00    -0.133 F 
ATOM     33  C   UNL     1       9.477   4.603   9.712  0.00  0.00    +0.575 C 
ENDBRANCH   6  33
ENDBRANCH  30   6
ENDBRANCH  19  22
ENDBRANCH   8  19
TORSDOF 7
ENDMDL
MODEL 10
REMARK VINA RESULT:      -6.7     18.365     20.649
REMARK  Name = 45360866
REMARK  8 active torsions:
REMARK  status: ('A' for Active; 'I' for Inactive)
REMARK    1  A    between atoms: O_6  and  C_30
REMARK    2  A    between atoms: O_6  and  C_33
REMARK    3  A    between atoms: N_7  and  C_20
REMARK    4  A    between atoms: N_8  and  C_19
REMARK    5  A    between atoms: C_15  and  C_18
REMARK    6  A    between atoms: C_18  and  C_21
REMARK    7  A    between atoms: C_19  and  C_22
REMARK    8  A    between atoms: C_21  and  C_23
REMARK                            x       y       z     vdW  Elec       q    Type
REMARK                         _______ _______ _______ _____ _____    ______ ____
ROOT
ATOM      4  O   UNL     1      -6.662  -9.396  16.243  0.00  0.00    -0.274 OA
ATOM      7  N   UNL     1      -4.581 -12.568  15.472  0.00  0.00    -0.296 NA
ATOM      8  N   UNL     1      -7.342 -11.589  17.664  0.00  0.00    -0.286 NA
ATOM      9  N   UNL     1      -4.412  -9.809  16.298  0.00  0.00    -0.312 N 
ATOM     11  C   UNL     1      -5.420 -12.700  16.683  0.00  0.00    +0.084 C 
ATOM     12  C   UNL     1      -5.904 -11.402  17.394  0.00  0.00    +0.161 C 
ATOM     13  C   UNL     1      -6.744 -13.451  16.449  0.00  0.00    +0.036 C 
ATOM     14  C   UNL     1      -7.604 -13.024  17.620  0.00  0.00    +0.087 C 
ATOM     15  C   UNL     1      -3.260 -11.920  15.704  0.00  0.00    +0.074 C 
ATOM     16  C   UNL     1      -5.728 -10.119  16.586  0.00  0.00    +0.232 C 
ATOM     17  C   UNL     1      -3.297 -10.680  16.617  0.00  0.00    +0.123 C 
ATOM     20  C   UNL     1      -4.399 -13.875  14.816  0.00  0.00    +0.105 C 
ATOM     34  H   UNL     1      -4.221  -8.928  15.831  0.00  0.00    +0.149 HD
ENDROOT
BRANCH  15  18
ATOM     18  C   UNL     1      -2.626 -11.490  14.364  0.00  0.00    +0.029 C 
BRANCH  18  21
ATOM     21  C   UNL     1      -3.639 -10.841  13.441  0.00  0.00    +0.097 C 
BRANCH  21  23
ATOM      5  O   UNL     1      -1.784 -10.538  11.977  0.00  0.00    -0.276 OA
ATOM     10  N   UNL     1      -3.822  -9.694  11.288  0.00  0.00    -0.301 N 
ATOM     23  C   UNL     1      -2.986 -10.350  12.173  0.00  0.00    +0.216 C 
ATOM     24  C   UNL     1      -5.249  -9.444  11.457  0.00  0.00    +0.108 C 
ATOM     25  C   UNL     1      -3.343  -9.155  10.023  0.00  0.00    +0.108 C 
ATOM     26  C   UNL     1      -5.596  -8.462  10.348  0.00  0.00    +0.020 C 
ATOM     27  C   UNL     1      -4.610  -8.827   9.247  0.00  0.00    +0.020 C 
ENDBRANCH  21  23
ENDBRANCH  18  21
ENDBRANCH  15  18
BRANCH   8  19
ATOM     19  C   UNL     1      -7.776 -10.991  18.920  0.00  0.00    +0.120 C 
BRANCH  19  22
ATOM     22  C   UNL     1      -9.204 -10.517  18.851  0.00  0.00    -0.030 A 
ATOM     28  C   UNL     1      -9.665  -9.858  17.710  0.00  0.00    +0.051 A 
ATOM     29  C   UNL     1     -10.064 -10.735  19.926  0.00  0.00    +0.005 A 
ATOM     30  C   UNL     1     -10.986  -9.416  17.647  0.00  0.00    +0.130 A 
ATOM     31  C   UNL     1     -11.386 -10.293  19.863  0.00  0.00    +0.004 A 
ATOM     32  C   UNL     1     -11.848  -9.634  18.723  0.00  0.00    +0.046 A 
BRANCH  30   6
ATOM      6  O   UNL     1     -11.435  -8.772  16.535  0.00  0.00    -0.406 OA
BRANCH   6  33
ATOM      1  F   UNL     1     -10.467  -6.921  17.464  0.00  0.00    -0.133 F 
ATOM      2  F   UNL     1     -12.274  -6.695  16.256  0.00  0.00    -0.133 F 
ATOM      3  F   UNL     1     -10.384  -7.182  15.272  0.00  0.00    -0.133 F 
ATOM     33  C   UNL     1     -11.121  -7.392  16.382  0.00  0.00    +0.575 C 
ENDBRANCH   6  33
ENDBRANCH  30   6
ENDBRANCH  19  22
ENDBRANCH   8  19
TORSDOF 7
ENDMDL
