MODEL 1
REMARK VINA RESULT:      -6.6      0.000      0.000
REMARK  Name = 75536689
REMARK  8 active torsions:
REMARK  status: ('A' for Active; 'I' for Inactive)
REMARK    1  A    between atoms: S_1  and  N_7
REMARK    2  A    between atoms: S_1  and  C_16
REMARK    3  A    between atoms: O_3  and  C_10
REMARK    4  A    between atoms: N_6  and  C_9
REMARK    5  A    between atoms: N_6  and  C_14
REMARK    6  A    between atoms: N_7  and  C_13
REMARK    7  A    between atoms: C_11  and  C_13
REMARK    8  A    between atoms: C_14  and  C_15
REMARK                            x       y       z     vdW  Elec       q    Type
REMARK                         _______ _______ _______ _____ _____    ______ ____
ROOT
ATOM      2  O   UNL     1     -17.264   5.437  24.755  0.00  0.00    -0.371 OA
ATOM      9  C   UNL     1     -15.971   4.176  23.212  0.00  0.00    +0.111 C 
ATOM     10  C   UNL     1     -15.691   3.676  24.616  0.00  0.00    +0.164 C 
ATOM     11  C   UNL     1     -16.923   4.177  25.357  0.00  0.00    +0.164 C 
ATOM     12  C   UNL     1     -16.580   5.540  23.494  0.00  0.00    +0.181 C 
ENDROOT
BRANCH  10   3
ATOM      3  O   UNL     1     -15.573   2.267  24.681  0.00  0.00    -0.388 OA
ATOM     27  H   UNL     1     -16.318   1.876  24.195  0.00  0.00    +0.210 HD
ENDBRANCH  10   3
BRANCH   9   6
ATOM      6  N   UNL     1     -14.787   4.247  22.370  0.00  0.00    -0.305 NA
ATOM     26  H   UNL     1     -15.077   4.386  21.401  0.00  0.00    +0.123 HD
BRANCH   6  14
ATOM     14  C   UNL     1     -13.926   5.354  22.769  0.00  0.00    +0.118 C 
BRANCH  14  15
ATOM      8  N   UNL     1     -14.076   7.582  19.711  0.00  0.00    -0.263 NA
ATOM     15  C   UNL     1     -13.483   6.173  21.585  0.00  0.00    -0.015 A 
ATOM     17  C   UNL     1     -12.137   6.294  21.259  0.00  0.00    +0.008 A 
ATOM     18  C   UNL     1     -14.406   6.831  20.787  0.00  0.00    +0.115 A 
ATOM     21  C   UNL     1     -11.759   7.057  20.160  0.00  0.00    +0.020 A 
ATOM     24  C   UNL     1     -12.757   7.675  19.426  0.00  0.00    +0.111 A 
ENDBRANCH  14  15
ENDBRANCH   6  14
ENDBRANCH   9   6
BRANCH  11  13
ATOM     13  C   UNL     1     -16.692   4.366  26.846  0.00  0.00    +0.140 C 
BRANCH  13   7
ATOM      7  N   UNL     1     -15.936   3.215  27.381  0.00  0.00    -0.187 NA
ATOM     28  H   UNL     1     -15.001   3.070  26.979  0.00  0.00    +0.148 HD
BRANCH   7   1
ATOM      1  S   UNL     1     -16.765   1.870  28.011  0.00  0.00    +0.058 S 
ATOM      4  O   UNL     1     -16.451   0.697  27.216  0.00  0.00    -0.153 OA
ATOM      5  O   UNL     1     -18.147   2.238  28.253  0.00  0.00    -0.153 OA
BRANCH   1  16
ATOM     16  C   UNL     1     -15.996   1.679  29.591  0.00  0.00    +0.105 A 
ATOM     19  C   UNL     1     -15.518   0.430  29.987  0.00  0.00    +0.028 A 
ATOM     20  C   UNL     1     -15.871   2.776  30.443  0.00  0.00    +0.028 A 
ATOM     22  C   UNL     1     -14.915   0.278  31.235  0.00  0.00    +0.002 A 
ATOM     23  C   UNL     1     -15.268   2.623  31.692  0.00  0.00    +0.002 A 
ATOM     25  C   UNL     1     -14.790   1.375  32.087  0.00  0.00    +0.000 A 
ENDBRANCH   1  16
ENDBRANCH   7   1
ENDBRANCH  13   7
ENDBRANCH  11  13
TORSDOF 8
ENDMDL
MODEL 2
REMARK VINA RESULT:      -6.2     27.766     30.116
REMARK  Name = 75536689
REMARK  8 active torsions:
REMARK  status: ('A' for Active; 'I' for Inactive)
REMARK    1  A    between atoms: S_1  and  N_7
REMARK    2  A    between atoms: S_1  and  C_16
REMARK    3  A    between atoms: O_3  and  C_10
REMARK    4  A    between atoms: N_6  and  C_9
REMARK    5  A    between atoms: N_6  and  C_14
REMARK    6  A    between atoms: N_7  and  C_13
REMARK    7  A    between atoms: C_11  and  C_13
REMARK    8  A    between atoms: C_14  and  C_15
REMARK                            x       y       z     vdW  Elec       q    Type
REMARK                         _______ _______ _______ _____ _____    ______ ____
ROOT
ATOM      2  O   UNL     1      12.300  13.034  22.201  0.00  0.00    -0.371 OA
ATOM      9  C   UNL     1      11.899  11.126  23.557  0.00  0.00    +0.111 C 
ATOM     10  C   UNL     1      13.353  11.127  23.123  0.00  0.00    +0.164 C 
ATOM     11  C   UNL     1      13.549  12.593  22.760  0.00  0.00    +0.164 C 
ATOM     12  C   UNL     1      11.283  12.078  22.545  0.00  0.00    +0.181 C 
ENDROOT
BRANCH  10   3
ATOM      3  O   UNL     1      14.231  10.717  24.155  0.00  0.00    -0.388 OA
ATOM     27  H   UNL     1      13.890   9.891  24.535  0.00  0.00    +0.210 HD
ENDBRANCH  10   3
BRANCH   9   6
ATOM      6  N   UNL     1      11.286   9.807  23.539  0.00  0.00    -0.305 NA
ATOM     26  H   UNL     1      10.694   9.704  24.364  0.00  0.00    +0.123 HD
BRANCH   6  14
ATOM     14  C   UNL     1      10.468   9.625  22.346  0.00  0.00    +0.118 C 
BRANCH  14  15
ATOM      8  N   UNL     1      11.565   7.734  19.255  0.00  0.00    -0.263 NA
ATOM     15  C   UNL     1      10.995   8.519  21.469  0.00  0.00    -0.015 A 
ATOM     17  C   UNL     1      11.391   7.302  22.011  0.00  0.00    +0.008 A 
ATOM     18  C   UNL     1      11.101   8.684  20.097  0.00  0.00    +0.115 A 
ATOM     21  C   UNL     1      11.874   6.299  21.177  0.00  0.00    +0.020 A 
ATOM     24  C   UNL     1      11.941   6.563  19.819  0.00  0.00    +0.111 A 
ENDBRANCH  14  15
ENDBRANCH   6  14
ENDBRANCH   9   6
BRANCH  11  13
ATOM     13  C   UNL     1      14.668  12.819  21.760  0.00  0.00    +0.140 C 
BRANCH  13   7
ATOM      7  N   UNL     1      15.227  11.519  21.338  0.00  0.00    -0.187 NA
ATOM     28  H   UNL     1      16.136  11.271  21.746  0.00  0.00    +0.148 HD
BRANCH   7   1
ATOM      1  S   UNL     1      14.813  10.865  19.823  0.00  0.00    +0.058 S 
ATOM      4  O   UNL     1      15.761  11.325  18.825  0.00  0.00    -0.153 OA
ATOM      5  O   UNL     1      13.388  11.036  19.608  0.00  0.00    -0.153 OA
BRANCH   1  16
ATOM     16  C   UNL     1      15.092   9.140  20.084  0.00  0.00    +0.105 A 
ATOM     19  C   UNL     1      15.229   8.644  21.381  0.00  0.00    +0.028 A 
ATOM     20  C   UNL     1      15.180   8.274  18.994  0.00  0.00    +0.028 A 
ATOM     22  C   UNL     1      15.453   7.283  21.588  0.00  0.00    +0.002 A 
ATOM     23  C   UNL     1      15.405   6.913  19.201  0.00  0.00    +0.002 A 
ATOM     25  C   UNL     1      15.540   6.418  20.497  0.00  0.00    +0.000 A 
ENDBRANCH   1  16
ENDBRANCH   7   1
ENDBRANCH  13   7
ENDBRANCH  11  13
TORSDOF 8
ENDMDL
MODEL 3
REMARK VINA RESULT:      -6.1      2.035      2.908
REMARK  Name = 75536689
REMARK  8 active torsions:
REMARK  status: ('A' for Active; 'I' for Inactive)
REMARK    1  A    between atoms: S_1  and  N_7
REMARK    2  A    between atoms: S_1  and  C_16
REMARK    3  A    between atoms: O_3  and  C_10
REMARK    4  A    between atoms: N_6  and  C_9
REMARK    5  A    between atoms: N_6  and  C_14
REMARK    6  A    between atoms: N_7  and  C_13
REMARK    7  A    between atoms: C_11  and  C_13
REMARK    8  A    between atoms: C_14  and  C_15
REMARK                            x       y       z     vdW  Elec       q    Type
REMARK                         _______ _______ _______ _____ _____    ______ ____
ROOT
ATOM      2  O   UNL     1     -16.174   5.774  21.877  0.00  0.00    -0.371 OA
ATOM      9  C   UNL     1     -13.842   5.363  21.682  0.00  0.00    +0.111 C 
ATOM     10  C   UNL     1     -14.232   5.315  23.147  0.00  0.00    +0.164 C 
ATOM     11  C   UNL     1     -15.730   5.062  23.044  0.00  0.00    +0.164 C 
ATOM     12  C   UNL     1     -15.023   6.108  21.081  0.00  0.00    +0.181 C 
ENDROOT
BRANCH  10   3
ATOM      3  O   UNL     1     -13.570   4.283  23.854  0.00  0.00    -0.388 OA
ATOM     27  H   UNL     1     -12.683   4.598  24.096  0.00  0.00    +0.210 HD
ENDBRANCH  10   3
BRANCH   9   6
ATOM      6  N   UNL     1     -12.571   6.026  21.437  0.00  0.00    -0.305 NA
ATOM     26  H   UNL     1     -12.149   5.634  20.594  0.00  0.00    +0.123 HD
BRANCH   6  14
ATOM     14  C   UNL     1     -12.755   7.460  21.250  0.00  0.00    +0.118 C 
BRANCH  14  15
ATOM      8  N   UNL     1     -10.979   7.681  17.913  0.00  0.00    -0.263 NA
ATOM     15  C   UNL     1     -11.906   7.991  20.126  0.00  0.00    -0.015 A 
ATOM     17  C   UNL     1     -11.275   9.226  20.224  0.00  0.00    +0.008 A 
ATOM     18  C   UNL     1     -11.728   7.263  18.959  0.00  0.00    +0.115 A 
ATOM     21  C   UNL     1     -10.497   9.690  19.170  0.00  0.00    +0.020 A 
ATOM     24  C   UNL     1     -10.382   8.888  18.047  0.00  0.00    +0.111 A 
ENDBRANCH  14  15
ENDBRANCH   6  14
ENDBRANCH   9   6
BRANCH  11  13
ATOM     13  C   UNL     1     -16.504   5.538  24.261  0.00  0.00    +0.140 C 
BRANCH  13   7
ATOM      7  N   UNL     1     -16.179   4.683  25.421  0.00  0.00    -0.187 NA
ATOM     28  H   UNL     1     -15.325   4.935  25.934  0.00  0.00    +0.148 HD
BRANCH   7   1
ATOM      1  S   UNL     1     -16.701   3.065  25.459  0.00  0.00    +0.058 S 
ATOM      4  O   UNL     1     -15.810   2.253  24.652  0.00  0.00    -0.153 OA
ATOM      5  O   UNL     1     -18.132   3.025  25.230  0.00  0.00    -0.153 OA
BRANCH   1  16
ATOM     16  C   UNL     1     -16.438   2.640  27.154  0.00  0.00    +0.105 A 
ATOM     19  C   UNL     1     -16.772   1.366  27.614  0.00  0.00    +0.028 A 
ATOM     20  C   UNL     1     -15.899   3.580  28.034  0.00  0.00    +0.028 A 
ATOM     22  C   UNL     1     -16.568   1.032  28.953  0.00  0.00    +0.002 A 
ATOM     23  C   UNL     1     -15.696   3.245  29.373  0.00  0.00    +0.002 A 
ATOM     25  C   UNL     1     -16.030   1.972  29.832  0.00  0.00    +0.000 A 
ENDBRANCH   1  16
ENDBRANCH   7   1
ENDBRANCH  13   7
ENDBRANCH  11  13
TORSDOF 8
ENDMDL
MODEL 4
REMARK VINA RESULT:      -6.1      1.871      2.591
REMARK  Name = 75536689
REMARK  8 active torsions:
REMARK  status: ('A' for Active; 'I' for Inactive)
REMARK    1  A    between atoms: S_1  and  N_7
REMARK    2  A    between atoms: S_1  and  C_16
REMARK    3  A    between atoms: O_3  and  C_10
REMARK    4  A    between atoms: N_6  and  C_9
REMARK    5  A    between atoms: N_6  and  C_14
REMARK    6  A    between atoms: N_7  and  C_13
REMARK    7  A    between atoms: C_11  and  C_13
REMARK    8  A    between atoms: C_14  and  C_15
REMARK                            x       y       z     vdW  Elec       q    Type
REMARK                         _______ _______ _______ _____ _____    ______ ____
ROOT
ATOM      2  O   UNL     1     -17.666   3.761  27.649  0.00  0.00    -0.371 OA
ATOM      9  C   UNL     1     -16.561   3.775  25.546  0.00  0.00    +0.111 C 
ATOM     10  C   UNL     1     -16.309   2.444  26.228  0.00  0.00    +0.164 C 
ATOM     11  C   UNL     1     -17.458   2.403  27.226  0.00  0.00    +0.164 C 
ATOM     12  C   UNL     1     -17.003   4.635  26.719  0.00  0.00    +0.181 C 
ENDROOT
BRANCH  10   3
ATOM      3  O   UNL     1     -16.352   1.352  25.329  0.00  0.00    -0.388 OA
ATOM     27  H   UNL     1     -17.232   1.330  24.918  0.00  0.00    +0.210 HD
ENDBRANCH  10   3
BRANCH   9   6
ATOM      6  N   UNL     1     -15.396   4.310  24.860  0.00  0.00    -0.305 NA
ATOM     26  H   UNL     1     -14.573   3.768  25.130  0.00  0.00    +0.123 HD
BRANCH   6  14
ATOM     14  C   UNL     1     -15.558   4.232  23.413  0.00  0.00    +0.118 C 
BRANCH  14  15
ATOM      8  N   UNL     1     -14.644   7.572  21.881  0.00  0.00    -0.263 NA
ATOM     15  C   UNL     1     -14.769   5.301  22.704  0.00  0.00    -0.015 A 
ATOM     17  C   UNL     1     -13.489   5.049  22.224  0.00  0.00    +0.008 A 
ATOM     18  C   UNL     1     -15.297   6.568  22.508  0.00  0.00    +0.115 A 
ATOM     21  C   UNL     1     -12.785   6.056  21.573  0.00  0.00    +0.020 A 
ATOM     24  C   UNL     1     -13.401   7.288  21.428  0.00  0.00    +0.111 A 
ENDBRANCH  14  15
ENDBRANCH   6  14
ENDBRANCH   9   6
BRANCH  11  13
ATOM     13  C   UNL     1     -17.175   1.527  28.433  0.00  0.00    +0.140 C 
BRANCH  13   7
ATOM      7  N   UNL     1     -15.749   1.141  28.442  0.00  0.00    -0.187 NA
ATOM     28  H   UNL     1     -15.285   1.129  27.526  0.00  0.00    +0.148 HD
BRANCH   7   1
ATOM      1  S   UNL     1     -15.149   0.126  29.668  0.00  0.00    +0.058 S 
ATOM      4  O   UNL     1     -14.023  -0.632  29.156  0.00  0.00    -0.153 OA
ATOM      5  O   UNL     1     -16.261  -0.558  30.300  0.00  0.00    -0.153 OA
BRANCH   1  16
ATOM     16  C   UNL     1     -14.531   1.297  30.838  0.00  0.00    +0.105 A 
ATOM     19  C   UNL     1     -13.752   2.371  30.405  0.00  0.00    +0.028 A 
ATOM     20  C   UNL     1     -14.819   1.147  32.195  0.00  0.00    +0.028 A 
ATOM     22  C   UNL     1     -13.261   3.293  31.329  0.00  0.00    +0.002 A 
ATOM     23  C   UNL     1     -14.327   2.070  33.118  0.00  0.00    +0.002 A 
ATOM     25  C   UNL     1     -13.549   3.142  32.685  0.00  0.00    +0.000 A 
ENDBRANCH   1  16
ENDBRANCH   7   1
ENDBRANCH  13   7
ENDBRANCH  11  13
TORSDOF 8
ENDMDL
MODEL 5
REMARK VINA RESULT:      -6.0      2.446      9.132
REMARK  Name = 75536689
REMARK  8 active torsions:
REMARK  status: ('A' for Active; 'I' for Inactive)
REMARK    1  A    between atoms: S_1  and  N_7
REMARK    2  A    between atoms: S_1  and  C_16
REMARK    3  A    between atoms: O_3  and  C_10
REMARK    4  A    between atoms: N_6  and  C_9
REMARK    5  A    between atoms: N_6  and  C_14
REMARK    6  A    between atoms: N_7  and  C_13
REMARK    7  A    between atoms: C_11  and  C_13
REMARK    8  A    between atoms: C_14  and  C_15
REMARK                            x       y       z     vdW  Elec       q    Type
REMARK                         _______ _______ _______ _____ _____    ______ ____
ROOT
ATOM      2  O   UNL     1     -16.714   2.532  23.711  0.00  0.00    -0.371 OA
ATOM      9  C   UNL     1     -16.541   3.550  25.849  0.00  0.00    +0.111 C 
ATOM     10  C   UNL     1     -16.176   4.569  24.786  0.00  0.00    +0.164 C 
ATOM     11  C   UNL     1     -16.832   3.956  23.556  0.00  0.00    +0.164 C 
ATOM     12  C   UNL     1     -16.389   2.247  25.082  0.00  0.00    +0.181 C 
ENDROOT
BRANCH  10   3
ATOM      3  O   UNL     1     -16.686   5.859  25.068  0.00  0.00    -0.388 OA
ATOM     27  H   UNL     1     -17.564   5.937  24.659  0.00  0.00    +0.210 HD
ENDBRANCH  10   3
BRANCH   9   6
ATOM      6  N   UNL     1     -15.697   3.613  27.032  0.00  0.00    -0.305 NA
ATOM     26  H   UNL     1     -15.428   4.584  27.197  0.00  0.00    +0.123 HD
BRANCH   6  14
ATOM     14  C   UNL     1     -16.400   3.111  28.206  0.00  0.00    +0.118 C 
BRANCH  14  15
ATOM      8  N   UNL     1     -15.015  -0.132  29.583  0.00  0.00    -0.263 NA
ATOM     15  C   UNL     1     -15.552   2.152  28.999  0.00  0.00    -0.015 A 
ATOM     17  C   UNL     1     -14.555   2.612  29.852  0.00  0.00    +0.008 A 
ATOM     18  C   UNL     1     -15.741   0.782  28.901  0.00  0.00    +0.115 A 
ATOM     21  C   UNL     1     -13.788   1.702  30.571  0.00  0.00    +0.020 A 
ATOM     24  C   UNL     1     -14.055   0.353  30.403  0.00  0.00    +0.111 A 
ENDBRANCH  14  15
ENDBRANCH   6  14
ENDBRANCH   9   6
BRANCH  11  13
ATOM     13  C   UNL     1     -16.183   4.387  22.253  0.00  0.00    +0.140 C 
BRANCH  13   7
ATOM      7  N   UNL     1     -15.121   5.375  22.530  0.00  0.00    -0.187 NA
ATOM     28  H   UNL     1     -14.539   5.184  23.355  0.00  0.00    +0.148 HD
BRANCH   7   1
ATOM      1  S   UNL     1     -15.304   6.988  22.023  0.00  0.00    +0.058 S 
ATOM      4  O   UNL     1     -15.073   7.875  23.148  0.00  0.00    -0.153 OA
ATOM      5  O   UNL     1     -16.521   7.102  21.242  0.00  0.00    -0.153 OA
BRANCH   1  16
ATOM     16  C   UNL     1     -13.951   7.170  20.900  0.00  0.00    +0.105 A 
ATOM     19  C   UNL     1     -12.676   6.740  21.268  0.00  0.00    +0.028 A 
ATOM     20  C   UNL     1     -14.158   7.746  19.646  0.00  0.00    +0.028 A 
ATOM     22  C   UNL     1     -11.608   6.886  20.384  0.00  0.00    +0.002 A 
ATOM     23  C   UNL     1     -13.088   7.893  18.762  0.00  0.00    +0.002 A 
ATOM     25  C   UNL     1     -11.814   7.463  19.130  0.00  0.00    +0.000 A 
ENDBRANCH   1  16
ENDBRANCH   7   1
ENDBRANCH  13   7
ENDBRANCH  11  13
TORSDOF 8
ENDMDL
MODEL 6
REMARK VINA RESULT:      -5.9      3.526      9.953
REMARK  Name = 75536689
REMARK  8 active torsions:
REMARK  status: ('A' for Active; 'I' for Inactive)
REMARK    1  A    between atoms: S_1  and  N_7
REMARK    2  A    between atoms: S_1  and  C_16
REMARK    3  A    between atoms: O_3  and  C_10
REMARK    4  A    between atoms: N_6  and  C_9
REMARK    5  A    between atoms: N_6  and  C_14
REMARK    6  A    between atoms: N_7  and  C_13
REMARK    7  A    between atoms: C_11  and  C_13
REMARK    8  A    between atoms: C_14  and  C_15
REMARK                            x       y       z     vdW  Elec       q    Type
REMARK                         _______ _______ _______ _____ _____    ______ ____
ROOT
ATOM      2  O   UNL     1     -15.921   6.530  22.574  0.00  0.00    -0.371 OA
ATOM      9  C   UNL     1     -15.008   4.671  23.737  0.00  0.00    +0.111 C 
ATOM     10  C   UNL     1     -14.365   4.761  22.367  0.00  0.00    +0.164 C 
ATOM     11  C   UNL     1     -14.637   6.216  22.009  0.00  0.00    +0.164 C 
ATOM     12  C   UNL     1     -16.254   5.519  23.540  0.00  0.00    +0.181 C 
ENDROOT
BRANCH  10   3
ATOM      3  O   UNL     1     -12.979   4.474  22.394  0.00  0.00    -0.388 OA
ATOM     27  H   UNL     1     -12.835   3.720  22.990  0.00  0.00    +0.210 HD
ENDBRANCH  10   3
BRANCH   9   6
ATOM      6  N   UNL     1     -15.309   3.310  24.153  0.00  0.00    -0.305 NA
ATOM     26  H   UNL     1     -14.580   2.989  24.792  0.00  0.00    +0.123 HD
BRANCH   6  14
ATOM     14  C   UNL     1     -16.597   3.243  24.835  0.00  0.00    +0.118 C 
BRANCH  14  15
ATOM      8  N   UNL     1     -16.637   0.713  27.651  0.00  0.00    -0.263 NA
ATOM     15  C   UNL     1     -16.470   2.650  26.213  0.00  0.00    -0.015 A 
ATOM     17  C   UNL     1     -16.086   3.431  27.297  0.00  0.00    +0.008 A 
ATOM     18  C   UNL     1     -16.732   1.308  26.440  0.00  0.00    +0.115 A 
ATOM     21  C   UNL     1     -15.978   2.856  28.558  0.00  0.00    +0.020 A 
ATOM     24  C   UNL     1     -16.262   1.506  28.681  0.00  0.00    +0.111 A 
ENDBRANCH  14  15
ENDBRANCH   6  14
ENDBRANCH   9   6
BRANCH  11  13
ATOM     13  C   UNL     1     -14.656   6.473  20.513  0.00  0.00    +0.140 C 
BRANCH  13   7
ATOM      7  N   UNL     1     -13.916   7.715  20.214  0.00  0.00    -0.187 NA
ATOM     28  H   UNL     1     -14.162   8.178  19.330  0.00  0.00    +0.148 HD
BRANCH   7   1
ATOM      1  S   UNL     1     -12.353   7.948  20.843  0.00  0.00    +0.058 S 
ATOM      4  O   UNL     1     -11.781   6.663  21.198  0.00  0.00    -0.153 OA
ATOM      5  O   UNL     1     -12.393   9.023  21.817  0.00  0.00    -0.153 OA
BRANCH   1  16
ATOM     16  C   UNL     1     -11.483   8.562  19.433  0.00  0.00    +0.105 A 
ATOM     19  C   UNL     1     -11.420   7.799  18.266  0.00  0.00    +0.028 A 
ATOM     20  C   UNL     1     -10.855   9.806  19.487  0.00  0.00    +0.028 A 
ATOM     22  C   UNL     1     -10.730   8.281  17.154  0.00  0.00    +0.002 A 
ATOM     23  C   UNL     1     -10.164  10.288  18.375  0.00  0.00    +0.002 A 
ATOM     25  C   UNL     1     -10.102   9.526  17.209  0.00  0.00    +0.000 A 
ENDBRANCH   1  16
ENDBRANCH   7   1
ENDBRANCH  13   7
ENDBRANCH  11  13
TORSDOF 8
ENDMDL
MODEL 7
REMARK VINA RESULT:      -5.9      8.265     11.799
REMARK  Name = 75536689
REMARK  8 active torsions:
REMARK  status: ('A' for Active; 'I' for Inactive)
REMARK    1  A    between atoms: S_1  and  N_7
REMARK    2  A    between atoms: S_1  and  C_16
REMARK    3  A    between atoms: O_3  and  C_10
REMARK    4  A    between atoms: N_6  and  C_9
REMARK    5  A    between atoms: N_6  and  C_14
REMARK    6  A    between atoms: N_7  and  C_13
REMARK    7  A    between atoms: C_11  and  C_13
REMARK    8  A    between atoms: C_14  and  C_15
REMARK                            x       y       z     vdW  Elec       q    Type
REMARK                         _______ _______ _______ _____ _____    ______ ____
ROOT
ATOM      2  O   UNL     1     -10.281  10.750  16.153  0.00  0.00    -0.371 OA
ATOM      9  C   UNL     1      -9.956   9.366  18.056  0.00  0.00    +0.111 C 
ATOM     10  C   UNL     1     -10.745   8.596  17.014  0.00  0.00    +0.164 C 
ATOM     11  C   UNL     1     -10.402   9.375  15.752  0.00  0.00    +0.164 C 
ATOM     12  C   UNL     1     -10.152  10.798  17.585  0.00  0.00    +0.181 C 
ENDROOT
BRANCH  10   3
ATOM      3  O   UNL     1     -10.350   7.241  16.922  0.00  0.00    -0.388 OA
ATOM     27  H   UNL     1      -9.672   7.073  17.597  0.00  0.00    +0.210 HD
ENDBRANCH  10   3
BRANCH   9   6
ATOM      6  N   UNL     1     -10.420   9.150  19.418  0.00  0.00    -0.305 NA
ATOM     26  H   UNL     1      -9.966   9.825  20.035  0.00  0.00    +0.123 HD
BRANCH   6  14
ATOM     14  C   UNL     1     -11.865   9.320  19.513  0.00  0.00    +0.118 C 
BRANCH  14  15
ATOM      8  N   UNL     1     -14.492   7.288  21.331  0.00  0.00    -0.263 NA
ATOM     15  C   UNL     1     -12.509   8.207  20.296  0.00  0.00    -0.015 A 
ATOM     17  C   UNL     1     -11.774   7.100  20.706  0.00  0.00    +0.008 A 
ATOM     18  C   UNL     1     -13.853   8.253  20.631  0.00  0.00    +0.115 A 
ATOM     21  C   UNL     1     -12.395   6.088  21.429  0.00  0.00    +0.020 A 
ATOM     24  C   UNL     1     -13.744   6.228  21.713  0.00  0.00    +0.111 A 
ENDBRANCH  14  15
ENDBRANCH   6  14
ENDBRANCH   9   6
BRANCH  11  13
ATOM     13  C   UNL     1     -11.453   9.248  14.663  0.00  0.00    +0.140 C 
BRANCH  13   7
ATOM      7  N   UNL     1     -12.285   8.055  14.915  0.00  0.00    -0.187 NA
ATOM     28  H   UNL     1     -11.791   7.239  15.297  0.00  0.00    +0.148 HD
BRANCH   7   1
ATOM      1  S   UNL     1     -13.696   7.793  14.001  0.00  0.00    +0.058 S 
ATOM      4  O   UNL     1     -13.567   6.550  13.263  0.00  0.00    -0.153 OA
ATOM      5  O   UNL     1     -14.045   9.019  13.310  0.00  0.00    -0.153 OA
BRANCH   1  16
ATOM     16  C   UNL     1     -14.906   7.551  15.266  0.00  0.00    +0.105 A 
ATOM     19  C   UNL     1     -16.036   6.772  15.012  0.00  0.00    +0.028 A 
ATOM     20  C   UNL     1     -14.734   8.142  16.518  0.00  0.00    +0.028 A 
ATOM     22  C   UNL     1     -16.993   6.585  16.009  0.00  0.00    +0.002 A 
ATOM     23  C   UNL     1     -15.692   7.954  17.515  0.00  0.00    +0.002 A 
ATOM     25  C   UNL     1     -16.820   7.175  17.261  0.00  0.00    +0.000 A 
ENDBRANCH   1  16
ENDBRANCH   7   1
ENDBRANCH  13   7
ENDBRANCH  11  13
TORSDOF 8
ENDMDL
MODEL 8
REMARK VINA RESULT:      -5.8     28.980     31.592
REMARK  Name = 75536689
REMARK  8 active torsions:
REMARK  status: ('A' for Active; 'I' for Inactive)
REMARK    1  A    between atoms: S_1  and  N_7
REMARK    2  A    between atoms: S_1  and  C_16
REMARK    3  A    between atoms: O_3  and  C_10
REMARK    4  A    between atoms: N_6  and  C_9
REMARK    5  A    between atoms: N_6  and  C_14
REMARK    6  A    between atoms: N_7  and  C_13
REMARK    7  A    between atoms: C_11  and  C_13
REMARK    8  A    between atoms: C_14  and  C_15
REMARK                            x       y       z     vdW  Elec       q    Type
REMARK                         _______ _______ _______ _____ _____    ______ ____
ROOT
ATOM      2  O   UNL     1      14.846  13.474  22.339  0.00  0.00    -0.371 OA
ATOM      9  C   UNL     1      13.122  12.015  23.074  0.00  0.00    +0.111 C 
ATOM     10  C   UNL     1      14.448  11.282  23.133  0.00  0.00    +0.164 C 
ATOM     11  C   UNL     1      15.427  12.448  23.160  0.00  0.00    +0.164 C 
ATOM     12  C   UNL     1      13.455  13.166  22.139  0.00  0.00    +0.181 C 
ENDROOT
BRANCH  10   3
ATOM      3  O   UNL     1      14.570  10.464  24.281  0.00  0.00    -0.388 OA
ATOM     27  H   UNL     1      14.346  10.997  25.061  0.00  0.00    +0.210 HD
ENDBRANCH  10   3
BRANCH   9   6
ATOM      6  N   UNL     1      12.021  11.195  22.593  0.00  0.00    -0.305 NA
ATOM     26  H   UNL     1      11.146  11.704  22.723  0.00  0.00    +0.123 HD
BRANCH   6  14
ATOM     14  C   UNL     1      12.180  10.883  21.177  0.00  0.00    +0.118 C 
BRANCH  14  15
ATOM      8  N   UNL     1      11.644   7.590  19.387  0.00  0.00    -0.263 NA
ATOM     15  C   UNL     1      12.112   9.401  20.920  0.00  0.00    -0.015 A 
ATOM     17  C   UNL     1      12.433   8.485  21.916  0.00  0.00    +0.008 A 
ATOM     18  C   UNL     1      11.726   8.907  19.684  0.00  0.00    +0.115 A 
ATOM     21  C   UNL     1      12.359   7.122  21.649  0.00  0.00    +0.020 A 
ATOM     24  C   UNL     1      11.964   6.730  20.381  0.00  0.00    +0.111 A 
ENDBRANCH  14  15
ENDBRANCH   6  14
ENDBRANCH   9   6
BRANCH  11  13
ATOM     13  C   UNL     1      16.805  12.087  22.634  0.00  0.00    +0.140 C 
BRANCH  13   7
ATOM      7  N   UNL     1      16.949  10.618  22.586  0.00  0.00    -0.187 NA
ATOM     28  H   UNL     1      16.622  10.111  23.418  0.00  0.00    +0.148 HD
BRANCH   7   1
ATOM      1  S   UNL     1      18.169   9.913  21.634  0.00  0.00    +0.058 S 
ATOM      4  O   UNL     1      19.146   9.276  22.499  0.00  0.00    -0.153 OA
ATOM      5  O   UNL     1      18.597  10.868  20.631  0.00  0.00    -0.153 OA
BRANCH   1  16
ATOM     16  C   UNL     1      17.279   8.641  20.790  0.00  0.00    +0.105 A 
ATOM     19  C   UNL     1      16.027   8.913  20.239  0.00  0.00    +0.028 A 
ATOM     20  C   UNL     1      17.828   7.363  20.676  0.00  0.00    +0.028 A 
ATOM     22  C   UNL     1      15.323   7.909  19.576  0.00  0.00    +0.002 A 
ATOM     23  C   UNL     1      17.123   6.358  20.013  0.00  0.00    +0.002 A 
ATOM     25  C   UNL     1      15.871   6.631  19.462  0.00  0.00    +0.000 A 
ENDBRANCH   1  16
ENDBRANCH   7   1
ENDBRANCH  13   7
ENDBRANCH  11  13
TORSDOF 8
ENDMDL
MODEL 9
REMARK VINA RESULT:      -5.8     18.439     20.711
REMARK  Name = 75536689
REMARK  8 active torsions:
REMARK  status: ('A' for Active; 'I' for Inactive)
REMARK    1  A    between atoms: S_1  and  N_7
REMARK    2  A    between atoms: S_1  and  C_16
REMARK    3  A    between atoms: O_3  and  C_10
REMARK    4  A    between atoms: N_6  and  C_9
REMARK    5  A    between atoms: N_6  and  C_14
REMARK    6  A    between atoms: N_7  and  C_13
REMARK    7  A    between atoms: C_11  and  C_13
REMARK    8  A    between atoms: C_14  and  C_15
REMARK                            x       y       z     vdW  Elec       q    Type
REMARK                         _______ _______ _______ _____ _____    ______ ____
ROOT
ATOM      2  O   UNL     1      -5.499 -11.304  18.327  0.00  0.00    -0.371 OA
ATOM      9  C   UNL     1      -7.442 -10.163  17.578  0.00  0.00    +0.111 C 
ATOM     10  C   UNL     1      -6.270  -9.773  16.698  0.00  0.00    +0.164 C 
ATOM     11  C   UNL     1      -5.315 -10.932  16.952  0.00  0.00    +0.164 C 
ATOM     12  C   UNL     1      -6.730 -10.727  18.796  0.00  0.00    +0.181 C 
ENDROOT
BRANCH  10   3
ATOM      3  O   UNL     1      -6.622  -9.670  15.331  0.00  0.00    -0.388 OA
ATOM     27  H   UNL     1      -5.838  -9.878  14.797  0.00  0.00    +0.210 HD
ENDBRANCH  10   3
BRANCH   9   6
ATOM      6  N   UNL     1      -8.324  -9.053  17.901  0.00  0.00    -0.305 NA
ATOM     26  H   UNL     1      -8.270  -8.357  17.156  0.00  0.00    +0.123 HD
BRANCH   6  14
ATOM     14  C   UNL     1      -9.706  -9.500  18.029  0.00  0.00    +0.118 C 
BRANCH  14  15
ATOM      8  N   UNL     1     -12.858  -8.208  16.377  0.00  0.00    -0.263 NA
ATOM     15  C   UNL     1     -10.660  -8.581  17.314  0.00  0.00    -0.015 A 
ATOM     17  C   UNL     1     -10.273  -7.301  16.932  0.00  0.00    +0.008 A 
ATOM     18  C   UNL     1     -11.953  -8.983  17.016  0.00  0.00    +0.115 A 
ATOM     21  C   UNL     1     -11.175  -6.475  16.272  0.00  0.00    +0.020 A 
ATOM     24  C   UNL     1     -12.444  -6.971  16.021  0.00  0.00    +0.111 A 
ENDBRANCH  14  15
ENDBRANCH   6  14
ENDBRANCH   9   6
BRANCH  11  13
ATOM     13  C   UNL     1      -3.859 -10.575  16.707  0.00  0.00    +0.140 C 
BRANCH  13   7
ATOM      7  N   UNL     1      -3.661 -10.254  15.279  0.00  0.00    -0.187 NA
ATOM     28  H   UNL     1      -3.916  -9.300  14.996  0.00  0.00    +0.148 HD
BRANCH   7   1
ATOM      1  S   UNL     1      -3.726 -11.490  14.111  0.00  0.00    +0.058 S 
ATOM      4  O   UNL     1      -5.073 -12.025  14.053  0.00  0.00    -0.153 OA
ATOM      5  O   UNL     1      -2.595 -12.378  14.302  0.00  0.00    -0.153 OA
BRANCH   1  16
ATOM     16  C   UNL     1      -3.431 -10.592  12.618  0.00  0.00    +0.105 A 
ATOM     19  C   UNL     1      -2.123 -10.358  12.191  0.00  0.00    +0.028 A 
ATOM     20  C   UNL     1      -4.505 -10.114  11.867  0.00  0.00    +0.028 A 
ATOM     22  C   UNL     1      -1.890  -9.647  11.015  0.00  0.00    +0.002 A 
ATOM     23  C   UNL     1      -4.271  -9.402  10.691  0.00  0.00    +0.002 A 
ATOM     25  C   UNL     1      -2.965  -9.169  10.264  0.00  0.00    +0.000 A 
ENDBRANCH   1  16
ENDBRANCH   7   1
ENDBRANCH  13   7
ENDBRANCH  11  13
TORSDOF 8
ENDMDL
MODEL 10
REMARK VINA RESULT:      -5.7      2.438      8.968
REMARK  Name = 75536689
REMARK  8 active torsions:
REMARK  status: ('A' for Active; 'I' for Inactive)
REMARK    1  A    between atoms: S_1  and  N_7
REMARK    2  A    between atoms: S_1  and  C_16
REMARK    3  A    between atoms: O_3  and  C_10
REMARK    4  A    between atoms: N_6  and  C_9
REMARK    5  A    between atoms: N_6  and  C_14
REMARK    6  A    between atoms: N_7  and  C_13
REMARK    7  A    between atoms: C_11  and  C_13
REMARK    8  A    between atoms: C_14  and  C_15
REMARK                            x       y       z     vdW  Elec       q    Type
REMARK                         _______ _______ _______ _____ _____    ______ ____
ROOT
ATOM      2  O   UNL     1     -18.204   5.702  25.556  0.00  0.00    -0.371 OA
ATOM      9  C   UNL     1     -16.818   4.060  26.568  0.00  0.00    +0.111 C 
ATOM     10  C   UNL     1     -16.386   4.250  25.126  0.00  0.00    +0.164 C 
ATOM     11  C   UNL     1     -16.968   5.625  24.825  0.00  0.00    +0.164 C 
ATOM     12  C   UNL     1     -18.215   4.658  26.545  0.00  0.00    +0.181 C 
ENDROOT
BRANCH  10   3
ATOM      3  O   UNL     1     -14.980   4.227  24.969  0.00  0.00    -0.388 OA
ATOM     27  H   UNL     1     -14.712   3.320  24.748  0.00  0.00    +0.210 HD
ENDBRANCH  10   3
BRANCH   9   6
ATOM      6  N   UNL     1     -16.803   2.672  27.003  0.00  0.00    -0.305 NA
ATOM     26  H   UNL     1     -15.873   2.284  26.844  0.00  0.00    +0.123 HD
BRANCH   6  14
ATOM     14  C   UNL     1     -17.124   2.564  28.422  0.00  0.00    +0.118 C 
BRANCH  14  15
ATOM      8  N   UNL     1     -13.835   2.445  30.294  0.00  0.00    -0.263 NA
ATOM     15  C   UNL     1     -15.962   2.033  29.219  0.00  0.00    -0.015 A 
ATOM     17  C   UNL     1     -15.913   0.702  29.616  0.00  0.00    +0.008 A 
ATOM     18  C   UNL     1     -14.908   2.857  29.579  0.00  0.00    +0.115 A 
ATOM     21  C   UNL     1     -14.827   0.240  30.351  0.00  0.00    +0.020 A 
ATOM     24  C   UNL     1     -13.824   1.144  30.662  0.00  0.00    +0.111 A 
ENDBRANCH  14  15
ENDBRANCH   6  14
ENDBRANCH   9   6
BRANCH  11  13
ATOM     13  C   UNL     1     -17.230   5.855  23.347  0.00  0.00    +0.140 C 
BRANCH  13   7
ATOM      7  N   UNL     1     -16.009   6.377  22.702  0.00  0.00    -0.187 NA
ATOM     28  H   UNL     1     -15.922   7.400  22.674  0.00  0.00    +0.148 HD
BRANCH   7   1
ATOM      1  S   UNL     1     -15.223   5.463  21.501  0.00  0.00    +0.058 S 
ATOM      4  O   UNL     1     -16.131   5.249  20.390  0.00  0.00    -0.153 OA
ATOM      5  O   UNL     1     -14.556   4.337  22.126  0.00  0.00    -0.153 OA
BRANCH   1  16
ATOM     16  C   UNL     1     -13.961   6.579  20.966  0.00  0.00    +0.105 A 
ATOM     19  C   UNL     1     -14.304   7.737  20.267  0.00  0.00    +0.028 A 
ATOM     20  C   UNL     1     -12.622   6.300  21.239  0.00  0.00    +0.028 A 
ATOM     22  C   UNL     1     -13.308   8.615  19.841  0.00  0.00    +0.002 A 
ATOM     23  C   UNL     1     -11.626   7.180  20.813  0.00  0.00    +0.002 A 
ATOM     25  C   UNL     1     -11.969   8.336  20.114  0.00  0.00    +0.000 A 
ENDBRANCH   1  16
ENDBRANCH   7   1
ENDBRANCH  13   7
ENDBRANCH  11  13
TORSDOF 8
ENDMDL
