MODEL 1
REMARK VINA RESULT:      -6.6      0.000      0.000
REMARK  Name = 45784315
REMARK  3 active torsions:
REMARK  status: ('A' for Active; 'I' for Inactive)
REMARK    1  A    between atoms: N_1  and  C_5
REMARK    2  A    between atoms: C_8  and  C_13
REMARK    3  A    between atoms: C_18  and  C_20
REMARK                            x       y       z     vdW  Elec       q    Type
REMARK                         _______ _______ _______ _____ _____    ______ ____
ROOT
ATOM      2  N   UNL     1      16.124   6.056  19.434  0.00  0.00    -0.342 N 
ATOM      3  N   UNL     1      15.601   7.854  20.630  0.00  0.00    -0.232 NA
ATOM     13  C   UNL     1      15.140   6.917  19.832  0.00  0.00    +0.113 A 
ATOM     14  C   UNL     1      17.298   6.465  20.013  0.00  0.00    +0.067 A 
ATOM     15  C   UNL     1      16.945   7.589  20.755  0.00  0.00    +0.089 A 
ATOM     16  C   UNL     1      18.598   5.963  19.954  0.00  0.00    +0.046 A 
ATOM     17  C   UNL     1      17.935   8.265  21.488  0.00  0.00    +0.031 A 
ATOM     18  C   UNL     1      19.572   6.648  20.690  0.00  0.00    +0.054 A 
ATOM     19  C   UNL     1      19.247   7.778  21.443  0.00  0.00    +0.021 A 
ATOM     21  H   UNL     1      16.011   5.259  18.821  0.00  0.00    +0.167 HD
ENDROOT
BRANCH  13   8
ATOM      1  N   UNL     1      11.936   7.872  18.329  0.00  0.00    -0.299 NA
ATOM      8  C   UNL     1      13.713   6.747  19.367  0.00  0.00    +0.070 C 
ATOM      9  C   UNL     1      13.369   7.623  18.154  0.00  0.00    +0.096 C 
ATOM     11  C   UNL     1      11.778   8.164  19.755  0.00  0.00    +0.085 C 
ATOM     12  C   UNL     1      12.644   7.099  20.417  0.00  0.00    +0.028 C 
BRANCH   1   5
ATOM      5  C   UNL     1      11.502   9.013  17.514  0.00  0.00    +0.057 C 
ATOM      6  C   UNL     1      10.479   8.538  16.461  0.00  0.00    +0.019 C 
ATOM      7  C   UNL     1      12.490   9.221  16.348  0.00  0.00    +0.019 C 
ATOM     10  C   UNL     1      11.257   9.385  15.434  0.00  0.00    +0.003 C 
ENDBRANCH   1   5
ENDBRANCH  13   8
BRANCH  18  20
ATOM      4  N   UNL     1      22.019   5.800  20.650  0.00  0.00    -0.191 NA
ATOM     20  C   UNL     1      20.923   6.180  20.668  0.00  0.00    +0.099 C 
ENDBRANCH  18  20
TORSDOF 3
ENDMDL
MODEL 2
REMARK VINA RESULT:      -6.5     12.849     16.803
REMARK  Name = 45784315
REMARK  3 active torsions:
REMARK  status: ('A' for Active; 'I' for Inactive)
REMARK    1  A    between atoms: N_1  and  C_5
REMARK    2  A    between atoms: C_8  and  C_13
REMARK    3  A    between atoms: C_18  and  C_20
REMARK                            x       y       z     vdW  Elec       q    Type
REMARK                         _______ _______ _______ _____ _____    ______ ____
ROOT
ATOM      2  N   UNL     1      10.259   4.891   4.667  0.00  0.00    -0.342 N 
ATOM      3  N   UNL     1       9.331   6.889   4.374  0.00  0.00    -0.232 NA
ATOM     13  C   UNL     1       9.889   5.859   3.776  0.00  0.00    +0.113 A 
ATOM     14  C   UNL     1       9.918   5.324   5.923  0.00  0.00    +0.067 A 
ATOM     15  C   UNL     1       9.341   6.574   5.713  0.00  0.00    +0.089 A 
ATOM     16  C   UNL     1      10.061   4.748   7.185  0.00  0.00    +0.046 A 
ATOM     17  C   UNL     1       8.872   7.306   6.816  0.00  0.00    +0.031 A 
ATOM     18  C   UNL     1       9.589   5.491   8.273  0.00  0.00    +0.054 A 
ATOM     19  C   UNL     1       9.005   6.747   8.094  0.00  0.00    +0.021 A 
ATOM     21  H   UNL     1      10.705   4.011   4.443  0.00  0.00    +0.167 HD
ENDROOT
BRANCH  13   8
ATOM      1  N   UNL     1      11.680   4.910   0.722  0.00  0.00    -0.299 NA
ATOM      8  C   UNL     1      10.125   5.694   2.293  0.00  0.00    +0.070 C 
ATOM      9  C   UNL     1      11.017   4.490   1.960  0.00  0.00    +0.096 C 
ATOM     11  C   UNL     1      12.058   6.305   0.955  0.00  0.00    +0.085 C 
ATOM     12  C   UNL     1      10.813   6.889   1.610  0.00  0.00    +0.028 C 
BRANCH   1   5
ATOM      5  C   UNL     1      12.866   4.087   0.461  0.00  0.00    +0.057 C 
ATOM      6  C   UNL     1      13.127   3.156   1.664  0.00  0.00    +0.019 C 
ATOM      7  C   UNL     1      14.134   4.858   0.880  0.00  0.00    +0.019 C 
ATOM     10  C   UNL     1      14.613   3.553   1.551  0.00  0.00    +0.003 C 
ENDBRANCH   1   5
ENDBRANCH  13   8
BRANCH  18  20
ATOM      4  N   UNL     1       9.804   4.514  10.663  0.00  0.00    -0.191 NA
ATOM     20  C   UNL     1       9.708   4.952   9.592  0.00  0.00    +0.099 C 
ENDBRANCH  18  20
TORSDOF 3
ENDMDL
MODEL 3
REMARK VINA RESULT:      -6.3     27.810     30.911
REMARK  Name = 45784315
REMARK  3 active torsions:
REMARK  status: ('A' for Active; 'I' for Inactive)
REMARK    1  A    between atoms: N_1  and  C_5
REMARK    2  A    between atoms: C_8  and  C_13
REMARK    3  A    between atoms: C_18  and  C_20
REMARK                            x       y       z     vdW  Elec       q    Type
REMARK                         _______ _______ _______ _____ _____    ______ ____
ROOT
ATOM      2  N   UNL     1       0.742   0.477  -5.678  0.00  0.00    -0.342 N 
ATOM      3  N   UNL     1       0.099   2.107  -7.044  0.00  0.00    -0.232 NA
ATOM     13  C   UNL     1       1.001   1.726  -6.167  0.00  0.00    +0.113 A 
ATOM     14  C   UNL     1      -0.404   0.020  -6.278  0.00  0.00    +0.067 A 
ATOM     15  C   UNL     1      -0.785   1.057  -7.126  0.00  0.00    +0.089 A 
ATOM     16  C   UNL     1      -1.116  -1.172  -6.155  0.00  0.00    +0.046 A 
ATOM     17  C   UNL     1      -1.945   0.911  -7.907  0.00  0.00    +0.031 A 
ATOM     18  C   UNL     1      -2.269  -1.300  -6.939  0.00  0.00    +0.054 A 
ATOM     19  C   UNL     1      -2.676  -0.279  -7.799  0.00  0.00    +0.021 A 
ATOM     21  H   UNL     1       1.295  -0.025  -4.995  0.00  0.00    +0.167 HD
ENDROOT
BRANCH  13   8
ATOM      1  N   UNL     1       2.938   4.687  -5.209  0.00  0.00    -0.299 NA
ATOM      8  C   UNL     1       2.204   2.516  -5.707  0.00  0.00    +0.070 C 
ATOM      9  C   UNL     1       1.826   3.778  -4.920  0.00  0.00    +0.096 C 
ATOM     11  C   UNL     1       3.185   4.532  -6.644  0.00  0.00    +0.085 C 
ATOM     12  C   UNL     1       3.117   3.022  -6.838  0.00  0.00    +0.028 C 
BRANCH   1   5
ATOM      5  C   UNL     1       2.575   6.073  -4.891  0.00  0.00    +0.057 C 
ATOM      6  C   UNL     1       1.051   6.257  -5.042  0.00  0.00    +0.019 C 
ATOM      7  C   UNL     1       2.728   6.950  -6.152  0.00  0.00    +0.019 C 
ATOM     10  C   UNL     1       1.360   7.567  -5.793  0.00  0.00    +0.003 C 
ENDBRANCH   1   5
ENDBRANCH  13   8
BRANCH  18  20
ATOM      4  N   UNL     1      -3.666  -3.476  -6.788  0.00  0.00    -0.191 NA
ATOM     20  C   UNL     1      -3.040  -2.501  -6.856  0.00  0.00    +0.099 C 
ENDBRANCH  18  20
TORSDOF 3
ENDMDL
MODEL 4
REMARK VINA RESULT:      -6.2      2.006      2.856
REMARK  Name = 45784315
REMARK  3 active torsions:
REMARK  status: ('A' for Active; 'I' for Inactive)
REMARK    1  A    between atoms: N_1  and  C_5
REMARK    2  A    between atoms: C_8  and  C_13
REMARK    3  A    between atoms: C_18  and  C_20
REMARK                            x       y       z     vdW  Elec       q    Type
REMARK                         _______ _______ _______ _____ _____    ______ ____
ROOT
ATOM      2  N   UNL     1      15.997   6.559  19.416  0.00  0.00    -0.342 N 
ATOM      3  N   UNL     1      15.963   8.363  20.714  0.00  0.00    -0.232 NA
ATOM     13  C   UNL     1      15.272   7.621  19.876  0.00  0.00    +0.113 A 
ATOM     14  C   UNL     1      17.240   6.617  19.992  0.00  0.00    +0.067 A 
ATOM     15  C   UNL     1      17.193   7.752  20.798  0.00  0.00    +0.089 A 
ATOM     16  C   UNL     1      18.365   5.801  19.883  0.00  0.00    +0.046 A 
ATOM     17  C   UNL     1      18.328   8.108  21.547  0.00  0.00    +0.031 A 
ATOM     18  C   UNL     1      19.487   6.170  20.634  0.00  0.00    +0.054 A 
ATOM     19  C   UNL     1      19.470   7.302  21.451  0.00  0.00    +0.021 A 
ATOM     21  H   UNL     1      15.678   5.853  18.765  0.00  0.00    +0.167 HD
ENDROOT
BRANCH  13   8
ATOM      1  N   UNL     1      11.808   8.802  20.097  0.00  0.00    -0.299 NA
ATOM      8  C   UNL     1      13.847   7.852  19.431  0.00  0.00    +0.070 C 
ATOM      9  C   UNL     1      13.234   9.130  20.020  0.00  0.00    +0.096 C 
ATOM     11  C   UNL     1      11.766   7.433  20.614  0.00  0.00    +0.085 C 
ATOM     12  C   UNL     1      12.860   6.735  19.815  0.00  0.00    +0.028 C 
BRANCH   1   5
ATOM      5  C   UNL     1      11.109   9.721  21.002  0.00  0.00    +0.057 C 
ATOM      6  C   UNL     1      12.137  10.463  21.882  0.00  0.00    +0.019 C 
ATOM      7  C   UNL     1      10.679   8.965  22.276  0.00  0.00    +0.019 C 
ATOM     10  C   UNL     1      11.209  10.172  23.078  0.00  0.00    +0.003 C 
ENDBRANCH   1   5
ENDBRANCH  13   8
BRANCH  18  20
ATOM      4  N   UNL     1      21.631   4.722  20.504  0.00  0.00    -0.191 NA
ATOM     20  C   UNL     1      20.670   5.371  20.562  0.00  0.00    +0.099 C 
ENDBRANCH  18  20
TORSDOF 3
ENDMDL
MODEL 5
REMARK VINA RESULT:      -6.2      2.688      8.711
REMARK  Name = 45784315
REMARK  3 active torsions:
REMARK  status: ('A' for Active; 'I' for Inactive)
REMARK    1  A    between atoms: N_1  and  C_5
REMARK    2  A    between atoms: C_8  and  C_13
REMARK    3  A    between atoms: C_18  and  C_20
REMARK                            x       y       z     vdW  Elec       q    Type
REMARK                         _______ _______ _______ _____ _____    ______ ____
ROOT
ATOM      2  N   UNL     1      17.920   6.848  21.573  0.00  0.00    -0.342 N 
ATOM      3  N   UNL     1      17.964   6.263  19.430  0.00  0.00    -0.232 NA
ATOM     13  C   UNL     1      18.682   6.431  20.518  0.00  0.00    +0.113 A 
ATOM     14  C   UNL     1      16.624   6.957  21.138  0.00  0.00    +0.067 A 
ATOM     15  C   UNL     1      16.679   6.587  19.796  0.00  0.00    +0.089 A 
ATOM     16  C   UNL     1      15.446   7.336  21.781  0.00  0.00    +0.046 A 
ATOM     17  C   UNL     1      15.496   6.588  19.037  0.00  0.00    +0.031 A 
ATOM     18  C   UNL     1      14.278   7.333  21.010  0.00  0.00    +0.054 A 
ATOM     19  C   UNL     1      14.302   6.966  19.663  0.00  0.00    +0.021 A 
ATOM     21  H   UNL     1      18.249   7.042  22.510  0.00  0.00    +0.167 HD
ENDROOT
BRANCH  13   8
ATOM      1  N   UNL     1      21.772   4.612  21.277  0.00  0.00    -0.299 NA
ATOM      8  C   UNL     1      20.170   6.209  20.663  0.00  0.00    +0.070 C 
ATOM      9  C   UNL     1      20.583   4.749  20.434  0.00  0.00    +0.096 C 
ATOM     11  C   UNL     1      21.425   5.288  22.528  0.00  0.00    +0.085 C 
ATOM     12  C   UNL     1      20.745   6.564  22.046  0.00  0.00    +0.028 C 
BRANCH   1   5
ATOM      5  C   UNL     1      22.079   3.197  21.520  0.00  0.00    +0.057 C 
ATOM      6  C   UNL     1      22.562   3.013  22.974  0.00  0.00    +0.019 C 
ATOM      7  C   UNL     1      23.528   2.900  21.082  0.00  0.00    +0.019 C 
ATOM     10  C   UNL     1      23.687   2.125  22.407  0.00  0.00    +0.003 C 
ENDBRANCH   1   5
ENDBRANCH  13   8
BRANCH  18  20
ATOM      4  N   UNL     1      12.035   8.021  22.107  0.00  0.00    -0.191 NA
ATOM     20  C   UNL     1      13.040   7.712  21.615  0.00  0.00    +0.099 C 
ENDBRANCH  18  20
TORSDOF 3
ENDMDL
MODEL 6
REMARK VINA RESULT:      -6.1      2.458      3.708
REMARK  Name = 45784315
REMARK  3 active torsions:
REMARK  status: ('A' for Active; 'I' for Inactive)
REMARK    1  A    between atoms: N_1  and  C_5
REMARK    2  A    between atoms: C_8  and  C_13
REMARK    3  A    between atoms: C_18  and  C_20
REMARK                            x       y       z     vdW  Elec       q    Type
REMARK                         _______ _______ _______ _____ _____    ______ ____
ROOT
ATOM      2  N   UNL     1      15.449   8.542  20.553  0.00  0.00    -0.342 N 
ATOM      3  N   UNL     1      14.829   7.223  18.875  0.00  0.00    -0.232 NA
ATOM     13  C   UNL     1      14.483   8.238  19.636  0.00  0.00    +0.113 A 
ATOM     14  C   UNL     1      16.488   7.666  20.374  0.00  0.00    +0.067 A 
ATOM     15  C   UNL     1      16.077   6.853  19.320  0.00  0.00    +0.089 A 
ATOM     16  C   UNL     1      17.715   7.519  21.021  0.00  0.00    +0.046 A 
ATOM     17  C   UNL     1      16.928   5.828  18.873  0.00  0.00    +0.031 A 
ATOM     18  C   UNL     1      18.550   6.493  20.564  0.00  0.00    +0.054 A 
ATOM     19  C   UNL     1      18.165   5.663  19.509  0.00  0.00    +0.021 A 
ATOM     21  H   UNL     1      15.408   9.281  21.243  0.00  0.00    +0.167 HD
ENDROOT
BRANCH  13   8
ATOM      1  N   UNL     1      11.594  10.117  20.885  0.00  0.00    -0.299 NA
ATOM      8  C   UNL     1      13.193   9.021  19.565  0.00  0.00    +0.070 C 
ATOM      9  C   UNL     1      13.046  10.038  20.705  0.00  0.00    +0.096 C 
ATOM     11  C   UNL     1      11.131   8.730  20.817  0.00  0.00    +0.085 C 
ATOM     12  C   UNL     1      11.913   8.169  19.635  0.00  0.00    +0.028 C 
BRANCH   1   5
ATOM      5  C   UNL     1      11.260  10.713  22.184  0.00  0.00    +0.057 C 
ATOM      6  C   UNL     1      11.140  12.244  22.035  0.00  0.00    +0.019 C 
ATOM      7  C   UNL     1      12.555  10.969  22.983  0.00  0.00    +0.019 C 
ATOM     10  C   UNL     1      11.976  12.359  23.325  0.00  0.00    +0.003 C 
ENDBRANCH   1   5
ENDBRANCH  13   8
BRANCH  18  20
ATOM      4  N   UNL     1      20.850   6.133  21.699  0.00  0.00    -0.191 NA
ATOM     20  C   UNL     1      19.820   6.295  21.190  0.00  0.00    +0.099 C 
ENDBRANCH  18  20
TORSDOF 3
ENDMDL
MODEL 7
REMARK VINA RESULT:      -6.0     26.308     27.861
REMARK  Name = 45784315
REMARK  3 active torsions:
REMARK  status: ('A' for Active; 'I' for Inactive)
REMARK    1  A    between atoms: N_1  and  C_5
REMARK    2  A    between atoms: C_8  and  C_13
REMARK    3  A    between atoms: C_18  and  C_20
REMARK                            x       y       z     vdW  Elec       q    Type
REMARK                         _______ _______ _______ _____ _____    ______ ____
ROOT
ATOM      2  N   UNL     1      -4.592 -10.734  15.779  0.00  0.00    -0.342 N 
ATOM      3  N   UNL     1      -2.931 -11.420  17.087  0.00  0.00    -0.232 NA
ATOM     13  C   UNL     1      -3.260 -11.026  15.876  0.00  0.00    +0.113 A 
ATOM     14  C   UNL     1      -5.161 -10.953  17.007  0.00  0.00    +0.067 A 
ATOM     15  C   UNL     1      -4.103 -11.381  17.806  0.00  0.00    +0.089 A 
ATOM     16  C   UNL     1      -6.468 -10.819  17.474  0.00  0.00    +0.046 A 
ATOM     17  C   UNL     1      -4.347 -11.697  19.153  0.00  0.00    +0.031 A 
ATOM     18  C   UNL     1      -6.693 -11.138  18.818  0.00  0.00    +0.054 A 
ATOM     19  C   UNL     1      -5.653 -11.568  19.643  0.00  0.00    +0.021 A 
ATOM     21  H   UNL     1      -5.075 -10.412  14.950  0.00  0.00    +0.167 HD
ENDROOT
BRANCH  13   8
ATOM      1  N   UNL     1      -2.290 -10.899  12.344  0.00  0.00    -0.299 NA
ATOM      8  C   UNL     1      -2.337 -10.889  14.689  0.00  0.00    +0.070 C 
ATOM      9  C   UNL     1      -3.032 -10.298  13.455  0.00  0.00    +0.096 C 
ATOM     11  C   UNL     1      -2.118 -12.302  12.724  0.00  0.00    +0.085 C 
ATOM     12  C   UNL     1      -1.720 -12.208  14.192  0.00  0.00    +0.028 C 
BRANCH   1   5
ATOM      5  C   UNL     1      -3.047 -10.789  11.091  0.00  0.00    +0.057 C 
ATOM      6  C   UNL     1      -2.753  -9.428  10.426  0.00  0.00    +0.019 C 
ATOM      7  C   UNL     1      -4.463 -10.254  11.387  0.00  0.00    +0.019 C 
ATOM     10  C   UNL     1      -4.271  -9.306  10.184  0.00  0.00    +0.003 C 
ENDBRANCH   1   5
ENDBRANCH  13   8
BRANCH  18  20
ATOM      4  N   UNL     1      -9.086 -10.922  19.786  0.00  0.00    -0.191 NA
ATOM     20  C   UNL     1      -8.014 -11.019  19.352  0.00  0.00    +0.099 C 
ENDBRANCH  18  20
TORSDOF 3
ENDMDL
MODEL 8
REMARK VINA RESULT:      -5.8     26.175     28.172
REMARK  Name = 45784315
REMARK  3 active torsions:
REMARK  status: ('A' for Active; 'I' for Inactive)
REMARK    1  A    between atoms: N_1  and  C_5
REMARK    2  A    between atoms: C_8  and  C_13
REMARK    3  A    between atoms: C_18  and  C_20
REMARK                            x       y       z     vdW  Elec       q    Type
REMARK                         _______ _______ _______ _____ _____    ______ ____
ROOT
ATOM      2  N   UNL     1      -4.835 -10.370  13.010  0.00  0.00    -0.342 N 
ATOM      3  N   UNL     1      -2.788 -10.528  12.160  0.00  0.00    -0.232 NA
ATOM     13  C   UNL     1      -3.552 -10.802  13.195  0.00  0.00    +0.113 A 
ATOM     14  C   UNL     1      -4.905  -9.777  11.775  0.00  0.00    +0.067 A 
ATOM     15  C   UNL     1      -3.614  -9.889  11.265  0.00  0.00    +0.089 A 
ATOM     16  C   UNL     1      -5.953  -9.172  11.083  0.00  0.00    +0.046 A 
ATOM     17  C   UNL     1      -3.335  -9.373   9.989  0.00  0.00    +0.031 A 
ATOM     18  C   UNL     1      -5.658  -8.663   9.813  0.00  0.00    +0.054 A 
ATOM     19  C   UNL     1      -4.373  -8.761   9.275  0.00  0.00    +0.021 A 
ATOM     21  H   UNL     1      -5.600 -10.467  13.666  0.00  0.00    +0.167 HD
ENDROOT
BRANCH  13   8
ATOM      1  N   UNL     1      -3.840 -12.003  16.646  0.00  0.00    -0.299 NA
ATOM      8  C   UNL     1      -3.135 -11.505  14.465  0.00  0.00    +0.070 C 
ATOM      9  C   UNL     1      -4.325 -12.054  15.264  0.00  0.00    +0.096 C 
ATOM     11  C   UNL     1      -3.169 -10.707  16.760  0.00  0.00    +0.085 C 
ATOM     12  C   UNL     1      -2.365 -10.627  15.468  0.00  0.00    +0.028 C 
BRANCH   1   5
ATOM      5  C   UNL     1      -4.956 -12.096  17.594  0.00  0.00    +0.057 C 
ATOM      6  C   UNL     1      -5.634 -10.717  17.732  0.00  0.00    +0.019 C 
ATOM      7  C   UNL     1      -4.431 -11.898  19.031  0.00  0.00    +0.019 C 
ATOM     10  C   UNL     1      -5.633 -10.955  19.256  0.00  0.00    +0.003 C 
ENDBRANCH   1   5
ENDBRANCH  13   8
BRANCH  18  20
ATOM      4  N   UNL     1      -7.534  -7.519   8.440  0.00  0.00    -0.191 NA
ATOM     20  C   UNL     1      -6.693  -8.031   9.055  0.00  0.00    +0.099 C 
ENDBRANCH  18  20
TORSDOF 3
ENDMDL
MODEL 9
REMARK VINA RESULT:      -5.8     26.567     28.329
REMARK  Name = 45784315
REMARK  3 active torsions:
REMARK  status: ('A' for Active; 'I' for Inactive)
REMARK    1  A    between atoms: N_1  and  C_5
REMARK    2  A    between atoms: C_8  and  C_13
REMARK    3  A    between atoms: C_18  and  C_20
REMARK                            x       y       z     vdW  Elec       q    Type
REMARK                         _______ _______ _______ _____ _____    ______ ____
ROOT
ATOM      2  N   UNL     1     -12.145  10.849  20.719  0.00  0.00    -0.342 N 
ATOM      3  N   UNL     1     -12.626   9.051  21.933  0.00  0.00    -0.232 NA
ATOM     13  C   UNL     1     -12.591  10.365  21.917  0.00  0.00    +0.113 A 
ATOM     14  C   UNL     1     -11.872   9.777  19.909  0.00  0.00    +0.067 A 
ATOM     15  C   UNL     1     -12.181   8.666  20.690  0.00  0.00    +0.089 A 
ATOM     16  C   UNL     1     -11.397   9.686  18.601  0.00  0.00    +0.046 A 
ATOM     17  C   UNL     1     -12.012   7.380  20.149  0.00  0.00    +0.031 A 
ATOM     18  C   UNL     1     -11.235   8.397  18.078  0.00  0.00    +0.054 A 
ATOM     19  C   UNL     1     -11.536   7.265  18.837  0.00  0.00    +0.021 A 
ATOM     21  H   UNL     1     -12.033  11.823  20.471  0.00  0.00    +0.167 HD
ENDROOT
BRANCH  13   8
ATOM      1  N   UNL     1     -12.681  11.684  25.335  0.00  0.00    -0.299 NA
ATOM      8  C   UNL     1     -12.982  11.293  23.043  0.00  0.00    +0.070 C 
ATOM      9  C   UNL     1     -11.901  11.409  24.126  0.00  0.00    +0.096 C 
ATOM     11  C   UNL     1     -13.822  10.771  25.262  0.00  0.00    +0.085 C 
ATOM     12  C   UNL     1     -14.255  10.886  23.805  0.00  0.00    +0.028 C 
BRANCH   1   5
ATOM      5  C   UNL     1     -11.884  11.425  26.540  0.00  0.00    +0.057 C 
ATOM      6  C   UNL     1     -10.634  10.601  26.167  0.00  0.00    +0.019 C 
ATOM      7  C   UNL     1     -12.413  10.160  27.248  0.00  0.00    +0.019 C 
ATOM     10  C   UNL     1     -10.941   9.722  27.397  0.00  0.00    +0.003 C 
ENDBRANCH   1   5
ENDBRANCH  13   8
BRANCH  18  20
ATOM      4  N   UNL     1     -10.357   8.115  15.657  0.00  0.00    -0.191 NA
ATOM     20  C   UNL     1     -10.751   8.241  16.742  0.00  0.00    +0.099 C 
ENDBRANCH  18  20
TORSDOF 3
ENDMDL
MODEL 10
REMARK VINA RESULT:      -5.8     30.196     32.502
REMARK  Name = 45784315
REMARK  3 active torsions:
REMARK  status: ('A' for Active; 'I' for Inactive)
REMARK    1  A    between atoms: N_1  and  C_5
REMARK    2  A    between atoms: C_8  and  C_13
REMARK    3  A    between atoms: C_18  and  C_20
REMARK                            x       y       z     vdW  Elec       q    Type
REMARK                         _______ _______ _______ _____ _____    ______ ____
ROOT
ATOM      2  N   UNL     1     -14.286   5.195  32.172  0.00  0.00    -0.342 N 
ATOM      3  N   UNL     1     -14.541   4.514  34.272  0.00  0.00    -0.232 NA
ATOM     13  C   UNL     1     -14.377   5.556  33.486  0.00  0.00    +0.113 A 
ATOM     14  C   UNL     1     -14.398   3.830  32.102  0.00  0.00    +0.067 A 
ATOM     15  C   UNL     1     -14.556   3.429  33.427  0.00  0.00    +0.089 A 
ATOM     16  C   UNL     1     -14.375   2.939  31.029  0.00  0.00    +0.046 A 
ATOM     17  C   UNL     1     -14.703   2.061  33.715  0.00  0.00    +0.031 A 
ATOM     18  C   UNL     1     -14.522   1.581  31.335  0.00  0.00    +0.054 A 
ATOM     19  C   UNL     1     -14.683   1.149  32.652  0.00  0.00    +0.021 A 
ATOM     21  H   UNL     1     -14.158   5.820  31.386  0.00  0.00    +0.167 HD
ENDROOT
BRANCH  13   8
ATOM      1  N   UNL     1     -13.165   9.015  33.483  0.00  0.00    -0.299 NA
ATOM      8  C   UNL     1     -14.291   7.003  33.911  0.00  0.00    +0.070 C 
ATOM      9  C   UNL     1     -13.857   7.937  32.773  0.00  0.00    +0.096 C 
ATOM     11  C   UNL     1     -12.343   8.336  34.486  0.00  0.00    +0.085 C 
ATOM     12  C   UNL     1     -13.293   7.285  35.048  0.00  0.00    +0.028 C 
BRANCH   1   5
ATOM      5  C   UNL     1     -12.326   9.791  32.563  0.00  0.00    +0.057 C 
ATOM      6  C   UNL     1     -13.044   9.936  31.204  0.00  0.00    +0.019 C 
ATOM      7  C   UNL     1     -11.332   8.851  31.851  0.00  0.00    +0.019 C 
ATOM     10  C   UNL     1     -11.697   9.582  30.542  0.00  0.00    +0.003 C 
ENDBRANCH   1   5
ENDBRANCH  13   8
BRANCH  18  20
ATOM      4  N   UNL     1     -14.494  -0.158  29.414  0.00  0.00    -0.191 NA
ATOM     20  C   UNL     1     -14.506   0.621  30.275  0.00  0.00    +0.099 C 
ENDBRANCH  18  20
TORSDOF 3
ENDMDL
