MODEL 1
REMARK VINA RESULT:      -7.6      0.000      0.000
REMARK  Name = 38344451
REMARK  8 active torsions:
REMARK  status: ('A' for Active; 'I' for Inactive)
REMARK    1  A    between atoms: O_2  and  C_29
REMARK    2  A    between atoms: N_4  and  C_13
REMARK    3  A    between atoms: N_6  and  C_17
REMARK    4  A    between atoms: N_6  and  C_18
REMARK    5  A    between atoms: C_8  and  C_14
REMARK    6  A    between atoms: C_13  and  C_15
REMARK    7  A    between atoms: C_17  and  C_21
REMARK    8  A    between atoms: C_24  and  C_29
REMARK                            x       y       z     vdW  Elec       q    Type
REMARK                         _______ _______ _______ _____ _____    ______ ____
ROOT
ATOM      4  N   UNL     1      13.555   8.436  19.371  0.00  0.00    -0.281 NA
ATOM      5  N   UNL     1      11.280   5.830  20.849  0.00  0.00    -0.347 N 
ATOM      7  N   UNL     1      10.660   7.447  22.264  0.00  0.00    -0.240 NA
ATOM      8  C   UNL     1      13.587   9.251  20.615  0.00  0.00    +0.150 C 
ATOM      9  C   UNL     1      12.305   9.220  21.494  0.00  0.00    +0.085 C 
ATOM     10  C   UNL     1      13.172   7.015  19.596  0.00  0.00    +0.140 C 
ATOM     11  C   UNL     1      12.080   6.900  20.588  0.00  0.00    +0.053 A 
ATOM     12  C   UNL     1      11.685   7.876  21.469  0.00  0.00    +0.065 A 
ATOM     16  C   UNL     1      10.439   6.209  21.867  0.00  0.00    +0.197 A 
ATOM     31  H   UNL     1      11.298   4.930  20.389  0.00  0.00    +0.167 HD
ENDROOT
BRANCH   8  14
ATOM      1  O   UNL     1      14.630   7.988  22.321  0.00  0.00    -0.274 OA
ATOM      6  N   UNL     1      16.017   9.340  21.036  0.00  0.00    -0.299 N 
ATOM     14  C   UNL     1      14.784   8.799  21.404  0.00  0.00    +0.233 C 
ATOM     18  C   UNL     1      16.154  10.295  19.945  0.00  0.00    +0.132 C 
BRANCH   6  17
ATOM     17  C   UNL     1      17.260   8.988  21.719  0.00  0.00    +0.142 C 
BRANCH  17  21
ATOM     21  C   UNL     1      17.906   7.770  21.113  0.00  0.00    -0.030 A 
ATOM     25  C   UNL     1      19.171   7.366  21.540  0.00  0.00    +0.005 A 
ATOM     26  C   UNL     1      17.240   7.047  20.124  0.00  0.00    +0.005 A 
ATOM     27  C   UNL     1      19.769   6.238  20.978  0.00  0.00    +0.000 A 
ATOM     28  C   UNL     1      17.838   5.919  19.562  0.00  0.00    +0.000 A 
ATOM     30  C   UNL     1      19.103   5.515  19.989  0.00  0.00    +0.000 A 
ENDBRANCH  17  21
ENDBRANCH   6  17
ENDBRANCH   8  14
BRANCH   4  13
ATOM     13  C   UNL     1      12.695   9.059  18.361  0.00  0.00    +0.120 C 
BRANCH  13  15
ATOM     15  C   UNL     1      13.494   9.641  17.226  0.00  0.00    -0.033 A 
ATOM     19  C   UNL     1      13.789  11.005  17.209  0.00  0.00    +0.006 A 
ATOM     20  C   UNL     1      13.942   8.818  16.193  0.00  0.00    +0.006 A 
ATOM     22  C   UNL     1      14.529  11.545  16.158  0.00  0.00    +0.015 A 
ATOM     23  C   UNL     1      14.682   9.359  15.142  0.00  0.00    +0.015 A 
ATOM     24  C   UNL     1      14.976  10.722  15.125  0.00  0.00    +0.059 A 
BRANCH  24  29
ATOM      3  O   UNL     1      16.510  12.255  14.114  0.00  0.00    -0.245 OA
ATOM     29  C   UNL     1      15.750  11.285  14.029  0.00  0.00    +0.337 C 
BRANCH  29   2
ATOM      2  O   UNL     1      15.551  10.621  12.857  0.00  0.00    -0.477 OA
ATOM     32  H   UNL     1      14.944  11.109  12.261  0.00  0.00    +0.295 HD
ENDBRANCH  29   2
ENDBRANCH  24  29
ENDBRANCH  13  15
ENDBRANCH   4  13
TORSDOF 7
ENDMDL
MODEL 2
REMARK VINA RESULT:      -7.5      2.682      6.202
REMARK  Name = 38344451
REMARK  8 active torsions:
REMARK  status: ('A' for Active; 'I' for Inactive)
REMARK    1  A    between atoms: O_2  and  C_29
REMARK    2  A    between atoms: N_4  and  C_13
REMARK    3  A    between atoms: N_6  and  C_17
REMARK    4  A    between atoms: N_6  and  C_18
REMARK    5  A    between atoms: C_8  and  C_14
REMARK    6  A    between atoms: C_13  and  C_15
REMARK    7  A    between atoms: C_17  and  C_21
REMARK    8  A    between atoms: C_24  and  C_29
REMARK                            x       y       z     vdW  Elec       q    Type
REMARK                         _______ _______ _______ _____ _____    ______ ____
ROOT
ATOM      4  N   UNL     1      13.510   8.950  19.564  0.00  0.00    -0.281 NA
ATOM      5  N   UNL     1      14.779  10.531  16.396  0.00  0.00    -0.347 N 
ATOM      7  N   UNL     1      14.049   8.668  15.398  0.00  0.00    -0.240 NA
ATOM      8  C   UNL     1      13.592   7.568  19.021  0.00  0.00    +0.150 C 
ATOM      9  C   UNL     1      13.355   7.412  17.492  0.00  0.00    +0.085 C 
ATOM     10  C   UNL     1      14.378   9.927  18.851  0.00  0.00    +0.140 C 
ATOM     11  C   UNL     1      14.357   9.701  17.389  0.00  0.00    +0.053 A 
ATOM     12  C   UNL     1      13.919   8.565  16.755  0.00  0.00    +0.065 A 
ATOM     16  C   UNL     1      14.572   9.864  15.214  0.00  0.00    +0.197 A 
ATOM     31  H   UNL     1      15.172  11.457  16.503  0.00  0.00    +0.167 HD
ENDROOT
BRANCH   8  14
ATOM      1  O   UNL     1      15.724   6.674  18.525  0.00  0.00    -0.274 OA
ATOM      6  N   UNL     1      15.214   6.951  20.776  0.00  0.00    -0.299 N 
ATOM     14  C   UNL     1      14.939   7.024  19.409  0.00  0.00    +0.233 C 
ATOM     18  C   UNL     1      14.257   7.376  21.787  0.00  0.00    +0.132 C 
BRANCH   6  17
ATOM     17  C   UNL     1      16.484   6.443  21.290  0.00  0.00    +0.142 C 
BRANCH  17  21
ATOM     21  C   UNL     1      17.548   7.508  21.310  0.00  0.00    -0.030 A 
ATOM     25  C   UNL     1      18.892   7.150  21.419  0.00  0.00    +0.005 A 
ATOM     26  C   UNL     1      17.189   8.852  21.220  0.00  0.00    +0.005 A 
ATOM     27  C   UNL     1      19.877   8.138  21.437  0.00  0.00    +0.000 A 
ATOM     28  C   UNL     1      18.174   9.840  21.237  0.00  0.00    +0.000 A 
ATOM     30  C   UNL     1      19.517   9.482  21.347  0.00  0.00    +0.000 A 
ENDBRANCH  17  21
ENDBRANCH   6  17
ENDBRANCH   8  14
BRANCH   4  13
ATOM     13  C   UNL     1      12.120   9.414  19.605  0.00  0.00    +0.120 C 
BRANCH  13  15
ATOM     15  C   UNL     1      11.776  10.041  20.929  0.00  0.00    -0.033 A 
ATOM     19  C   UNL     1      11.193   9.270  21.935  0.00  0.00    +0.006 A 
ATOM     20  C   UNL     1      12.043  11.392  21.152  0.00  0.00    +0.006 A 
ATOM     22  C   UNL     1      10.873   9.850  23.162  0.00  0.00    +0.015 A 
ATOM     23  C   UNL     1      11.724  11.971  22.380  0.00  0.00    +0.015 A 
ATOM     24  C   UNL     1      11.140  11.201  23.385  0.00  0.00    +0.059 A 
BRANCH  24  29
ATOM      3  O   UNL     1      10.152  12.841  24.821  0.00  0.00    -0.245 OA
ATOM     29  C   UNL     1      10.809  11.806  24.666  0.00  0.00    +0.337 C 
BRANCH  29   2
ATOM      2  O   UNL     1      11.311  11.103  25.719  0.00  0.00    -0.477 OA
ATOM     32  H   UNL     1      11.504  10.172  25.476  0.00  0.00    +0.295 HD
ENDBRANCH  29   2
ENDBRANCH  24  29
ENDBRANCH  13  15
ENDBRANCH   4  13
TORSDOF 7
ENDMDL
MODEL 3
REMARK VINA RESULT:      -7.4      2.556      6.163
REMARK  Name = 38344451
REMARK  8 active torsions:
REMARK  status: ('A' for Active; 'I' for Inactive)
REMARK    1  A    between atoms: O_2  and  C_29
REMARK    2  A    between atoms: N_4  and  C_13
REMARK    3  A    between atoms: N_6  and  C_17
REMARK    4  A    between atoms: N_6  and  C_18
REMARK    5  A    between atoms: C_8  and  C_14
REMARK    6  A    between atoms: C_13  and  C_15
REMARK    7  A    between atoms: C_17  and  C_21
REMARK    8  A    between atoms: C_24  and  C_29
REMARK                            x       y       z     vdW  Elec       q    Type
REMARK                         _______ _______ _______ _____ _____    ______ ____
ROOT
ATOM      4  N   UNL     1      14.680   8.081  19.636  0.00  0.00    -0.281 NA
ATOM      5  N   UNL     1      12.044   8.666  22.255  0.00  0.00    -0.347 N 
ATOM      7  N   UNL     1      10.597   8.057  20.663  0.00  0.00    -0.240 NA
ATOM      8  C   UNL     1      13.733   8.268  18.504  0.00  0.00    +0.150 C 
ATOM      9  C   UNL     1      12.260   7.840  18.757  0.00  0.00    +0.085 C 
ATOM     10  C   UNL     1      14.221   8.701  20.909  0.00  0.00    +0.140 C 
ATOM     11  C   UNL     1      12.770   8.503  21.114  0.00  0.00    +0.053 A 
ATOM     12  C   UNL     1      11.862   8.135  20.152  0.00  0.00    +0.065 A 
ATOM     16  C   UNL     1      10.739   8.384  21.931  0.00  0.00    +0.197 A 
ATOM     31  H   UNL     1      12.392   8.942  23.163  0.00  0.00    +0.167 HD
ENDROOT
BRANCH   8  14
ATOM      1  O   UNL     1      13.660  10.585  18.973  0.00  0.00    -0.274 OA
ATOM      6  N   UNL     1      14.037   9.986  16.758  0.00  0.00    -0.299 N 
ATOM     14  C   UNL     1      13.806   9.717  18.108  0.00  0.00    +0.233 C 
ATOM     18  C   UNL     1      14.203   8.929  15.771  0.00  0.00    +0.132 C 
BRANCH   6  17
ATOM     17  C   UNL     1      14.130  11.348  16.238  0.00  0.00    +0.142 C 
BRANCH  17  21
ATOM     21  C   UNL     1      15.558  11.815  16.140  0.00  0.00    -0.030 A 
ATOM     25  C   UNL     1      16.282  11.605  14.966  0.00  0.00    +0.005 A 
ATOM     26  C   UNL     1      16.157  12.455  17.224  0.00  0.00    +0.005 A 
ATOM     27  C   UNL     1      17.605  12.037  14.877  0.00  0.00    +0.000 A 
ATOM     28  C   UNL     1      17.480  12.888  17.134  0.00  0.00    +0.000 A 
ATOM     30  C   UNL     1      18.204  12.678  15.960  0.00  0.00    +0.000 A 
ENDBRANCH  17  21
ENDBRANCH   6  17
ENDBRANCH   8  14
BRANCH   4  13
ATOM     13  C   UNL     1      14.993   6.662  19.825  0.00  0.00    +0.120 C 
BRANCH  13  15
ATOM     15  C   UNL     1      16.464   6.437  20.050  0.00  0.00    -0.033 A 
ATOM     19  C   UNL     1      17.075   6.924  21.205  0.00  0.00    +0.006 A 
ATOM     20  C   UNL     1      17.215   5.737  19.105  0.00  0.00    +0.006 A 
ATOM     22  C   UNL     1      18.438   6.716  21.414  0.00  0.00    +0.015 A 
ATOM     23  C   UNL     1      18.578   5.529  19.315  0.00  0.00    +0.015 A 
ATOM     24  C   UNL     1      19.189   6.018  20.469  0.00  0.00    +0.059 A 
BRANCH  24  29
ATOM      3  O   UNL     1      21.280   6.292  21.600  0.00  0.00    -0.245 OA
ATOM     29  C   UNL     1      20.611   5.798  20.687  0.00  0.00    +0.337 C 
BRANCH  29   2
ATOM      2  O   UNL     1      21.158   4.967  19.757  0.00  0.00    -0.477 OA
ATOM     32  H   UNL     1      22.043   5.277  19.467  0.00  0.00    +0.295 HD
ENDBRANCH  29   2
ENDBRANCH  24  29
ENDBRANCH  13  15
ENDBRANCH   4  13
TORSDOF 7
ENDMDL
MODEL 4
REMARK VINA RESULT:      -7.3     13.384     17.392
REMARK  Name = 38344451
REMARK  8 active torsions:
REMARK  status: ('A' for Active; 'I' for Inactive)
REMARK    1  A    between atoms: O_2  and  C_29
REMARK    2  A    between atoms: N_4  and  C_13
REMARK    3  A    between atoms: N_6  and  C_17
REMARK    4  A    between atoms: N_6  and  C_18
REMARK    5  A    between atoms: C_8  and  C_14
REMARK    6  A    between atoms: C_13  and  C_15
REMARK    7  A    between atoms: C_17  and  C_21
REMARK    8  A    between atoms: C_24  and  C_29
REMARK                            x       y       z     vdW  Elec       q    Type
REMARK                         _______ _______ _______ _____ _____    ______ ____
ROOT
ATOM      4  N   UNL     1      11.120   6.220   4.218  0.00  0.00    -0.281 NA
ATOM      5  N   UNL     1      12.836   9.490   4.936  0.00  0.00    -0.347 N 
ATOM      7  N   UNL     1      12.054  10.121   2.939  0.00  0.00    -0.240 NA
ATOM      8  C   UNL     1      11.138   6.424   2.745  0.00  0.00    +0.150 C 
ATOM      9  C   UNL     1      11.046   7.896   2.250  0.00  0.00    +0.085 C 
ATOM     10  C   UNL     1      12.137   7.027   4.947  0.00  0.00    +0.140 C 
ATOM     11  C   UNL     1      12.245   8.392   4.388  0.00  0.00    +0.053 A 
ATOM     12  C   UNL     1      11.778   8.802   3.163  0.00  0.00    +0.065 A 
ATOM     16  C   UNL     1      12.694  10.507   4.025  0.00  0.00    +0.197 A 
ATOM     31  H   UNL     1      13.293   9.549   5.837  0.00  0.00    +0.167 HD
ENDROOT
BRANCH   8  14
ATOM      1  O   UNL     1      13.372   6.463   1.968  0.00  0.00    -0.274 OA
ATOM      6  N   UNL     1      12.345   4.380   2.071  0.00  0.00    -0.299 N 
ATOM     14  C   UNL     1      12.387   5.766   2.227  0.00  0.00    +0.233 C 
ATOM     18  C   UNL     1      11.161   3.595   2.388  0.00  0.00    +0.132 C 
BRANCH   6  17
ATOM     17  C   UNL     1      13.488   3.615   1.576  0.00  0.00    +0.142 C 
BRANCH  17  21
ATOM     21  C   UNL     1      13.638   3.735   0.082  0.00  0.00    -0.030 A 
ATOM     25  C   UNL     1      14.764   4.357  -0.458  0.00  0.00    +0.005 A 
ATOM     26  C   UNL     1      12.651   3.225  -0.760  0.00  0.00    +0.005 A 
ATOM     27  C   UNL     1      14.902   4.468  -1.842  0.00  0.00    +0.000 A 
ATOM     28  C   UNL     1      12.789   3.336  -2.143  0.00  0.00    +0.000 A 
ATOM     30  C   UNL     1      13.915   3.958  -2.684  0.00  0.00    +0.000 A 
ENDBRANCH  17  21
ENDBRANCH   6  17
ENDBRANCH   8  14
BRANCH   4  13
ATOM     13  C   UNL     1       9.778   6.450   4.761  0.00  0.00    +0.120 C 
BRANCH  13  15
ATOM     15  C   UNL     1       9.666   5.996   6.191  0.00  0.00    -0.033 A 
ATOM     19  C   UNL     1       9.296   6.904   7.184  0.00  0.00    +0.006 A 
ATOM     20  C   UNL     1       9.928   4.667   6.524  0.00  0.00    +0.006 A 
ATOM     22  C   UNL     1       9.192   6.484   8.509  0.00  0.00    +0.015 A 
ATOM     23  C   UNL     1       9.823   4.247   7.850  0.00  0.00    +0.015 A 
ATOM     24  C   UNL     1       9.455   5.155   8.842  0.00  0.00    +0.059 A 
BRANCH  24  29
ATOM      3  O   UNL     1      10.266   4.256  10.907  0.00  0.00    -0.245 OA
ATOM     29  C   UNL     1       9.344   4.715  10.225  0.00  0.00    +0.337 C 
BRANCH  29   2
ATOM      2  O   UNL     1       8.082   4.860  10.717  0.00  0.00    -0.477 OA
ATOM     32  H   UNL     1       7.495   5.326  10.083  0.00  0.00    +0.295 HD
ENDBRANCH  29   2
ENDBRANCH  24  29
ENDBRANCH  13  15
ENDBRANCH   4  13
TORSDOF 7
ENDMDL
MODEL 5
REMARK VINA RESULT:      -6.7     12.035     15.267
REMARK  Name = 38344451
REMARK  8 active torsions:
REMARK  status: ('A' for Active; 'I' for Inactive)
REMARK    1  A    between atoms: O_2  and  C_29
REMARK    2  A    between atoms: N_4  and  C_13
REMARK    3  A    between atoms: N_6  and  C_17
REMARK    4  A    between atoms: N_6  and  C_18
REMARK    5  A    between atoms: C_8  and  C_14
REMARK    6  A    between atoms: C_13  and  C_15
REMARK    7  A    between atoms: C_17  and  C_21
REMARK    8  A    between atoms: C_24  and  C_29
REMARK                            x       y       z     vdW  Elec       q    Type
REMARK                         _______ _______ _______ _____ _____    ______ ____
ROOT
ATOM      4  N   UNL     1      10.715   7.070   4.999  0.00  0.00    -0.281 NA
ATOM      5  N   UNL     1      10.984   4.977   8.113  0.00  0.00    -0.347 N 
ATOM      7  N   UNL     1       8.870   5.602   8.488  0.00  0.00    -0.240 NA
ATOM      8  C   UNL     1       9.612   7.907   5.542  0.00  0.00    +0.150 C 
ATOM      9  C   UNL     1       8.642   7.211   6.538  0.00  0.00    +0.085 C 
ATOM     10  C   UNL     1      11.524   6.391   6.049  0.00  0.00    +0.140 C 
ATOM     11  C   UNL     1      10.669   5.876   7.141  0.00  0.00    +0.053 A 
ATOM     12  C   UNL     1       9.372   6.249   7.394  0.00  0.00    +0.065 A 
ATOM     16  C   UNL     1       9.866   4.844   8.900  0.00  0.00    +0.197 A 
ATOM     31  H   UNL     1      11.867   4.499   8.238  0.00  0.00    +0.167 HD
ENDROOT
BRANCH   8  14
ATOM      1  O   UNL     1      11.332   8.988   6.755  0.00  0.00    -0.274 OA
ATOM      6  N   UNL     1       9.557  10.320   6.062  0.00  0.00    -0.299 N 
ATOM     14  C   UNL     1      10.250   9.113   6.175  0.00  0.00    +0.233 C 
ATOM     18  C   UNL     1       8.281  10.423   5.367  0.00  0.00    +0.132 C 
BRANCH   6  17
ATOM     17  C   UNL     1      10.062  11.567   6.631  0.00  0.00    +0.142 C 
BRANCH  17  21
ATOM     21  C   UNL     1       9.348  11.930   7.906  0.00  0.00    -0.030 A 
ATOM     25  C   UNL     1       8.544  13.069   7.954  0.00  0.00    +0.005 A 
ATOM     26  C   UNL     1       9.491  11.128   9.037  0.00  0.00    +0.005 A 
ATOM     27  C   UNL     1       7.883  13.405   9.136  0.00  0.00    +0.000 A 
ATOM     28  C   UNL     1       8.830  11.464  10.218  0.00  0.00    +0.000 A 
ATOM     30  C   UNL     1       8.026  12.603  10.268  0.00  0.00    +0.000 A 
ENDBRANCH  17  21
ENDBRANCH   6  17
ENDBRANCH   8  14
BRANCH   4  13
ATOM     13  C   UNL     1      10.204   6.104   4.022  0.00  0.00    +0.120 C 
BRANCH  13  15
ATOM     15  C   UNL     1      11.313   5.479   3.219  0.00  0.00    -0.033 A 
ATOM     19  C   UNL     1      11.226   4.142   2.832  0.00  0.00    +0.006 A 
ATOM     20  C   UNL     1      12.427   6.239   2.858  0.00  0.00    +0.006 A 
ATOM     22  C   UNL     1      12.253   3.563   2.088  0.00  0.00    +0.015 A 
ATOM     23  C   UNL     1      13.453   5.658   2.112  0.00  0.00    +0.015 A 
ATOM     24  C   UNL     1      13.366   4.321   1.728  0.00  0.00    +0.059 A 
BRANCH  24  29
ATOM      3  O   UNL     1      14.486   3.670  -0.285  0.00  0.00    -0.245 OA
ATOM     29  C   UNL     1      14.437   3.718   0.948  0.00  0.00    +0.337 C 
BRANCH  29   2
ATOM      2  O   UNL     1      15.417   3.189   1.733  0.00  0.00    -0.477 OA
ATOM     32  H   UNL     1      15.627   2.265   1.479  0.00  0.00    +0.295 HD
ENDBRANCH  29   2
ENDBRANCH  24  29
ENDBRANCH  13  15
ENDBRANCH   4  13
TORSDOF 7
ENDMDL
MODEL 6
REMARK VINA RESULT:      -6.6     13.972     17.277
REMARK  Name = 38344451
REMARK  8 active torsions:
REMARK  status: ('A' for Active; 'I' for Inactive)
REMARK    1  A    between atoms: O_2  and  C_29
REMARK    2  A    between atoms: N_4  and  C_13
REMARK    3  A    between atoms: N_6  and  C_17
REMARK    4  A    between atoms: N_6  and  C_18
REMARK    5  A    between atoms: C_8  and  C_14
REMARK    6  A    between atoms: C_13  and  C_15
REMARK    7  A    between atoms: C_17  and  C_21
REMARK    8  A    between atoms: C_24  and  C_29
REMARK                            x       y       z     vdW  Elec       q    Type
REMARK                         _______ _______ _______ _____ _____    ______ ____
ROOT
ATOM      4  N   UNL     1       9.094   7.084   4.693  0.00  0.00    -0.281 NA
ATOM      5  N   UNL     1       9.108   5.572   8.137  0.00  0.00    -0.347 N 
ATOM      7  N   UNL     1      11.318   5.905   8.068  0.00  0.00    -0.240 NA
ATOM      8  C   UNL     1      10.520   6.749   4.435  0.00  0.00    +0.150 C 
ATOM      9  C   UNL     1      11.461   6.736   5.673  0.00  0.00    +0.085 C 
ATOM     10  C   UNL     1       8.465   6.251   5.754  0.00  0.00    +0.140 C 
ATOM     11  C   UNL     1       9.391   6.028   6.885  0.00  0.00    +0.053 A 
ATOM     12  C   UNL     1      10.750   6.220   6.865  0.00  0.00    +0.065 A 
ATOM     16  C   UNL     1      10.302   5.516   8.812  0.00  0.00    +0.197 A 
ATOM     31  H   UNL     1       8.199   5.320   8.502  0.00  0.00    +0.167 HD
ENDROOT
BRANCH   8  14
ATOM      1  O   UNL     1      10.617   4.385   4.415  0.00  0.00    -0.274 OA
ATOM      6  N   UNL     1      10.461   5.435   2.346  0.00  0.00    -0.299 N 
ATOM     14  C   UNL     1      10.537   5.416   3.740  0.00  0.00    +0.233 C 
ATOM     18  C   UNL     1      10.368   6.676   1.589  0.00  0.00    +0.132 C 
BRANCH   6  17
ATOM     17  C   UNL     1      10.469   4.213   1.546  0.00  0.00    +0.142 C 
BRANCH  17  21
ATOM     21  C   UNL     1      11.790   4.005   0.854  0.00  0.00    -0.030 A 
ATOM     25  C   UNL     1      12.953   3.838   1.606  0.00  0.00    +0.005 A 
ATOM     26  C   UNL     1      11.850   3.982  -0.539  0.00  0.00    +0.005 A 
ATOM     27  C   UNL     1      14.177   3.646   0.964  0.00  0.00    +0.000 A 
ATOM     28  C   UNL     1      13.074   3.789  -1.181  0.00  0.00    +0.000 A 
ATOM     30  C   UNL     1      14.237   3.622  -0.429  0.00  0.00    +0.000 A 
ENDBRANCH  17  21
ENDBRANCH   6  17
ENDBRANCH   8  14
BRANCH   4  13
ATOM     13  C   UNL     1       8.937   8.512   4.983  0.00  0.00    +0.120 C 
BRANCH  13  15
ATOM     15  C   UNL     1       7.759   9.106   4.259  0.00  0.00    -0.033 A 
ATOM     19  C   UNL     1       7.554   8.821   2.909  0.00  0.00    +0.006 A 
ATOM     20  C   UNL     1       6.871   9.940   4.939  0.00  0.00    +0.006 A 
ATOM     22  C   UNL     1       6.463   9.371   2.238  0.00  0.00    +0.015 A 
ATOM     23  C   UNL     1       5.780  10.490   4.266  0.00  0.00    +0.015 A 
ATOM     24  C   UNL     1       5.576  10.205   2.917  0.00  0.00    +0.059 A 
BRANCH  24  29
ATOM      3  O   UNL     1       4.369  11.932   1.781  0.00  0.00    -0.245 OA
ATOM     29  C   UNL     1       4.435  10.778   2.217  0.00  0.00    +0.337 C 
BRANCH  29   2
ATOM      2  O   UNL     1       3.409   9.894   2.084  0.00  0.00    -0.477 OA
ATOM     32  H   UNL     1       3.116   9.813   1.151  0.00  0.00    +0.295 HD
ENDBRANCH  29   2
ENDBRANCH  24  29
ENDBRANCH  13  15
ENDBRANCH   4  13
TORSDOF 7
ENDMDL
MODEL 7
REMARK VINA RESULT:      -6.5     13.121     16.897
REMARK  Name = 38344451
REMARK  8 active torsions:
REMARK  status: ('A' for Active; 'I' for Inactive)
REMARK    1  A    between atoms: O_2  and  C_29
REMARK    2  A    between atoms: N_4  and  C_13
REMARK    3  A    between atoms: N_6  and  C_17
REMARK    4  A    between atoms: N_6  and  C_18
REMARK    5  A    between atoms: C_8  and  C_14
REMARK    6  A    between atoms: C_13  and  C_15
REMARK    7  A    between atoms: C_17  and  C_21
REMARK    8  A    between atoms: C_24  and  C_29
REMARK                            x       y       z     vdW  Elec       q    Type
REMARK                         _______ _______ _______ _____ _____    ______ ____
ROOT
ATOM      4  N   UNL     1      10.270   8.913   4.266  0.00  0.00    -0.281 NA
ATOM      5  N   UNL     1       8.834  11.907   2.499  0.00  0.00    -0.347 N 
ATOM      7  N   UNL     1       6.864  10.887   2.775  0.00  0.00    -0.240 NA
ATOM      8  C   UNL     1       9.124   8.034   3.913  0.00  0.00    +0.150 C 
ATOM      9  C   UNL     1       7.738   8.726   3.780  0.00  0.00    +0.085 C 
ATOM     10  C   UNL     1      10.417  10.095   3.373  0.00  0.00    +0.140 C 
ATOM     11  C   UNL     1       9.103  10.686   3.040  0.00  0.00    +0.053 A 
ATOM     12  C   UNL     1       7.882  10.079   3.195  0.00  0.00    +0.065 A 
ATOM     16  C   UNL     1       7.470  11.981   2.359  0.00  0.00    +0.197 A 
ATOM     31  H   UNL     1       9.504  12.621   2.245  0.00  0.00    +0.167 HD
ENDROOT
BRANCH   8  14
ATOM      1  O   UNL     1       9.335   7.913   1.560  0.00  0.00    -0.274 OA
ATOM      6  N   UNL     1       9.993   6.033   2.759  0.00  0.00    -0.299 N 
ATOM     14  C   UNL     1       9.491   7.329   2.636  0.00  0.00    +0.233 C 
ATOM     18  C   UNL     1      10.160   5.381   4.050  0.00  0.00    +0.132 C 
BRANCH   6  17
ATOM     17  C   UNL     1      10.387   5.235   1.600  0.00  0.00    +0.142 C 
BRANCH  17  21
ATOM     21  C   UNL     1      11.866   4.949   1.593  0.00  0.00    -0.030 A 
ATOM     25  C   UNL     1      12.321   3.630   1.615  0.00  0.00    +0.005 A 
ATOM     26  C   UNL     1      12.778   6.003   1.567  0.00  0.00    +0.005 A 
ATOM     27  C   UNL     1      13.691   3.367   1.609  0.00  0.00    +0.000 A 
ATOM     28  C   UNL     1      14.148   5.739   1.560  0.00  0.00    +0.000 A 
ATOM     30  C   UNL     1      14.604   4.420   1.582  0.00  0.00    +0.000 A 
ENDBRANCH  17  21
ENDBRANCH   6  17
ENDBRANCH   8  14
BRANCH   4  13
ATOM     13  C   UNL     1      10.200   9.322   5.672  0.00  0.00    +0.120 C 
BRANCH  13  15
ATOM     15  C   UNL     1      10.069   8.140   6.595  0.00  0.00    -0.033 A 
ATOM     19  C   UNL     1      11.152   7.284   6.790  0.00  0.00    +0.006 A 
ATOM     20  C   UNL     1       8.864   7.903   7.257  0.00  0.00    +0.006 A 
ATOM     22  C   UNL     1      11.031   6.189   7.645  0.00  0.00    +0.015 A 
ATOM     23  C   UNL     1       8.744   6.808   8.112  0.00  0.00    +0.015 A 
ATOM     24  C   UNL     1       9.827   5.951   8.306  0.00  0.00    +0.059 A 
BRANCH  24  29
ATOM      3  O   UNL     1       9.040   4.788  10.244  0.00  0.00    -0.245 OA
ATOM     29  C   UNL     1       9.700   4.810   9.200  0.00  0.00    +0.337 C 
BRANCH  29   2
ATOM      2  O   UNL     1      10.404   3.729   8.766  0.00  0.00    -0.477 OA
ATOM     32  H   UNL     1      10.000   3.328   7.967  0.00  0.00    +0.295 HD
ENDBRANCH  29   2
ENDBRANCH  24  29
ENDBRANCH  13  15
ENDBRANCH   4  13
TORSDOF 7
ENDMDL
MODEL 8
REMARK VINA RESULT:      -6.4     27.348     29.387
REMARK  Name = 38344451
REMARK  8 active torsions:
REMARK  status: ('A' for Active; 'I' for Inactive)
REMARK    1  A    between atoms: O_2  and  C_29
REMARK    2  A    between atoms: N_4  and  C_13
REMARK    3  A    between atoms: N_6  and  C_17
REMARK    4  A    between atoms: N_6  and  C_18
REMARK    5  A    between atoms: C_8  and  C_14
REMARK    6  A    between atoms: C_13  and  C_15
REMARK    7  A    between atoms: C_17  and  C_21
REMARK    8  A    between atoms: C_24  and  C_29
REMARK                            x       y       z     vdW  Elec       q    Type
REMARK                         _______ _______ _______ _____ _____    ______ ____
ROOT
ATOM      4  N   UNL     1      -3.938 -11.347  13.991  0.00  0.00    -0.281 NA
ATOM      5  N   UNL     1      -2.959 -14.907  14.710  0.00  0.00    -0.347 N 
ATOM      7  N   UNL     1      -1.166 -14.469  13.448  0.00  0.00    -0.240 NA
ATOM      8  C   UNL     1      -3.127 -11.274  12.747  0.00  0.00    +0.150 C 
ATOM      9  C   UNL     1      -1.829 -12.130  12.718  0.00  0.00    +0.085 C 
ATOM     10  C   UNL     1      -4.280 -12.737  14.403  0.00  0.00    +0.140 C 
ATOM     11  C   UNL     1      -3.138 -13.655  14.207  0.00  0.00    +0.053 A 
ATOM     12  C   UNL     1      -2.030 -13.410  13.433  0.00  0.00    +0.065 A 
ATOM     16  C   UNL     1      -1.755 -15.356  14.225  0.00  0.00    +0.197 A 
ATOM     31  H   UNL     1      -3.587 -15.414  15.320  0.00  0.00    +0.167 HD
ENDROOT
BRANCH   8  14
ATOM      1  O   UNL     1      -4.682 -12.697  11.673  0.00  0.00    -0.274 OA
ATOM      6  N   UNL     1      -4.088 -10.760  10.533  0.00  0.00    -0.299 N 
ATOM     14  C   UNL     1      -4.036 -11.647  11.609  0.00  0.00    +0.233 C 
ATOM     18  C   UNL     1      -3.308  -9.531  10.498  0.00  0.00    +0.132 C 
BRANCH   6  17
ATOM     17  C   UNL     1      -4.929 -11.001   9.362  0.00  0.00    +0.142 C 
BRANCH  17  21
ATOM     21  C   UNL     1      -6.107 -10.064   9.317  0.00  0.00    -0.030 A 
ATOM     25  C   UNL     1      -7.007 -10.024  10.382  0.00  0.00    +0.005 A 
ATOM     26  C   UNL     1      -6.298  -9.238   8.210  0.00  0.00    +0.005 A 
ATOM     27  C   UNL     1      -8.099  -9.156  10.339  0.00  0.00    +0.000 A 
ATOM     28  C   UNL     1      -7.389  -8.370   8.168  0.00  0.00    +0.000 A 
ATOM     30  C   UNL     1      -8.289  -8.330   9.232  0.00  0.00    +0.000 A 
ENDBRANCH  17  21
ENDBRANCH   6  17
ENDBRANCH   8  14
BRANCH   4  13
ATOM     13  C   UNL     1      -3.285 -10.621  15.084  0.00  0.00    +0.120 C 
BRANCH  13  15
ATOM     15  C   UNL     1      -4.084 -10.687  16.358  0.00  0.00    -0.033 A 
ATOM     19  C   UNL     1      -3.583 -11.381  17.460  0.00  0.00    +0.006 A 
ATOM     20  C   UNL     1      -5.324 -10.052  16.438  0.00  0.00    +0.006 A 
ATOM     22  C   UNL     1      -4.323 -11.442  18.640  0.00  0.00    +0.015 A 
ATOM     23  C   UNL     1      -6.062 -10.113  17.620  0.00  0.00    +0.015 A 
ATOM     24  C   UNL     1      -5.562 -10.808  18.720  0.00  0.00    +0.059 A 
BRANCH  24  29
ATOM      3  O   UNL     1      -5.942 -11.354  21.019  0.00  0.00    -0.245 OA
ATOM     29  C   UNL     1      -6.333 -10.869  19.953  0.00  0.00    +0.337 C 
BRANCH  29   2
ATOM      2  O   UNL     1      -7.574 -10.325  19.818  0.00  0.00    -0.477 OA
ATOM     32  H   UNL     1      -7.617  -9.700  19.062  0.00  0.00    +0.295 HD
ENDBRANCH  29   2
ENDBRANCH  24  29
ENDBRANCH  13  15
ENDBRANCH   4  13
TORSDOF 7
ENDMDL
MODEL 9
REMARK VINA RESULT:      -6.4     26.380     30.456
REMARK  Name = 38344451
REMARK  8 active torsions:
REMARK  status: ('A' for Active; 'I' for Inactive)
REMARK    1  A    between atoms: O_2  and  C_29
REMARK    2  A    between atoms: N_4  and  C_13
REMARK    3  A    between atoms: N_6  and  C_17
REMARK    4  A    between atoms: N_6  and  C_18
REMARK    5  A    between atoms: C_8  and  C_14
REMARK    6  A    between atoms: C_13  and  C_15
REMARK    7  A    between atoms: C_17  and  C_21
REMARK    8  A    between atoms: C_24  and  C_29
REMARK                            x       y       z     vdW  Elec       q    Type
REMARK                         _______ _______ _______ _____ _____    ______ ____
ROOT
ATOM      4  N   UNL     1      -7.437 -11.807  17.827  0.00  0.00    -0.281 NA
ATOM      5  N   UNL     1      -8.542 -13.922  20.735  0.00  0.00    -0.347 N 
ATOM      7  N   UNL     1     -10.320 -14.401  19.466  0.00  0.00    -0.240 NA
ATOM      8  C   UNL     1      -8.816 -11.653  17.291  0.00  0.00    +0.150 C 
ATOM      9  C   UNL     1      -9.788 -12.842  17.535  0.00  0.00    +0.085 C 
ATOM     10  C   UNL     1      -7.392 -12.164  19.272  0.00  0.00    +0.140 C 
ATOM     11  C   UNL     1      -8.437 -13.152  19.617  0.00  0.00    +0.053 A 
ATOM     12  C   UNL     1      -9.539 -13.459  18.857  0.00  0.00    +0.065 A 
ATOM     16  C   UNL     1      -9.693 -14.658  20.597  0.00  0.00    +0.197 A 
ATOM     31  H   UNL     1      -7.902 -13.948  21.518  0.00  0.00    +0.167 HD
ENDROOT
BRANCH   8  14
ATOM      1  O   UNL     1      -9.903 -10.413  18.987  0.00  0.00    -0.274 OA
ATOM      6  N   UNL     1      -9.250  -9.231  17.095  0.00  0.00    -0.299 N 
ATOM     14  C   UNL     1      -9.373 -10.383  17.873  0.00  0.00    +0.233 C 
ATOM     18  C   UNL     1      -8.616  -9.242  15.783  0.00  0.00    +0.132 C 
BRANCH   6  17
ATOM     17  C   UNL     1      -9.747  -7.931  17.539  0.00  0.00    +0.142 C 
BRANCH  17  21
ATOM     21  C   UNL     1     -10.963  -7.501  16.760  0.00  0.00    -0.030 A 
ATOM     25  C   UNL     1     -12.119  -8.282  16.786  0.00  0.00    +0.005 A 
ATOM     26  C   UNL     1     -10.932  -6.324  16.014  0.00  0.00    +0.005 A 
ATOM     27  C   UNL     1     -13.245  -7.883  16.065  0.00  0.00    +0.000 A 
ATOM     28  C   UNL     1     -12.057  -5.925  15.294  0.00  0.00    +0.000 A 
ATOM     30  C   UNL     1     -13.214  -6.706  15.318  0.00  0.00    +0.000 A 
ENDBRANCH  17  21
ENDBRANCH   6  17
ENDBRANCH   8  14
BRANCH   4  13
ATOM     13  C   UNL     1      -6.669 -12.762  17.025  0.00  0.00    +0.120 C 
BRANCH  13  15
ATOM     15  C   UNL     1      -5.370 -12.174  16.542  0.00  0.00    -0.033 A 
ATOM     19  C   UNL     1      -4.583 -12.877  15.631  0.00  0.00    +0.006 A 
ATOM     20  C   UNL     1      -4.956 -10.924  17.004  0.00  0.00    +0.006 A 
ATOM     22  C   UNL     1      -3.380 -12.333  15.183  0.00  0.00    +0.015 A 
ATOM     23  C   UNL     1      -3.753 -10.380  16.555  0.00  0.00    +0.015 A 
ATOM     24  C   UNL     1      -2.965 -11.084  15.645  0.00  0.00    +0.059 A 
BRANCH  24  29
ATOM      3  O   UNL     1      -1.549  -9.924  14.103  0.00  0.00    -0.245 OA
ATOM     29  C   UNL     1      -1.711 -10.514  15.176  0.00  0.00    +0.337 C 
BRANCH  29   2
ATOM      2  O   UNL     1      -0.693 -10.699  16.061  0.00  0.00    -0.477 OA
ATOM     32  H   UNL     1      -0.470  -9.871  16.538  0.00  0.00    +0.295 HD
ENDBRANCH  29   2
ENDBRANCH  24  29
ENDBRANCH  13  15
ENDBRANCH   4  13
TORSDOF 7
ENDMDL
MODEL 10
REMARK VINA RESULT:      -6.3     27.433     28.899
REMARK  Name = 38344451
REMARK  8 active torsions:
REMARK  status: ('A' for Active; 'I' for Inactive)
REMARK    1  A    between atoms: O_2  and  C_29
REMARK    2  A    between atoms: N_4  and  C_13
REMARK    3  A    between atoms: N_6  and  C_17
REMARK    4  A    between atoms: N_6  and  C_18
REMARK    5  A    between atoms: C_8  and  C_14
REMARK    6  A    between atoms: C_13  and  C_15
REMARK    7  A    between atoms: C_17  and  C_21
REMARK    8  A    between atoms: C_24  and  C_29
REMARK                            x       y       z     vdW  Elec       q    Type
REMARK                         _______ _______ _______ _____ _____    ______ ____
ROOT
ATOM      4  N   UNL     1      -3.331 -11.252  12.444  0.00  0.00    -0.281 NA
ATOM      5  N   UNL     1      -0.788 -13.902  13.255  0.00  0.00    -0.347 N 
ATOM      7  N   UNL     1      -2.557 -15.219  13.624  0.00  0.00    -0.240 NA
ATOM      8  C   UNL     1      -4.407 -11.906  13.235  0.00  0.00    +0.150 C 
ATOM      9  C   UNL     1      -4.360 -13.459  13.313  0.00  0.00    +0.085 C 
ATOM     10  C   UNL     1      -1.957 -11.662  12.846  0.00  0.00    +0.140 C 
ATOM     11  C   UNL     1      -1.889 -13.111  13.135  0.00  0.00    +0.053 A 
ATOM     12  C   UNL     1      -2.960 -13.938  13.370  0.00  0.00    +0.065 A 
ATOM     16  C   UNL     1      -1.242 -15.164  13.549  0.00  0.00    +0.197 A 
ATOM     31  H   UNL     1       0.178 -13.620  13.151  0.00  0.00    +0.167 HD
ENDROOT
BRANCH   8  14
ATOM      1  O   UNL     1      -3.522 -11.701  15.419  0.00  0.00    -0.274 OA
ATOM      6  N   UNL     1      -5.308 -10.311  14.889  0.00  0.00    -0.299 N 
ATOM     14  C   UNL     1      -4.366 -11.303  14.612  0.00  0.00    +0.233 C 
ATOM     18  C   UNL     1      -6.288  -9.871  13.905  0.00  0.00    +0.132 C 
BRANCH   6  17
ATOM     17  C   UNL     1      -5.381  -9.643  16.186  0.00  0.00    +0.142 C 
BRANCH  17  21
ATOM     21  C   UNL     1      -5.906 -10.559  17.260  0.00  0.00    -0.030 A 
ATOM     25  C   UNL     1      -7.166 -11.143  17.123  0.00  0.00    +0.005 A 
ATOM     26  C   UNL     1      -5.134 -10.822  18.390  0.00  0.00    +0.005 A 
ATOM     27  C   UNL     1      -7.652 -11.991  18.118  0.00  0.00    +0.000 A 
ATOM     28  C   UNL     1      -5.619 -11.671  19.384  0.00  0.00    +0.000 A 
ATOM     30  C   UNL     1      -6.879 -12.255  19.249  0.00  0.00    +0.000 A 
ENDBRANCH  17  21
ENDBRANCH   6  17
ENDBRANCH   8  14
BRANCH   4  13
ATOM     13  C   UNL     1      -3.541 -11.455  11.008  0.00  0.00    +0.120 C 
BRANCH  13  15
ATOM     15  C   UNL     1      -4.587 -10.524  10.456  0.00  0.00    -0.033 A 
ATOM     19  C   UNL     1      -5.771 -11.039   9.928  0.00  0.00    +0.006 A 
ATOM     20  C   UNL     1      -4.374  -9.145  10.476  0.00  0.00    +0.006 A 
ATOM     22  C   UNL     1      -6.740 -10.177   9.417  0.00  0.00    +0.015 A 
ATOM     23  C   UNL     1      -5.344  -8.283   9.965  0.00  0.00    +0.015 A 
ATOM     24  C   UNL     1      -6.527  -8.799   9.436  0.00  0.00    +0.059 A 
BRANCH  24  29
ATOM      3  O   UNL     1      -8.754  -7.988   9.107  0.00  0.00    -0.245 OA
ATOM     29  C   UNL     1      -7.539  -7.898   8.904  0.00  0.00    +0.337 C 
BRANCH  29   2
ATOM      2  O   UNL     1      -7.004  -6.912   8.133  0.00  0.00    -0.477 OA
ATOM     32  H   UNL     1      -6.813  -7.224   7.223  0.00  0.00    +0.295 HD
ENDBRANCH  29   2
ENDBRANCH  24  29
ENDBRANCH  13  15
ENDBRANCH   4  13
TORSDOF 7
ENDMDL
