MODEL 1
REMARK VINA RESULT:      -7.3      0.000      0.000
REMARK  Name = 75536420
REMARK  9 active torsions:
REMARK  status: ('A' for Active; 'I' for Inactive)
REMARK    1  A    between atoms: O_2  and  C_11
REMARK    2  A    between atoms: N_6  and  C_15
REMARK    3  A    between atoms: N_7  and  C_18
REMARK    4  A    between atoms: C_9  and  C_14
REMARK    5  A    between atoms: C_10  and  C_15
REMARK    6  A    between atoms: C_14  and  C_16
REMARK    7  A    between atoms: C_18  and  C_19
REMARK    8  A    between atoms: C_24  and  C_25
REMARK    9  A    between atoms: C_25  and  C_26
REMARK                            x       y       z     vdW  Elec       q    Type
REMARK                         _______ _______ _______ _____ _____    ______ ____
ROOT
ATOM      1  O   UNL     1      10.782   8.248  20.081  0.00  0.00    -0.369 OA
ATOM      9  C   UNL     1      11.874   8.400  19.171  0.00  0.00    +0.125 C 
ATOM     10  C   UNL     1      11.137   7.765  21.383  0.00  0.00    +0.164 C 
ATOM     11  C   UNL     1      11.900   6.438  21.298  0.00  0.00    +0.145 C 
ATOM     12  C   UNL     1      12.593   7.069  18.964  0.00  0.00    +0.034 C 
ATOM     13  C   UNL     1      13.054   6.493  20.300  0.00  0.00    +0.036 C 
ENDROOT
BRANCH  11   2
ATOM      2  O   UNL     1      10.999   5.415  20.865  0.00  0.00    -0.389 OA
ATOM     32  H   UNL     1      11.371   5.016  20.060  0.00  0.00    +0.210 HD
ENDBRANCH  11   2
BRANCH   9  14
ATOM     14  C   UNL     1      11.305   8.920  17.856  0.00  0.00    +0.090 C 
BRANCH  14  16
ATOM      3  O   UNL     1      13.620   9.184  15.106  0.00  0.00    -0.358 OA
ATOM      8  N   UNL     1      12.550   8.586  15.759  0.00  0.00    -0.083 NA
ATOM     16  C   UNL     1      12.394   9.290  16.884  0.00  0.00    +0.086 A 
ATOM     17  C   UNL     1      13.328  10.335  16.994  0.00  0.00    +0.072 A 
ATOM     19  C   UNL     1      14.074  10.225  15.851  0.00  0.00    +0.151 A 
BRANCH  19  18
ATOM     18  C   UNL     1      15.211  10.974  15.304  0.00  0.00    +0.161 C 
BRANCH  18   7
ATOM      4  O   UNL     1      15.055  13.218  11.760  0.00  0.00    -0.377 OA
ATOM      7  N   UNL     1      15.040  11.340  13.900  0.00  0.00    -0.291 NA
ATOM     20  C   UNL     1      16.296  11.854  13.337  0.00  0.00    +0.113 C 
ATOM     21  C   UNL     1      13.974  12.340  13.746  0.00  0.00    +0.113 C 
ATOM     22  C   UNL     1      16.090  12.240  11.875  0.00  0.00    +0.175 C 
ATOM     23  C   UNL     1      13.822  12.713  12.276  0.00  0.00    +0.175 C 
ENDBRANCH  18   7
ENDBRANCH  19  18
ENDBRANCH  14  16
ENDBRANCH   9  14
BRANCH  10  15
ATOM     15  C   UNL     1      11.884   8.832  22.181  0.00  0.00    +0.138 C 
BRANCH  15   6
ATOM      5  O   UNL     1      13.136  11.389  21.758  0.00  0.00    -0.275 OA
ATOM      6  N   UNL     1      11.230  10.101  22.079  0.00  0.00    -0.312 N 
ATOM     24  C   UNL     1      11.917  11.296  21.873  0.00  0.00    +0.217 C 
ATOM     33  H   UNL     1      10.221  10.120  22.202  0.00  0.00    +0.149 HD
BRANCH  24  25
ATOM     25  C   UNL     1      10.978  12.486  21.800  0.00  0.00    +0.130 C 
BRANCH  25  26
ATOM     26  C   UNL     1      10.777  13.169  23.126  0.00  0.00    -0.039 A 
ATOM     27  C   UNL     1      10.420  14.517  23.170  0.00  0.00    +0.004 A 
ATOM     28  C   UNL     1      10.948  12.454  24.312  0.00  0.00    +0.004 A 
ATOM     29  C   UNL     1      10.234  15.150  24.399  0.00  0.00    +0.000 A 
ATOM     30  C   UNL     1      10.762  13.087  25.541  0.00  0.00    +0.000 A 
ATOM     31  C   UNL     1      10.406  14.435  25.585  0.00  0.00    +0.000 A 
ENDBRANCH  25  26
ENDBRANCH  24  25
ENDBRANCH  15   6
ENDBRANCH  10  15
TORSDOF 9
ENDMDL
MODEL 2
REMARK VINA RESULT:      -7.0     15.074     19.615
REMARK  Name = 75536420
REMARK  9 active torsions:
REMARK  status: ('A' for Active; 'I' for Inactive)
REMARK    1  A    between atoms: O_2  and  C_11
REMARK    2  A    between atoms: N_6  and  C_15
REMARK    3  A    between atoms: N_7  and  C_18
REMARK    4  A    between atoms: C_9  and  C_14
REMARK    5  A    between atoms: C_10  and  C_15
REMARK    6  A    between atoms: C_14  and  C_16
REMARK    7  A    between atoms: C_18  and  C_19
REMARK    8  A    between atoms: C_24  and  C_25
REMARK    9  A    between atoms: C_25  and  C_26
REMARK                            x       y       z     vdW  Elec       q    Type
REMARK                         _______ _______ _______ _____ _____    ______ ____
ROOT
ATOM      1  O   UNL     1      12.901   2.866   0.652  0.00  0.00    -0.369 OA
ATOM      9  C   UNL     1      12.935   3.470  -0.644  0.00  0.00    +0.125 C 
ATOM     10  C   UNL     1      13.336   3.707   1.728  0.00  0.00    +0.164 C 
ATOM     11  C   UNL     1      14.746   4.255   1.473  0.00  0.00    +0.145 C 
ATOM     12  C   UNL     1      14.351   3.927  -0.989  0.00  0.00    +0.034 C 
ATOM     13  C   UNL     1      14.889   4.870   0.084  0.00  0.00    +0.036 C 
ENDROOT
BRANCH  11   2
ATOM      2  O   UNL     1      15.684   3.179   1.572  0.00  0.00    -0.389 OA
ATOM     32  H   UNL     1      15.372   2.581   2.273  0.00  0.00    +0.210 HD
ENDBRANCH  11   2
BRANCH   9  14
ATOM     14  C   UNL     1      12.440   2.434  -1.646  0.00  0.00    +0.090 C 
BRANCH  14  16
ATOM      3  O   UNL     1       9.303   2.837  -3.374  0.00  0.00    -0.358 OA
ATOM      8  N   UNL     1      10.239   2.075  -2.688  0.00  0.00    -0.083 NA
ATOM     16  C   UNL     1      11.232   2.922  -2.401  0.00  0.00    +0.086 A 
ATOM     17  C   UNL     1      10.980   4.220  -2.877  0.00  0.00    +0.072 A 
ATOM     19  C   UNL     1       9.755   4.114  -3.480  0.00  0.00    +0.151 A 
BRANCH  19  18
ATOM     18  C   UNL     1       8.883   5.061  -4.183  0.00  0.00    +0.161 C 
BRANCH  18   7
ATOM      4  O   UNL     1       6.615   8.243  -2.651  0.00  0.00    -0.377 OA
ATOM      7  N   UNL     1       8.082   5.887  -3.282  0.00  0.00    -0.291 NA
ATOM     20  C   UNL     1       6.749   6.137  -3.848  0.00  0.00    +0.113 C 
ATOM     21  C   UNL     1       8.757   7.161  -3.002  0.00  0.00    +0.113 C 
ATOM     22  C   UNL     1       5.936   7.010  -2.896  0.00  0.00    +0.175 C 
ATOM     23  C   UNL     1       7.898   8.008  -2.069  0.00  0.00    +0.175 C 
ENDBRANCH  18   7
ENDBRANCH  19  18
ENDBRANCH  14  16
ENDBRANCH   9  14
BRANCH  10  15
ATOM     15  C   UNL     1      12.314   4.804   2.018  0.00  0.00    +0.138 C 
BRANCH  15   6
ATOM      5  O   UNL     1      10.131   6.336   3.101  0.00  0.00    -0.275 OA
ATOM      6  N   UNL     1      11.501   4.461   3.147  0.00  0.00    -0.312 N 
ATOM     24  C   UNL     1      10.460   5.266   3.606  0.00  0.00    +0.217 C 
ATOM     33  H   UNL     1      11.731   3.608   3.648  0.00  0.00    +0.149 HD
BRANCH  24  25
ATOM     25  C   UNL     1       9.764   4.661   4.811  0.00  0.00    +0.130 C 
BRANCH  25  26
ATOM     26  C   UNL     1       9.504   5.657   5.910  0.00  0.00    -0.039 A 
ATOM     27  C   UNL     1       8.418   6.528   5.819  0.00  0.00    +0.004 A 
ATOM     28  C   UNL     1      10.349   5.709   7.019  0.00  0.00    +0.004 A 
ATOM     29  C   UNL     1       8.177   7.451   6.838  0.00  0.00    +0.000 A 
ATOM     30  C   UNL     1      10.108   6.632   8.037  0.00  0.00    +0.000 A 
ATOM     31  C   UNL     1       9.023   7.503   7.946  0.00  0.00    +0.000 A 
ENDBRANCH  25  26
ENDBRANCH  24  25
ENDBRANCH  15   6
ENDBRANCH  10  15
TORSDOF 9
ENDMDL
MODEL 3
REMARK VINA RESULT:      -6.9      2.525      7.544
REMARK  Name = 75536420
REMARK  9 active torsions:
REMARK  status: ('A' for Active; 'I' for Inactive)
REMARK    1  A    between atoms: O_2  and  C_11
REMARK    2  A    between atoms: N_6  and  C_15
REMARK    3  A    between atoms: N_7  and  C_18
REMARK    4  A    between atoms: C_9  and  C_14
REMARK    5  A    between atoms: C_10  and  C_15
REMARK    6  A    between atoms: C_14  and  C_16
REMARK    7  A    between atoms: C_18  and  C_19
REMARK    8  A    between atoms: C_24  and  C_25
REMARK    9  A    between atoms: C_25  and  C_26
REMARK                            x       y       z     vdW  Elec       q    Type
REMARK                         _______ _______ _______ _____ _____    ______ ____
ROOT
ATOM      1  O   UNL     1      14.681   9.699  17.021  0.00  0.00    -0.369 OA
ATOM      9  C   UNL     1      13.284   9.398  17.022  0.00  0.00    +0.125 C 
ATOM     10  C   UNL     1      15.027  10.984  16.487  0.00  0.00    +0.164 C 
ATOM     11  C   UNL     1      14.480  11.165  15.066  0.00  0.00    +0.145 C 
ATOM     12  C   UNL     1      12.719   9.451  15.604  0.00  0.00    +0.034 C 
ATOM     13  C   UNL     1      12.999  10.808  14.963  0.00  0.00    +0.036 C 
ENDROOT
BRANCH  11   2
ATOM      2  O   UNL     1      15.199  10.301  14.182  0.00  0.00    -0.389 OA
ATOM     32  H   UNL     1      14.928  10.518  13.274  0.00  0.00    +0.210 HD
ENDBRANCH  11   2
BRANCH   9  14
ATOM     14  C   UNL     1      13.115   8.007  17.621  0.00  0.00    +0.090 C 
BRANCH  14  16
ATOM      3  O   UNL     1      11.275   7.301  20.639  0.00  0.00    -0.358 OA
ATOM      8  N   UNL     1      11.930   6.909  19.478  0.00  0.00    -0.083 NA
ATOM     16  C   UNL     1      12.350   8.047  18.917  0.00  0.00    +0.086 A 
ATOM     17  C   UNL     1      11.992   9.178  19.672  0.00  0.00    +0.072 A 
ATOM     19  C   UNL     1      11.319   8.654  20.744  0.00  0.00    +0.151 A 
BRANCH  19  18
ATOM     18  C   UNL     1      10.669   9.241  21.921  0.00  0.00    +0.161 C 
BRANCH  18   7
ATOM      4  O   UNL     1      11.763  12.839  23.786  0.00  0.00    -0.377 OA
ATOM      7  N   UNL     1      11.465  10.288  22.558  0.00  0.00    -0.291 NA
ATOM     20  C   UNL     1      10.996  10.542  23.927  0.00  0.00    +0.113 C 
ATOM     21  C   UNL     1      11.422  11.529  21.773  0.00  0.00    +0.113 C 
ATOM     22  C   UNL     1      11.834  11.645  24.567  0.00  0.00    +0.175 C 
ATOM     23  C   UNL     1      12.250  12.608  22.463  0.00  0.00    +0.175 C 
ENDBRANCH  18   7
ENDBRANCH  19  18
ENDBRANCH  14  16
ENDBRANCH   9  14
BRANCH  10  15
ATOM     15  C   UNL     1      14.606  12.106  17.435  0.00  0.00    +0.138 C 
BRANCH  15   6
ATOM      5  O   UNL     1      16.897  12.178  19.177  0.00  0.00    -0.275 OA
ATOM      6  N   UNL     1      14.661  11.672  18.799  0.00  0.00    -0.312 N 
ATOM     24  C   UNL     1      15.819  11.742  19.573  0.00  0.00    +0.217 C 
ATOM     33  H   UNL     1      13.820  11.261  19.194  0.00  0.00    +0.149 HD
BRANCH  24  25
ATOM     25  C   UNL     1      15.594  11.220  20.979  0.00  0.00    +0.130 C 
BRANCH  25  26
ATOM     26  C   UNL     1      15.463   9.722  21.045  0.00  0.00    -0.039 A 
ATOM     27  C   UNL     1      14.752   9.128  22.088  0.00  0.00    +0.004 A 
ATOM     28  C   UNL     1      16.055   8.926  20.063  0.00  0.00    +0.004 A 
ATOM     29  C   UNL     1      14.631   7.740  22.149  0.00  0.00    +0.000 A 
ATOM     30  C   UNL     1      15.934   7.538  20.124  0.00  0.00    +0.000 A 
ATOM     31  C   UNL     1      15.222   6.945  21.167  0.00  0.00    +0.000 A 
ENDBRANCH  25  26
ENDBRANCH  24  25
ENDBRANCH  15   6
ENDBRANCH  10  15
TORSDOF 9
ENDMDL
MODEL 4
REMARK VINA RESULT:      -6.9      3.438      8.032
REMARK  Name = 75536420
REMARK  9 active torsions:
REMARK  status: ('A' for Active; 'I' for Inactive)
REMARK    1  A    between atoms: O_2  and  C_11
REMARK    2  A    between atoms: N_6  and  C_15
REMARK    3  A    between atoms: N_7  and  C_18
REMARK    4  A    between atoms: C_9  and  C_14
REMARK    5  A    between atoms: C_10  and  C_15
REMARK    6  A    between atoms: C_14  and  C_16
REMARK    7  A    between atoms: C_18  and  C_19
REMARK    8  A    between atoms: C_24  and  C_25
REMARK    9  A    between atoms: C_25  and  C_26
REMARK                            x       y       z     vdW  Elec       q    Type
REMARK                         _______ _______ _______ _____ _____    ______ ____
ROOT
ATOM      1  O   UNL     1      16.276  11.955  17.328  0.00  0.00    -0.369 OA
ATOM      9  C   UNL     1      14.971  12.296  16.852  0.00  0.00    +0.125 C 
ATOM     10  C   UNL     1      16.733  12.719  18.452  0.00  0.00    +0.164 C 
ATOM     11  C   UNL     1      16.689  14.224  18.160  0.00  0.00    +0.145 C 
ATOM     12  C   UNL     1      14.915  13.764  16.437  0.00  0.00    +0.034 C 
ATOM     13  C   UNL     1      15.343  14.667  17.591  0.00  0.00    +0.036 C 
ENDROOT
BRANCH  11   2
ATOM      2  O   UNL     1      17.695  14.535  17.192  0.00  0.00    -0.389 OA
ATOM     32  H   UNL     1      17.342  14.305  16.316  0.00  0.00    +0.210 HD
ENDBRANCH  11   2
BRANCH   9  14
ATOM     14  C   UNL     1      14.663  11.385  15.670  0.00  0.00    +0.090 C 
BRANCH  14  16
ATOM      3  O   UNL     1      12.295   8.679  15.913  0.00  0.00    -0.358 OA
ATOM      8  N   UNL     1      12.883   9.741  15.239  0.00  0.00    -0.083 NA
ATOM     16  C   UNL     1      13.811  10.212  16.076  0.00  0.00    +0.086 A 
ATOM     17  C   UNL     1      13.855   9.493  17.283  0.00  0.00    +0.072 A 
ATOM     19  C   UNL     1      12.883   8.540  17.130  0.00  0.00    +0.151 A 
BRANCH  19  18
ATOM     18  C   UNL     1      12.379   7.457  17.981  0.00  0.00    +0.161 C 
BRANCH  18   7
ATOM      4  O   UNL     1      11.018   7.795  21.937  0.00  0.00    -0.377 OA
ATOM      7  N   UNL     1      12.295   7.823  19.393  0.00  0.00    -0.291 NA
ATOM     20  C   UNL     1      12.305   6.626  20.245  0.00  0.00    +0.113 C 
ATOM     21  C   UNL     1      11.087   8.617  19.656  0.00  0.00    +0.113 C 
ATOM     22  C   UNL     1      12.205   7.032  21.713  0.00  0.00    +0.175 C 
ATOM     23  C   UNL     1      11.016   8.978  21.136  0.00  0.00    +0.175 C 
ENDBRANCH  18   7
ENDBRANCH  19  18
ENDBRANCH  14  16
ENDBRANCH   9  14
BRANCH  10  15
ATOM     15  C   UNL     1      15.977  12.336  19.723  0.00  0.00    +0.138 C 
BRANCH  15   6
ATOM      5  O   UNL     1      14.632  10.261  21.196  0.00  0.00    -0.275 OA
ATOM      6  N   UNL     1      16.582  11.205  20.358  0.00  0.00    -0.312 N 
ATOM     24  C   UNL     1      15.852  10.243  21.055  0.00  0.00    +0.217 C 
ATOM     33  H   UNL     1      17.595  11.134  20.323  0.00  0.00    +0.149 HD
BRANCH  24  25
ATOM     25  C   UNL     1      16.744   9.155  21.623  0.00  0.00    +0.130 C 
BRANCH  25  26
ATOM     26  C   UNL     1      16.891   7.968  20.708  0.00  0.00    -0.039 A 
ATOM     27  C   UNL     1      18.066   7.216  20.725  0.00  0.00    +0.004 A 
ATOM     28  C   UNL     1      15.854   7.622  19.841  0.00  0.00    +0.004 A 
ATOM     29  C   UNL     1      18.203   6.116  19.877  0.00  0.00    +0.000 A 
ATOM     30  C   UNL     1      15.991   6.523  18.993  0.00  0.00    +0.000 A 
ATOM     31  C   UNL     1      17.166   5.770  19.011  0.00  0.00    +0.000 A 
ENDBRANCH  25  26
ENDBRANCH  24  25
ENDBRANCH  15   6
ENDBRANCH  10  15
TORSDOF 9
ENDMDL
MODEL 5
REMARK VINA RESULT:      -6.7     26.870     28.608
REMARK  Name = 75536420
REMARK  9 active torsions:
REMARK  status: ('A' for Active; 'I' for Inactive)
REMARK    1  A    between atoms: O_2  and  C_11
REMARK    2  A    between atoms: N_6  and  C_15
REMARK    3  A    between atoms: N_7  and  C_18
REMARK    4  A    between atoms: C_9  and  C_14
REMARK    5  A    between atoms: C_10  and  C_15
REMARK    6  A    between atoms: C_14  and  C_16
REMARK    7  A    between atoms: C_18  and  C_19
REMARK    8  A    between atoms: C_24  and  C_25
REMARK    9  A    between atoms: C_25  and  C_26
REMARK                            x       y       z     vdW  Elec       q    Type
REMARK                         _______ _______ _______ _____ _____    ______ ____
ROOT
ATOM      1  O   UNL     1      -6.379 -11.675  16.971  0.00  0.00    -0.369 OA
ATOM      9  C   UNL     1      -5.032 -11.371  17.342  0.00  0.00    +0.125 C 
ATOM     10  C   UNL     1      -7.380 -10.853  17.586  0.00  0.00    +0.164 C 
ATOM     11  C   UNL     1      -7.267 -10.884  19.115  0.00  0.00    +0.145 C 
ATOM     12  C   UNL     1      -4.845 -11.505  18.851  0.00  0.00    +0.034 C 
ATOM     13  C   UNL     1      -5.843 -10.625  19.598  0.00  0.00    +0.036 C 
ENDROOT
BRANCH  11   2
ATOM      2  O   UNL     1      -7.656 -12.180  19.579  0.00  0.00    -0.389 OA
ATOM     32  H   UNL     1      -7.584 -12.795  18.830  0.00  0.00    +0.210 HD
ENDBRANCH  11   2
BRANCH   9  14
ATOM     14  C   UNL     1      -4.122 -12.337  16.593  0.00  0.00    +0.090 C 
BRANCH  14  16
ATOM      3  O   UNL     1      -2.063 -10.234  14.513  0.00  0.00    -0.358 OA
ATOM      8  N   UNL     1      -2.581 -10.616  15.744  0.00  0.00    -0.083 NA
ATOM     16  C   UNL     1      -3.380 -11.653  15.476  0.00  0.00    +0.086 A 
ATOM     17  C   UNL     1      -3.405 -11.967  14.106  0.00  0.00    +0.072 A 
ATOM     19  C   UNL     1      -2.561 -11.046  13.545  0.00  0.00    +0.151 A 
BRANCH  19  18
ATOM     18  C   UNL     1      -2.114 -10.780  12.173  0.00  0.00    +0.161 C 
BRANCH  18   7
ATOM      4  O   UNL     1      -4.318 -10.182   8.652  0.00  0.00    -0.377 OA
ATOM      7  N   UNL     1      -3.210 -10.473  11.258  0.00  0.00    -0.291 NA
ATOM     20  C   UNL     1      -3.542 -11.641  10.429  0.00  0.00    +0.113 C 
ATOM     21  C   UNL     1      -2.873  -9.328  10.402  0.00  0.00    +0.113 C 
ATOM     22  C   UNL     1      -4.681 -11.293   9.474  0.00  0.00    +0.175 C 
ATOM     23  C   UNL     1      -4.027  -9.034   9.450  0.00  0.00    +0.175 C 
ENDBRANCH  18   7
ENDBRANCH  19  18
ENDBRANCH  14  16
ENDBRANCH   9  14
BRANCH  10  15
ATOM     15  C   UNL     1      -7.357  -9.436  17.015  0.00  0.00    +0.138 C 
BRANCH  15   6
ATOM      5  O   UNL     1      -9.853  -9.295  15.589  0.00  0.00    -0.275 OA
ATOM      6  N   UNL     1      -8.527  -8.708  17.404  0.00  0.00    -0.312 N 
ATOM     24  C   UNL     1      -9.699  -8.694  16.649  0.00  0.00    +0.217 C 
ATOM     33  H   UNL     1      -8.472  -8.150  18.251  0.00  0.00    +0.149 HD
BRANCH  24  25
ATOM     25  C   UNL     1     -10.779  -7.847  17.295  0.00  0.00    +0.130 C 
BRANCH  25  26
ATOM     26  C   UNL     1     -11.687  -7.178  16.298  0.00  0.00    -0.039 A 
ATOM     27  C   UNL     1     -11.209  -6.128  15.514  0.00  0.00    +0.004 A 
ATOM     28  C   UNL     1     -13.008  -7.606  16.159  0.00  0.00    +0.004 A 
ATOM     29  C   UNL     1     -12.050  -5.507  14.590  0.00  0.00    +0.000 A 
ATOM     30  C   UNL     1     -13.849  -6.986  15.235  0.00  0.00    +0.000 A 
ATOM     31  C   UNL     1     -13.370  -5.936  14.451  0.00  0.00    +0.000 A 
ENDBRANCH  25  26
ENDBRANCH  24  25
ENDBRANCH  15   6
ENDBRANCH  10  15
TORSDOF 9
ENDMDL
MODEL 6
REMARK VINA RESULT:      -6.6      6.960      8.524
REMARK  Name = 75536420
REMARK  9 active torsions:
REMARK  status: ('A' for Active; 'I' for Inactive)
REMARK    1  A    between atoms: O_2  and  C_11
REMARK    2  A    between atoms: N_6  and  C_15
REMARK    3  A    between atoms: N_7  and  C_18
REMARK    4  A    between atoms: C_9  and  C_14
REMARK    5  A    between atoms: C_10  and  C_15
REMARK    6  A    between atoms: C_14  and  C_16
REMARK    7  A    between atoms: C_18  and  C_19
REMARK    8  A    between atoms: C_24  and  C_25
REMARK    9  A    between atoms: C_25  and  C_26
REMARK                            x       y       z     vdW  Elec       q    Type
REMARK                         _______ _______ _______ _____ _____    ______ ____
ROOT
ATOM      1  O   UNL     1      16.454   8.714  21.013  0.00  0.00    -0.369 OA
ATOM      9  C   UNL     1      17.311   7.572  21.074  0.00  0.00    +0.125 C 
ATOM     10  C   UNL     1      15.061   8.422  20.838  0.00  0.00    +0.164 C 
ATOM     11  C   UNL     1      14.823   7.556  19.595  0.00  0.00    +0.145 C 
ATOM     12  C   UNL     1      17.193   6.740  19.799  0.00  0.00    +0.034 C 
ATOM     13  C   UNL     1      15.742   6.338  19.550  0.00  0.00    +0.036 C 
ENDROOT
BRANCH  11   2
ATOM      2  O   UNL     1      15.084   8.342  18.429  0.00  0.00    -0.389 OA
ATOM     32  H   UNL     1      14.372   9.000  18.353  0.00  0.00    +0.210 HD
ENDBRANCH  11   2
BRANCH   9  14
ATOM     14  C   UNL     1      18.736   8.078  21.262  0.00  0.00    +0.090 C 
BRANCH  14  16
ATOM      3  O   UNL     1      20.661   5.592  23.023  0.00  0.00    -0.358 OA
ATOM      8  N   UNL     1      19.723   6.614  22.977  0.00  0.00    -0.083 NA
ATOM     16  C   UNL     1      19.668   6.976  21.692  0.00  0.00    +0.086 A 
ATOM     17  C   UNL     1      20.541   6.224  20.888  0.00  0.00    +0.072 A 
ATOM     19  C   UNL     1      21.142   5.368  21.773  0.00  0.00    +0.151 A 
BRANCH  19  18
ATOM     18  C   UNL     1      22.151   4.311  21.638  0.00  0.00    +0.161 C 
BRANCH  18   7
ATOM      4  O   UNL     1      26.021   4.881  20.117  0.00  0.00    -0.377 OA
ATOM      7  N   UNL     1      23.254   4.676  20.752  0.00  0.00    -0.291 NA
ATOM     20  C   UNL     1      24.050   3.494  20.394  0.00  0.00    +0.113 C 
ATOM     21  C   UNL     1      24.113   5.691  21.376  0.00  0.00    +0.113 C 
ATOM     22  C   UNL     1      25.201   3.901  19.478  0.00  0.00    +0.175 C 
ATOM     23  C   UNL     1      25.261   6.047  20.438  0.00  0.00    +0.175 C 
ENDBRANCH  18   7
ENDBRANCH  19  18
ENDBRANCH  14  16
ENDBRANCH   9  14
BRANCH  10  15
ATOM     15  C   UNL     1      14.461   7.819  22.108  0.00  0.00    +0.138 C 
BRANCH  15   6
ATOM      5  O   UNL     1      11.877   6.823  21.324  0.00  0.00    -0.275 OA
ATOM      6  N   UNL     1      13.189   8.408  22.403  0.00  0.00    -0.312 N 
ATOM     24  C   UNL     1      11.981   7.856  21.981  0.00  0.00    +0.217 C 
ATOM     33  H   UNL     1      13.187   9.287  22.910  0.00  0.00    +0.149 HD
BRANCH  24  25
ATOM     25  C   UNL     1      10.791   8.680  22.436  0.00  0.00    +0.130 C 
BRANCH  25  26
ATOM     26  C   UNL     1      11.068  10.160  22.462  0.00  0.00    -0.039 A 
ATOM     27  C   UNL     1      11.498  10.810  21.306  0.00  0.00    +0.004 A 
ATOM     28  C   UNL     1      10.894  10.881  23.644  0.00  0.00    +0.004 A 
ATOM     29  C   UNL     1      11.755  12.181  21.330  0.00  0.00    +0.000 A 
ATOM     30  C   UNL     1      11.151  12.252  23.669  0.00  0.00    +0.000 A 
ATOM     31  C   UNL     1      11.582  12.902  22.512  0.00  0.00    +0.000 A 
ENDBRANCH  25  26
ENDBRANCH  24  25
ENDBRANCH  15   6
ENDBRANCH  10  15
TORSDOF 9
ENDMDL
MODEL 7
REMARK VINA RESULT:      -6.6     13.662     17.275
REMARK  Name = 75536420
REMARK  9 active torsions:
REMARK  status: ('A' for Active; 'I' for Inactive)
REMARK    1  A    between atoms: O_2  and  C_11
REMARK    2  A    between atoms: N_6  and  C_15
REMARK    3  A    between atoms: N_7  and  C_18
REMARK    4  A    between atoms: C_9  and  C_14
REMARK    5  A    between atoms: C_10  and  C_15
REMARK    6  A    between atoms: C_14  and  C_16
REMARK    7  A    between atoms: C_18  and  C_19
REMARK    8  A    between atoms: C_24  and  C_25
REMARK    9  A    between atoms: C_25  and  C_26
REMARK                            x       y       z     vdW  Elec       q    Type
REMARK                         _______ _______ _______ _____ _____    ______ ____
ROOT
ATOM      1  O   UNL     1      11.597   6.084   6.215  0.00  0.00    -0.369 OA
ATOM      9  C   UNL     1      12.233   7.359   6.090  0.00  0.00    +0.125 C 
ATOM     10  C   UNL     1      10.306   5.985   5.599  0.00  0.00    +0.164 C 
ATOM     11  C   UNL     1       9.354   7.068   6.120  0.00  0.00    +0.145 C 
ATOM     12  C   UNL     1      11.367   8.456   6.704  0.00  0.00    +0.034 C 
ATOM     13  C   UNL     1       9.977   8.461   6.075  0.00  0.00    +0.036 C 
ENDROOT
BRANCH  11   2
ATOM      2  O   UNL     1       9.028   6.779   7.483  0.00  0.00    -0.389 OA
ATOM     32  H   UNL     1       9.087   7.612   7.982  0.00  0.00    +0.210 HD
ENDBRANCH  11   2
BRANCH   9  14
ATOM     14  C   UNL     1      13.580   7.270   6.797  0.00  0.00    +0.090 C 
BRANCH  14  16
ATOM      3  O   UNL     1      15.842   7.701   4.025  0.00  0.00    -0.358 OA
ATOM      8  N   UNL     1      14.651   7.254   4.581  0.00  0.00    -0.083 NA
ATOM     16  C   UNL     1      14.720   7.600   5.870  0.00  0.00    +0.086 A 
ATOM     17  C   UNL     1      15.919   8.263   6.181  0.00  0.00    +0.072 A 
ATOM     19  C   UNL     1      16.590   8.301   4.987  0.00  0.00    +0.151 A 
BRANCH  19  18
ATOM     18  C   UNL     1      17.890   8.836   4.569  0.00  0.00    +0.161 C 
BRANCH  18   7
ATOM      4  O   UNL     1      21.811   7.660   5.500  0.00  0.00    -0.377 OA
ATOM      7  N   UNL     1      19.023   8.097   5.122  0.00  0.00    -0.291 NA
ATOM     20  C   UNL     1      19.822   8.953   6.011  0.00  0.00    +0.113 C 
ATOM     21  C   UNL     1      19.869   7.557   4.050  0.00  0.00    +0.113 C 
ATOM     22  C   UNL     1      21.004   8.164   6.567  0.00  0.00    +0.175 C 
ATOM     23  C   UNL     1      21.049   6.800   4.651  0.00  0.00    +0.175 C 
ENDBRANCH  18   7
ENDBRANCH  19  18
ENDBRANCH  14  16
ENDBRANCH   9  14
BRANCH  10  15
ATOM     15  C   UNL     1      10.422   5.975   4.076  0.00  0.00    +0.138 C 
BRANCH  15   6
ATOM      5  O   UNL     1      10.248   4.643   1.531  0.00  0.00    -0.275 OA
ATOM      6  N   UNL     1      11.216   4.870   3.630  0.00  0.00    -0.312 N 
ATOM     24  C   UNL     1      11.064   4.282   2.375  0.00  0.00    +0.217 C 
ATOM     33  H   UNL     1      11.891   4.484   4.284  0.00  0.00    +0.149 HD
BRANCH  24  25
ATOM     25  C   UNL     1      12.036   3.137   2.163  0.00  0.00    +0.130 C 
BRANCH  25  26
ATOM     26  C   UNL     1      13.127   3.456   1.175  0.00  0.00    -0.039 A 
ATOM     27  C   UNL     1      14.427   3.691   1.623  0.00  0.00    +0.004 A 
ATOM     28  C   UNL     1      12.837   3.518  -0.188  0.00  0.00    +0.004 A 
ATOM     29  C   UNL     1      15.437   3.987   0.708  0.00  0.00    +0.000 A 
ATOM     30  C   UNL     1      13.847   3.814  -1.104  0.00  0.00    +0.000 A 
ATOM     31  C   UNL     1      15.147   4.049  -0.656  0.00  0.00    +0.000 A 
ENDBRANCH  25  26
ENDBRANCH  24  25
ENDBRANCH  15   6
ENDBRANCH  10  15
TORSDOF 9
ENDMDL
MODEL 8
REMARK VINA RESULT:      -6.5     10.918     17.314
REMARK  Name = 75536420
REMARK  9 active torsions:
REMARK  status: ('A' for Active; 'I' for Inactive)
REMARK    1  A    between atoms: O_2  and  C_11
REMARK    2  A    between atoms: N_6  and  C_15
REMARK    3  A    between atoms: N_7  and  C_18
REMARK    4  A    between atoms: C_9  and  C_14
REMARK    5  A    between atoms: C_10  and  C_15
REMARK    6  A    between atoms: C_14  and  C_16
REMARK    7  A    between atoms: C_18  and  C_19
REMARK    8  A    between atoms: C_24  and  C_25
REMARK    9  A    between atoms: C_25  and  C_26
REMARK                            x       y       z     vdW  Elec       q    Type
REMARK                         _______ _______ _______ _____ _____    ______ ____
ROOT
ATOM      1  O   UNL     1      10.210   7.663   4.707  0.00  0.00    -0.369 OA
ATOM      9  C   UNL     1       8.817   7.379   4.557  0.00  0.00    +0.125 C 
ATOM     10  C   UNL     1      11.089   6.568   4.421  0.00  0.00    +0.164 C 
ATOM     11  C   UNL     1      10.740   5.336   5.266  0.00  0.00    +0.145 C 
ATOM     12  C   UNL     1       8.399   6.230   5.472  0.00  0.00    +0.034 C 
ATOM     13  C   UNL     1       9.254   4.993   5.208  0.00  0.00    +0.036 C 
ENDROOT
BRANCH  11   2
ATOM      2  O   UNL     1      11.074   5.603   6.631  0.00  0.00    -0.389 OA
ATOM     32  H   UNL     1      11.804   5.010   6.876  0.00  0.00    +0.210 HD
ENDBRANCH  11   2
BRANCH   9  14
ATOM     14  C   UNL     1       8.050   8.651   4.899  0.00  0.00    +0.090 C 
BRANCH  14  16
ATOM      3  O   UNL     1      10.013  11.162   6.579  0.00  0.00    -0.358 OA
ATOM      8  N   UNL     1       9.431  10.613   5.444  0.00  0.00    -0.083 NA
ATOM     16  C   UNL     1       8.806   9.514   5.874  0.00  0.00    +0.086 A 
ATOM     17  C   UNL     1       8.957   9.320   7.258  0.00  0.00    +0.072 A 
ATOM     19  C   UNL     1       9.724  10.384   7.654  0.00  0.00    +0.151 A 
BRANCH  19  18
ATOM     18  C   UNL     1      10.265  10.821   8.945  0.00  0.00    +0.161 C 
BRANCH  18   7
ATOM      4  O   UNL     1       8.127  13.440  11.432  0.00  0.00    -0.377 OA
ATOM      7  N   UNL     1       9.248  11.360   9.845  0.00  0.00    -0.291 NA
ATOM     20  C   UNL     1       8.567  12.510   9.235  0.00  0.00    +0.113 C 
ATOM     21  C   UNL     1       9.841  11.751  11.131  0.00  0.00    +0.113 C 
ATOM     22  C   UNL     1       7.518  13.062  10.196  0.00  0.00    +0.175 C 
ATOM     23  C   UNL     1       8.763  12.319  12.048  0.00  0.00    +0.175 C 
ENDBRANCH  18   7
ENDBRANCH  19  18
ENDBRANCH  14  16
ENDBRANCH   9  14
BRANCH  10  15
ATOM     15  C   UNL     1      11.131   6.271   2.923  0.00  0.00    +0.138 C 
BRANCH  15   6
ATOM      5  O   UNL     1      10.515   3.786   1.609  0.00  0.00    -0.275 OA
ATOM      6  N   UNL     1      12.041   5.203   2.638  0.00  0.00    -0.312 N 
ATOM     24  C   UNL     1      11.656   4.028   1.994  0.00  0.00    +0.217 C 
ATOM     33  H   UNL     1      13.000   5.306   2.959  0.00  0.00    +0.149 HD
BRANCH  24  25
ATOM     25  C   UNL     1      12.820   3.071   1.816  0.00  0.00    +0.130 C 
BRANCH  25  26
ATOM     26  C   UNL     1      13.789   3.504   0.748  0.00  0.00    -0.039 A 
ATOM     27  C   UNL     1      15.130   3.714   1.067  0.00  0.00    +0.004 A 
ATOM     28  C   UNL     1      13.344   3.696  -0.561  0.00  0.00    +0.004 A 
ATOM     29  C   UNL     1      16.028   4.116   0.077  0.00  0.00    +0.000 A 
ATOM     30  C   UNL     1      14.242   4.097  -1.551  0.00  0.00    +0.000 A 
ATOM     31  C   UNL     1      15.584   4.308  -1.232  0.00  0.00    +0.000 A 
ENDBRANCH  25  26
ENDBRANCH  24  25
ENDBRANCH  15   6
ENDBRANCH  10  15
TORSDOF 9
ENDMDL
MODEL 9
REMARK VINA RESULT:      -6.5     26.750     29.835
REMARK  Name = 75536420
REMARK  9 active torsions:
REMARK  status: ('A' for Active; 'I' for Inactive)
REMARK    1  A    between atoms: O_2  and  C_11
REMARK    2  A    between atoms: N_6  and  C_15
REMARK    3  A    between atoms: N_7  and  C_18
REMARK    4  A    between atoms: C_9  and  C_14
REMARK    5  A    between atoms: C_10  and  C_15
REMARK    6  A    between atoms: C_14  and  C_16
REMARK    7  A    between atoms: C_18  and  C_19
REMARK    8  A    between atoms: C_24  and  C_25
REMARK    9  A    between atoms: C_25  and  C_26
REMARK                            x       y       z     vdW  Elec       q    Type
REMARK                         _______ _______ _______ _____ _____    ______ ____
ROOT
ATOM      1  O   UNL     1      -5.195 -11.574  18.466  0.00  0.00    -0.369 OA
ATOM      9  C   UNL     1      -6.604 -11.550  18.224  0.00  0.00    +0.125 C 
ATOM     10  C   UNL     1      -4.394 -12.005  17.357  0.00  0.00    +0.164 C 
ATOM     11  C   UNL     1      -4.835 -13.385  16.852  0.00  0.00    +0.145 C 
ATOM     12  C   UNL     1      -7.108 -12.936  17.830  0.00  0.00    +0.034 C 
ATOM     13  C   UNL     1      -6.342 -13.465  16.621  0.00  0.00    +0.036 C 
ENDROOT
BRANCH  11   2
ATOM      2  O   UNL     1      -4.492 -14.367  17.834  0.00  0.00    -0.389 OA
ATOM     32  H   UNL     1      -4.971 -14.146  18.651  0.00  0.00    +0.210 HD
ENDBRANCH  11   2
BRANCH   9  14
ATOM     14  C   UNL     1      -7.279 -11.069  19.502  0.00  0.00    +0.090 C 
BRANCH  14  16
ATOM      3  O   UNL     1     -10.809 -10.349  19.612  0.00  0.00    -0.358 OA
ATOM      8  N   UNL     1      -9.649 -10.897  20.144  0.00  0.00    -0.083 NA
ATOM     16  C   UNL     1      -8.695 -10.621  19.251  0.00  0.00    +0.086 A 
ATOM     17  C   UNL     1      -9.189  -9.907  18.145  0.00  0.00    +0.072 A 
ATOM     19  C   UNL     1     -10.523  -9.762  18.421  0.00  0.00    +0.151 A 
BRANCH  19  18
ATOM     18  C   UNL     1     -11.643  -9.130  17.716  0.00  0.00    +0.161 C 
BRANCH  18   7
ATOM      4  O   UNL     1     -11.634  -6.421  14.510  0.00  0.00    -0.377 OA
ATOM      7  N   UNL     1     -11.233  -8.395  16.522  0.00  0.00    -0.291 NA
ATOM     20  C   UNL     1     -11.094  -6.961  16.813  0.00  0.00    +0.113 C 
ATOM     21  C   UNL     1     -12.193  -8.595  15.429  0.00  0.00    +0.113 C 
ATOM     22  C   UNL     1     -10.676  -6.213  15.550  0.00  0.00    +0.175 C 
ATOM     23  C   UNL     1     -11.750  -7.811  14.199  0.00  0.00    +0.175 C 
ENDBRANCH  18   7
ENDBRANCH  19  18
ENDBRANCH  14  16
ENDBRANCH   9  14
BRANCH  10  15
ATOM     15  C   UNL     1      -4.365 -10.948  16.255  0.00  0.00    +0.138 C 
BRANCH  15   6
ATOM      5  O   UNL     1      -1.665 -10.603  15.317  0.00  0.00    -0.275 OA
ATOM      6  N   UNL     1      -3.800 -11.480  15.050  0.00  0.00    -0.312 N 
ATOM     24  C   UNL     1      -2.477 -11.262  14.671  0.00  0.00    +0.217 C 
ATOM     33  H   UNL     1      -4.416 -12.005  14.437  0.00  0.00    +0.149 HD
BRANCH  24  25
ATOM     25  C   UNL     1      -2.144 -11.942  13.357  0.00  0.00    +0.130 C 
BRANCH  25  26
ATOM     26  C   UNL     1      -2.605 -11.167  12.151  0.00  0.00    -0.039 A 
ATOM     27  C   UNL     1      -1.928 -10.010  11.764  0.00  0.00    +0.004 A 
ATOM     28  C   UNL     1      -3.711 -11.605  11.421  0.00  0.00    +0.004 A 
ATOM     29  C   UNL     1      -2.356  -9.292  10.647  0.00  0.00    +0.000 A 
ATOM     30  C   UNL     1      -4.139 -10.887  10.304  0.00  0.00    +0.000 A 
ATOM     31  C   UNL     1      -3.461  -9.730   9.918  0.00  0.00    +0.000 A 
ENDBRANCH  25  26
ENDBRANCH  24  25
ENDBRANCH  15   6
ENDBRANCH  10  15
TORSDOF 9
ENDMDL
MODEL 10
REMARK VINA RESULT:      -6.5     13.359     18.070
REMARK  Name = 75536420
REMARK  9 active torsions:
REMARK  status: ('A' for Active; 'I' for Inactive)
REMARK    1  A    between atoms: O_2  and  C_11
REMARK    2  A    between atoms: N_6  and  C_15
REMARK    3  A    between atoms: N_7  and  C_18
REMARK    4  A    between atoms: C_9  and  C_14
REMARK    5  A    between atoms: C_10  and  C_15
REMARK    6  A    between atoms: C_14  and  C_16
REMARK    7  A    between atoms: C_18  and  C_19
REMARK    8  A    between atoms: C_24  and  C_25
REMARK    9  A    between atoms: C_25  and  C_26
REMARK                            x       y       z     vdW  Elec       q    Type
REMARK                         _______ _______ _______ _____ _____    ______ ____
ROOT
ATOM      1  O   UNL     1      10.760   7.430   5.745  0.00  0.00    -0.369 OA
ATOM      9  C   UNL     1       9.525   7.972   6.221  0.00  0.00    +0.125 C 
ATOM     10  C   UNL     1      10.827   5.998   5.718  0.00  0.00    +0.164 C 
ATOM     11  C   UNL     1      10.520   5.399   7.096  0.00  0.00    +0.145 C 
ATOM     12  C   UNL     1       9.238   7.492   7.642  0.00  0.00    +0.034 C 
ATOM     13  C   UNL     1       9.241   5.967   7.706  0.00  0.00    +0.036 C 
ENDROOT
BRANCH  11   2
ATOM      2  O   UNL     1      11.600   5.705   7.983  0.00  0.00    -0.389 OA
ATOM     32  H   UNL     1      12.252   4.987   7.910  0.00  0.00    +0.210 HD
ENDBRANCH  11   2
BRANCH   9  14
ATOM     14  C   UNL     1       9.643   9.490   6.174  0.00  0.00    +0.090 C 
BRANCH  14  16
ATOM      3  O   UNL     1       7.145  11.690   4.792  0.00  0.00    -0.358 OA
ATOM      8  N   UNL     1       8.318  11.450   5.496  0.00  0.00    -0.083 NA
ATOM     16  C   UNL     1       8.458  10.121   5.492  0.00  0.00    +0.086 A 
ATOM     17  C   UNL     1       7.415   9.476   4.806  0.00  0.00    +0.072 A 
ATOM     19  C   UNL     1       6.616  10.506   4.385  0.00  0.00    +0.151 A 
BRANCH  19  18
ATOM     18  C   UNL     1       5.365  10.575   3.622  0.00  0.00    +0.161 C 
BRANCH  18   7
ATOM      4  O   UNL     1       5.165  10.013  -0.533  0.00  0.00    -0.377 OA
ATOM      7  N   UNL     1       5.462   9.965   2.298  0.00  0.00    -0.291 NA
ATOM     20  C   UNL     1       6.386  10.720   1.441  0.00  0.00    +0.113 C 
ATOM     21  C   UNL     1       4.141   9.881   1.662  0.00  0.00    +0.113 C 
ATOM     22  C   UNL     1       6.463  10.071   0.062  0.00  0.00    +0.175 C 
ATOM     23  C   UNL     1       4.269   9.252   0.279  0.00  0.00    +0.175 C 
ENDBRANCH  18   7
ENDBRANCH  19  18
ENDBRANCH  14  16
ENDBRANCH   9  14
BRANCH  10  15
ATOM     15  C   UNL     1       9.945   5.426   4.610  0.00  0.00    +0.138 C 
BRANCH  15   6
ATOM      5  O   UNL     1      11.309   5.653   2.086  0.00  0.00    -0.275 OA
ATOM      6  N   UNL     1      10.622   4.380   3.904  0.00  0.00    -0.312 N 
ATOM     24  C   UNL     1      11.260   4.579   2.680  0.00  0.00    +0.217 C 
ATOM     33  H   UNL     1      10.596   3.449   4.308  0.00  0.00    +0.149 HD
BRANCH  24  25
ATOM     25  C   UNL     1      11.899   3.305   2.160  0.00  0.00    +0.130 C 
BRANCH  25  26
ATOM     26  C   UNL     1      13.037   3.556   1.207  0.00  0.00    -0.039 A 
ATOM     27  C   UNL     1      14.341   3.668   1.691  0.00  0.00    +0.004 A 
ATOM     28  C   UNL     1      12.789   3.677  -0.160  0.00  0.00    +0.004 A 
ATOM     29  C   UNL     1      15.395   3.900   0.808  0.00  0.00    +0.000 A 
ATOM     30  C   UNL     1      13.843   3.910  -1.043  0.00  0.00    +0.000 A 
ATOM     31  C   UNL     1      15.147   4.022  -0.559  0.00  0.00    +0.000 A 
ENDBRANCH  25  26
ENDBRANCH  24  25
ENDBRANCH  15   6
ENDBRANCH  10  15
TORSDOF 9
ENDMDL
