MODEL 1
REMARK VINA RESULT:      -6.3      0.000      0.000
REMARK  Name = 11883294
REMARK  6 active torsions:
REMARK  status: ('A' for Active; 'I' for Inactive)
REMARK    1  A    between atoms: S_2  and  N_9
REMARK    2  A    between atoms: S_2  and  C_18
REMARK    3  A    between atoms: O_5  and  C_14
REMARK    4  A    between atoms: O_5  and  C_17
REMARK    5  A    between atoms: N_9  and  C_13
REMARK    6  A    between atoms: C_17  and  C_19
REMARK                            x       y       z     vdW  Elec       q    Type
REMARK                         _______ _______ _______ _____ _____    ______ ____
ROOT
ATOM      3  O   UNL     1      10.771   5.341   5.780  0.00  0.00    -0.370 OA
ATOM      4  O   UNL     1       8.274   6.970   5.063  0.00  0.00    -0.370 OA
ATOM     11  C   UNL     1       9.595   6.939   4.483  0.00  0.00    +0.170 C 
ATOM     12  C   UNL     1      10.573   6.756   5.626  0.00  0.00    +0.179 C 
ATOM     13  C   UNL     1       9.768   5.687   3.654  0.00  0.00    +0.133 C 
ATOM     14  C   UNL     1       9.823   7.347   6.795  0.00  0.00    +0.176 C 
ATOM     15  C   UNL     1      10.116   4.649   4.706  0.00  0.00    +0.183 C 
ATOM     16  C   UNL     1       8.396   6.949   6.493  0.00  0.00    +0.194 C 
ENDROOT
BRANCH  13   9
ATOM      9  N   UNL     1      10.834   5.840   2.694  0.00  0.00    -0.182 NA
ATOM     25  H   UNL     1      11.491   6.616   2.842  0.00  0.00    +0.148 HD
BRANCH   9   2
ATOM      2  S   UNL     1      10.657   5.210   1.127  0.00  0.00    +0.059 S 
ATOM      6  O   UNL     1      10.210   6.259   0.232  0.00  0.00    -0.153 OA
ATOM      7  O   UNL     1       9.929   3.957   1.205  0.00  0.00    -0.153 OA
BRANCH   2  18
ATOM      1 CL   UNL     1      16.565   3.788  -0.365  0.00  0.00    -0.084 Cl
ATOM     18  C   UNL     1      12.327   4.809   0.706  0.00  0.00    +0.105 A 
ATOM     20  C   UNL     1      12.907   5.408  -0.399  0.00  0.00    +0.030 A 
ATOM     21  C   UNL     1      13.022   3.905   1.489  0.00  0.00    +0.030 A 
ATOM     22  C   UNL     1      14.225   5.090  -0.731  0.00  0.00    +0.022 A 
ATOM     23  C   UNL     1      14.339   3.586   1.156  0.00  0.00    +0.022 A 
ATOM     24  C   UNL     1      14.941   4.180   0.046  0.00  0.00    +0.041 A 
ENDBRANCH   2  18
ENDBRANCH   9   2
ENDBRANCH  13   9
BRANCH  14   5
ATOM      5  O   UNL     1      10.256   6.861   8.045  0.00  0.00    -0.362 OA
BRANCH   5  17
ATOM     17  C   UNL     1       9.254   6.078   8.690  0.00  0.00    +0.255 C 
BRANCH  17  19
ATOM      8  O   UNL     1      10.098   4.727  10.509  0.00  0.00    -0.274 OA
ATOM     10  N   UNL     1      10.202   3.896   8.365  0.00  0.00    -0.327 N 
ATOM     19  C   UNL     1       9.888   4.853   9.306  0.00  0.00    +0.236 C 
ATOM     26  H   UNL     1      10.017   4.028   7.375  0.00  0.00    +0.145 HD
ATOM     27  H   UNL     1      10.633   3.020   8.636  0.00  0.00    +0.145 HD
ENDBRANCH  17  19
ENDBRANCH   5  17
ENDBRANCH  14   5
TORSDOF 6
ENDMDL
MODEL 2
REMARK VINA RESULT:      -6.0      2.089      2.472
REMARK  Name = 11883294
REMARK  6 active torsions:
REMARK  status: ('A' for Active; 'I' for Inactive)
REMARK    1  A    between atoms: S_2  and  N_9
REMARK    2  A    between atoms: S_2  and  C_18
REMARK    3  A    between atoms: O_5  and  C_14
REMARK    4  A    between atoms: O_5  and  C_17
REMARK    5  A    between atoms: N_9  and  C_13
REMARK    6  A    between atoms: C_17  and  C_19
REMARK                            x       y       z     vdW  Elec       q    Type
REMARK                         _______ _______ _______ _____ _____    ______ ____
ROOT
ATOM      3  O   UNL     1      10.555   4.803   5.145  0.00  0.00    -0.370 OA
ATOM      4  O   UNL     1       9.319   7.288   3.839  0.00  0.00    -0.370 OA
ATOM     11  C   UNL     1      10.688   6.947   4.142  0.00  0.00    +0.170 C 
ATOM     12  C   UNL     1      10.675   6.200   5.460  0.00  0.00    +0.179 C 
ATOM     13  C   UNL     1      11.200   5.927   3.152  0.00  0.00    +0.133 C 
ATOM     14  C   UNL     1       9.428   6.733   6.124  0.00  0.00    +0.176 C 
ATOM     15  C   UNL     1      10.664   4.626   3.724  0.00  0.00    +0.183 C 
ATOM     16  C   UNL     1       8.492   6.911   4.950  0.00  0.00    +0.194 C 
ENDROOT
BRANCH  13   9
ATOM      9  N   UNL     1      12.641   5.924   3.102  0.00  0.00    -0.182 NA
ATOM     25  H   UNL     1      13.142   5.924   4.000  0.00  0.00    +0.148 HD
BRANCH   9   2
ATOM      2  S   UNL     1      13.442   6.510   1.724  0.00  0.00    +0.059 S 
ATOM      6  O   UNL     1      14.874   6.468   1.943  0.00  0.00    -0.153 OA
ATOM      7  O   UNL     1      12.803   7.742   1.301  0.00  0.00    -0.153 OA
BRANCH   2  18
ATOM      1 CL   UNL     1      12.015   2.163  -2.544  0.00  0.00    -0.084 Cl
ATOM     18  C   UNL     1      13.038   5.281   0.519  0.00  0.00    +0.105 A 
ATOM     20  C   UNL     1      13.322   3.954   0.786  0.00  0.00    +0.030 A 
ATOM     21  C   UNL     1      12.445   5.670  -0.669  0.00  0.00    +0.030 A 
ATOM     22  C   UNL     1      13.003   2.984  -0.166  0.00  0.00    +0.022 A 
ATOM     23  C   UNL     1      12.128   4.701  -1.622  0.00  0.00    +0.022 A 
ATOM     24  C   UNL     1      12.407   3.359  -1.370  0.00  0.00    +0.041 A 
ENDBRANCH   2  18
ENDBRANCH   9   2
ENDBRANCH  13   9
BRANCH  14   5
ATOM      5  O   UNL     1       8.896   5.866   7.100  0.00  0.00    -0.362 OA
BRANCH   5  17
ATOM     17  C   UNL     1       9.450   6.112   8.391  0.00  0.00    +0.255 C 
BRANCH  17  19
ATOM      8  O   UNL     1       9.865   4.613  10.242  0.00  0.00    -0.274 OA
ATOM     10  N   UNL     1      10.182   3.844   8.096  0.00  0.00    -0.327 N 
ATOM     19  C   UNL     1       9.846   4.801   9.029  0.00  0.00    +0.236 C 
ATOM     26  H   UNL     1      10.158   4.028   7.098  0.00  0.00    +0.145 HD
ATOM     27  H   UNL     1      10.468   2.915   8.382  0.00  0.00    +0.145 HD
ENDBRANCH  17  19
ENDBRANCH   5  17
ENDBRANCH  14   5
TORSDOF 6
ENDMDL
MODEL 3
REMARK VINA RESULT:      -6.0     23.630     26.288
REMARK  Name = 11883294
REMARK  6 active torsions:
REMARK  status: ('A' for Active; 'I' for Inactive)
REMARK    1  A    between atoms: S_2  and  N_9
REMARK    2  A    between atoms: S_2  and  C_18
REMARK    3  A    between atoms: O_5  and  C_14
REMARK    4  A    between atoms: O_5  and  C_17
REMARK    5  A    between atoms: N_9  and  C_13
REMARK    6  A    between atoms: C_17  and  C_19
REMARK                            x       y       z     vdW  Elec       q    Type
REMARK                         _______ _______ _______ _____ _____    ______ ____
ROOT
ATOM      3  O   UNL     1      -6.624 -10.370  16.607  0.00  0.00    -0.370 OA
ATOM      4  O   UNL     1      -4.806 -11.054  18.980  0.00  0.00    -0.370 OA
ATOM     11  C   UNL     1      -4.969 -11.678  17.689  0.00  0.00    +0.170 C 
ATOM     12  C   UNL     1      -6.441 -11.592  17.341  0.00  0.00    +0.179 C 
ATOM     13  C   UNL     1      -4.295 -10.847  16.622  0.00  0.00    +0.133 C 
ATOM     14  C   UNL     1      -7.094 -11.530  18.701  0.00  0.00    +0.176 C 
ATOM     15  C   UNL     1      -5.341  -9.784  16.333  0.00  0.00    +0.183 C 
ATOM     16  C   UNL     1      -6.101 -10.713  19.496  0.00  0.00    +0.194 C 
ENDROOT
BRANCH  13   9
ATOM      9  N   UNL     1      -4.008 -11.634  15.449  0.00  0.00    -0.182 NA
ATOM     25  H   UNL     1      -4.544 -12.502  15.324  0.00  0.00    +0.148 HD
BRANCH   9   2
ATOM      2  S   UNL     1      -2.500 -11.492  14.682  0.00  0.00    +0.059 S 
ATOM      6  O   UNL     1      -1.974 -12.813  14.399  0.00  0.00    -0.153 OA
ATOM      7  O   UNL     1      -1.696 -10.526  15.407  0.00  0.00    -0.153 OA
BRANCH   2  18
ATOM      1 CL   UNL     1      -4.068  -8.836   9.238  0.00  0.00    -0.084 Cl
ATOM     18  C   UNL     1      -2.943 -10.740  13.144  0.00  0.00    +0.105 A 
ATOM     20  C   UNL     1      -4.279 -10.521  12.860  0.00  0.00    +0.030 A 
ATOM     21  C   UNL     1      -1.945 -10.385  12.254  0.00  0.00    +0.030 A 
ATOM     22  C   UNL     1      -4.629  -9.929  11.645  0.00  0.00    +0.022 A 
ATOM     23  C   UNL     1      -2.294  -9.794  11.039  0.00  0.00    +0.022 A 
ATOM     24  C   UNL     1      -3.636  -9.565  10.735  0.00  0.00    +0.041 A 
ENDBRANCH   2  18
ENDBRANCH   9   2
ENDBRANCH  13   9
BRANCH  14   5
ATOM      5  O   UNL     1      -8.374 -10.940  18.684  0.00  0.00    -0.362 OA
BRANCH   5  17
ATOM     17  C   UNL     1      -9.411 -11.908  18.829  0.00  0.00    +0.255 C 
BRANCH  17  19
ATOM      8  O   UNL     1     -10.843 -12.443  20.702  0.00  0.00    -0.274 OA
ATOM     10  N   UNL     1     -10.191 -10.258  20.389  0.00  0.00    -0.327 N 
ATOM     19  C   UNL     1     -10.224 -11.597  20.063  0.00  0.00    +0.236 C 
ATOM     26  H   UNL     1      -9.670  -9.580  19.842  0.00  0.00    +0.145 HD
ATOM     27  H   UNL     1     -10.692  -9.905  21.196  0.00  0.00    +0.145 HD
ENDBRANCH  17  19
ENDBRANCH   5  17
ENDBRANCH  14   5
TORSDOF 6
ENDMDL
MODEL 4
REMARK VINA RESULT:      -5.9      3.645      7.836
REMARK  Name = 11883294
REMARK  6 active torsions:
REMARK  status: ('A' for Active; 'I' for Inactive)
REMARK    1  A    between atoms: S_2  and  N_9
REMARK    2  A    between atoms: S_2  and  C_18
REMARK    3  A    between atoms: O_5  and  C_14
REMARK    4  A    between atoms: O_5  and  C_17
REMARK    5  A    between atoms: N_9  and  C_13
REMARK    6  A    between atoms: C_17  and  C_19
REMARK                            x       y       z     vdW  Elec       q    Type
REMARK                         _______ _______ _______ _____ _____    ______ ____
ROOT
ATOM      3  O   UNL     1      12.783   4.800   2.305  0.00  0.00    -0.370 OA
ATOM      4  O   UNL     1      10.979   5.877   0.072  0.00  0.00    -0.370 OA
ATOM     11  C   UNL     1      10.668   5.296   1.356  0.00  0.00    +0.170 C 
ATOM     12  C   UNL     1      11.684   4.199   1.600  0.00  0.00    +0.179 C 
ATOM     13  C   UNL     1      10.941   6.294   2.457  0.00  0.00    +0.133 C 
ATOM     14  C   UNL     1      12.073   3.797   0.197  0.00  0.00    +0.176 C 
ATOM     15  C   UNL     1      12.439   6.148   2.661  0.00  0.00    +0.183 C 
ATOM     16  C   UNL     1      12.034   5.118  -0.536  0.00  0.00    +0.194 C 
ENDROOT
BRANCH  13   9
ATOM      9  N   UNL     1      10.213   5.962   3.657  0.00  0.00    -0.182 NA
ATOM     25  H   UNL     1       9.832   5.009   3.725  0.00  0.00    +0.148 HD
BRANCH   9   2
ATOM      2  S   UNL     1       9.497   7.194   4.581  0.00  0.00    +0.059 S 
ATOM      6  O   UNL     1       8.127   7.387   4.150  0.00  0.00    -0.153 OA
ATOM      7  O   UNL     1      10.409   8.320   4.644  0.00  0.00    -0.153 OA
BRANCH   2  18
ATOM      1 CL   UNL     1       9.377   4.620  10.283  0.00  0.00    -0.084 Cl
ATOM     18  C   UNL     1       9.464   6.466   6.192  0.00  0.00    +0.105 A 
ATOM     20  C   UNL     1       9.886   5.158   6.351  0.00  0.00    +0.030 A 
ATOM     21  C   UNL     1       9.018   7.220   7.264  0.00  0.00    +0.030 A 
ATOM     22  C   UNL     1       9.858   4.584   7.623  0.00  0.00    +0.022 A 
ATOM     23  C   UNL     1       8.990   6.646   8.535  0.00  0.00    +0.022 A 
ATOM     24  C   UNL     1       9.411   5.328   8.715  0.00  0.00    +0.041 A 
ENDBRANCH   2  18
ENDBRANCH   9   2
ENDBRANCH  13   9
BRANCH  14   5
ATOM      5  O   UNL     1      13.339   3.183   0.119  0.00  0.00    -0.362 OA
BRANCH   5  17
ATOM     17  C   UNL     1      14.278   3.985  -0.596  0.00  0.00    +0.255 C 
BRANCH  17  19
ATOM      8  O   UNL     1      16.690   4.109  -0.508  0.00  0.00    -0.274 OA
ATOM     10  N   UNL     1      15.535   3.553   1.403  0.00  0.00    -0.327 N 
ATOM     19  C   UNL     1      15.629   3.897   0.072  0.00  0.00    +0.236 C 
ATOM     26  H   UNL     1      14.643   3.383   1.858  0.00  0.00    +0.145 HD
ATOM     27  H   UNL     1      16.365   3.458   1.978  0.00  0.00    +0.145 HD
ENDBRANCH  17  19
ENDBRANCH   5  17
ENDBRANCH  14   5
TORSDOF 6
ENDMDL
MODEL 5
REMARK VINA RESULT:      -5.9     22.590     24.904
REMARK  Name = 11883294
REMARK  6 active torsions:
REMARK  status: ('A' for Active; 'I' for Inactive)
REMARK    1  A    between atoms: S_2  and  N_9
REMARK    2  A    between atoms: S_2  and  C_18
REMARK    3  A    between atoms: O_5  and  C_14
REMARK    4  A    between atoms: O_5  and  C_17
REMARK    5  A    between atoms: N_9  and  C_13
REMARK    6  A    between atoms: C_17  and  C_19
REMARK                            x       y       z     vdW  Elec       q    Type
REMARK                         _______ _______ _______ _____ _____    ______ ____
ROOT
ATOM      3  O   UNL     1      -4.283 -10.420  16.389  0.00  0.00    -0.370 OA
ATOM      4  O   UNL     1      -6.444 -11.978  14.871  0.00  0.00    -0.370 OA
ATOM     11  C   UNL     1      -5.633 -10.848  14.488  0.00  0.00    +0.170 C 
ATOM     12  C   UNL     1      -5.477  -9.981  15.720  0.00  0.00    +0.179 C 
ATOM     13  C   UNL     1      -4.224 -11.300  14.182  0.00  0.00    +0.133 C 
ATOM     14  C   UNL     1      -6.718 -10.314  16.513  0.00  0.00    +0.176 C 
ATOM     15  C   UNL     1      -3.604 -11.381  15.566  0.00  0.00    +0.183 C 
ATOM     16  C   UNL     1      -6.899 -11.786  16.219  0.00  0.00    +0.194 C 
ENDROOT
BRANCH  13   9
ATOM      9  N   UNL     1      -3.535 -10.342  13.354  0.00  0.00    -0.182 NA
ATOM     25  H   UNL     1      -3.976  -9.421  13.237  0.00  0.00    +0.148 HD
BRANCH   9   2
ATOM      2  S   UNL     1      -2.442 -10.878  12.169  0.00  0.00    +0.059 S 
ATOM      6  O   UNL     1      -2.247 -12.308  12.304  0.00  0.00    -0.153 OA
ATOM      7  O   UNL     1      -1.300  -9.983  12.148  0.00  0.00    -0.153 OA
BRANCH   2  18
ATOM      1 CL   UNL     1      -5.659  -9.856   6.900  0.00  0.00    -0.084 Cl
ATOM     18  C   UNL     1      -3.350 -10.589  10.680  0.00  0.00    +0.105 A 
ATOM     20  C   UNL     1      -3.506  -9.291  10.225  0.00  0.00    +0.030 A 
ATOM     21  C   UNL     1      -3.888 -11.666   9.997  0.00  0.00    +0.030 A 
ATOM     22  C   UNL     1      -4.223  -9.064   9.050  0.00  0.00    +0.022 A 
ATOM     23  C   UNL     1      -4.606 -11.438   8.823  0.00  0.00    +0.022 A 
ATOM     24  C   UNL     1      -4.773 -10.137   8.349  0.00  0.00    +0.041 A 
ENDBRANCH   2  18
ENDBRANCH   9   2
ENDBRANCH  13   9
BRANCH  14   5
ATOM      5  O   UNL     1      -6.588 -10.062  17.894  0.00  0.00    -0.362 OA
BRANCH   5  17
ATOM     17  C   UNL     1      -6.859 -11.222  18.677  0.00  0.00    +0.255 C 
BRANCH  17  19
ATOM      8  O   UNL     1      -5.940 -11.273  20.913  0.00  0.00    -0.274 OA
ATOM     10  N   UNL     1      -4.557 -11.733  19.132  0.00  0.00    -0.327 N 
ATOM     19  C   UNL     1      -5.766 -11.404  19.705  0.00  0.00    +0.236 C 
ATOM     26  H   UNL     1      -4.441 -11.833  18.128  0.00  0.00    +0.145 HD
ATOM     27  H   UNL     1      -3.733 -11.885  19.703  0.00  0.00    +0.145 HD
ENDBRANCH  17  19
ENDBRANCH   5  17
ENDBRANCH  14   5
TORSDOF 6
ENDMDL
MODEL 6
REMARK VINA RESULT:      -5.7     37.029     38.796
REMARK  Name = 11883294
REMARK  6 active torsions:
REMARK  status: ('A' for Active; 'I' for Inactive)
REMARK    1  A    between atoms: S_2  and  N_9
REMARK    2  A    between atoms: S_2  and  C_18
REMARK    3  A    between atoms: O_5  and  C_14
REMARK    4  A    between atoms: O_5  and  C_17
REMARK    5  A    between atoms: N_9  and  C_13
REMARK    6  A    between atoms: C_17  and  C_19
REMARK                            x       y       z     vdW  Elec       q    Type
REMARK                         _______ _______ _______ _____ _____    ______ ____
ROOT
ATOM      3  O   UNL     1     -15.005   4.207  31.252  0.00  0.00    -0.370 OA
ATOM      4  O   UNL     1     -14.610   3.468  34.202  0.00  0.00    -0.370 OA
ATOM     11  C   UNL     1     -13.840   4.307  33.315  0.00  0.00    +0.170 C 
ATOM     12  C   UNL     1     -13.877   3.652  31.949  0.00  0.00    +0.179 C 
ATOM     13  C   UNL     1     -14.548   5.626  33.104  0.00  0.00    +0.133 C 
ATOM     14  C   UNL     1     -14.091   2.197  32.290  0.00  0.00    +0.176 C 
ATOM     15  C   UNL     1     -15.563   5.278  32.029  0.00  0.00    +0.183 C 
ATOM     16  C   UNL     1     -15.000   2.282  33.495  0.00  0.00    +0.194 C 
ENDROOT
BRANCH  13   9
ATOM      9  N   UNL     1     -13.632   6.644  32.652  0.00  0.00    -0.182 NA
ATOM     25  H   UNL     1     -12.695   6.336  32.361  0.00  0.00    +0.148 HD
BRANCH   9   2
ATOM      2  S   UNL     1     -13.842   8.253  33.150  0.00  0.00    +0.059 S 
ATOM      6  O   UNL     1     -15.183   8.425  33.675  0.00  0.00    -0.153 OA
ATOM      7  O   UNL     1     -13.347   9.134  32.110  0.00  0.00    -0.153 OA
BRANCH   2  18
ATOM      1 CL   UNL     1      -9.833   8.656  37.937  0.00  0.00    -0.084 Cl
ATOM     18  C   UNL     1     -12.709   8.366  34.503  0.00  0.00    +0.105 A 
ATOM     20  C   UNL     1     -12.885   7.544  35.602  0.00  0.00    +0.030 A 
ATOM     21  C   UNL     1     -11.667   9.274  34.436  0.00  0.00    +0.030 A 
ATOM     22  C   UNL     1     -11.991   7.634  36.669  0.00  0.00    +0.022 A 
ATOM     23  C   UNL     1     -10.773   9.365  35.504  0.00  0.00    +0.022 A 
ATOM     24  C   UNL     1     -10.935   8.545  36.620  0.00  0.00    +0.041 A 
ENDBRANCH   2  18
ENDBRANCH   9   2
ENDBRANCH  13   9
BRANCH  14   5
ATOM      5  O   UNL     1     -14.667   1.452  31.242  0.00  0.00    -0.362 OA
BRANCH   5  17
ATOM     17  C   UNL     1     -13.678   0.872  30.393  0.00  0.00    +0.255 C 
BRANCH  17  19
ATOM      8  O   UNL     1     -15.333   0.072  28.822  0.00  0.00    -0.274 OA
ATOM     10  N   UNL     1     -13.660  -1.356  29.498  0.00  0.00    -0.327 N 
ATOM     19  C   UNL     1     -14.326  -0.150  29.489  0.00  0.00    +0.236 C 
ATOM     26  H   UNL     1     -12.829  -1.512  30.061  0.00  0.00    +0.145 HD
ATOM     27  H   UNL     1     -13.983  -2.136  28.937  0.00  0.00    +0.145 HD
ENDBRANCH  17  19
ENDBRANCH   5  17
ENDBRANCH  14   5
TORSDOF 6
ENDMDL
MODEL 7
REMARK VINA RESULT:      -5.6     25.439     28.764
REMARK  Name = 11883294
REMARK  6 active torsions:
REMARK  status: ('A' for Active; 'I' for Inactive)
REMARK    1  A    between atoms: S_2  and  N_9
REMARK    2  A    between atoms: S_2  and  C_18
REMARK    3  A    between atoms: O_5  and  C_14
REMARK    4  A    between atoms: O_5  and  C_17
REMARK    5  A    between atoms: N_9  and  C_13
REMARK    6  A    between atoms: C_17  and  C_19
REMARK                            x       y       z     vdW  Elec       q    Type
REMARK                         _______ _______ _______ _____ _____    ______ ____
ROOT
ATOM      3  O   UNL     1      -6.887 -10.130  16.839  0.00  0.00    -0.370 OA
ATOM      4  O   UNL     1      -6.232 -12.497  18.675  0.00  0.00    -0.370 OA
ATOM     11  C   UNL     1      -6.879 -11.235  18.937  0.00  0.00    +0.170 C 
ATOM     12  C   UNL     1      -6.177 -10.195  18.086  0.00  0.00    +0.179 C 
ATOM     13  C   UNL     1      -8.290 -11.252  18.395  0.00  0.00    +0.133 C 
ATOM     14  C   UNL     1      -4.800 -10.790  17.916  0.00  0.00    +0.176 C 
ATOM     15  C   UNL     1      -8.076 -10.932  16.926  0.00  0.00    +0.183 C 
ATOM     16  C   UNL     1      -5.100 -12.269  17.822  0.00  0.00    +0.194 C 
ENDROOT
BRANCH  13   9
ATOM      9  N   UNL     1      -9.109 -10.254  19.036  0.00  0.00    -0.182 NA
ATOM     25  H   UNL     1      -8.683  -9.720  19.805  0.00  0.00    +0.148 HD
BRANCH   9   2
ATOM      2  S   UNL     1     -10.802 -10.379  18.973  0.00  0.00    +0.059 S 
ATOM      6  O   UNL     1     -11.360 -10.042  20.267  0.00  0.00    -0.153 OA
ATOM      7  O   UNL     1     -11.154 -11.629  18.328  0.00  0.00    -0.153 OA
BRANCH   2  18
ATOM      1 CL   UNL     1     -12.278  -5.794  14.978  0.00  0.00    -0.084 Cl
ATOM     18  C   UNL     1     -11.219  -9.082  17.845  0.00  0.00    +0.105 A 
ATOM     20  C   UNL     1     -12.495  -9.037  17.311  0.00  0.00    +0.030 A 
ATOM     21  C   UNL     1     -10.263  -8.138  17.518  0.00  0.00    +0.030 A 
ATOM     22  C   UNL     1     -12.824  -8.015  16.420  0.00  0.00    +0.022 A 
ATOM     23  C   UNL     1     -10.591  -7.116  16.626  0.00  0.00    +0.022 A 
ATOM     24  C   UNL     1     -11.872  -7.054  16.078  0.00  0.00    +0.041 A 
ENDBRANCH   2  18
ENDBRANCH   9   2
ENDBRANCH  13   9
BRANCH  14   5
ATOM      5  O   UNL     1      -4.119 -10.314  16.778  0.00  0.00    -0.362 OA
BRANCH   5  17
ATOM     17  C   UNL     1      -3.448 -11.362  16.080  0.00  0.00    +0.255 C 
BRANCH  17  19
ATOM      8  O   UNL     1      -2.072 -10.402  14.339  0.00  0.00    -0.274 OA
ATOM     10  N   UNL     1      -1.114 -10.883  16.375  0.00  0.00    -0.327 N 
ATOM     19  C   UNL     1      -2.164 -10.831  15.485  0.00  0.00    +0.236 C 
ATOM     26  H   UNL     1      -1.219 -11.244  17.318  0.00  0.00    +0.145 HD
ATOM     27  H   UNL     1      -0.190 -10.559  16.111  0.00  0.00    +0.145 HD
ENDBRANCH  17  19
ENDBRANCH   5  17
ENDBRANCH  14   5
TORSDOF 6
ENDMDL
MODEL 8
REMARK VINA RESULT:      -5.5     36.471     38.056
REMARK  Name = 11883294
REMARK  6 active torsions:
REMARK  status: ('A' for Active; 'I' for Inactive)
REMARK    1  A    between atoms: S_2  and  N_9
REMARK    2  A    between atoms: S_2  and  C_18
REMARK    3  A    between atoms: O_5  and  C_14
REMARK    4  A    between atoms: O_5  and  C_17
REMARK    5  A    between atoms: N_9  and  C_13
REMARK    6  A    between atoms: C_17  and  C_19
REMARK                            x       y       z     vdW  Elec       q    Type
REMARK                         _______ _______ _______ _____ _____    ______ ____
ROOT
ATOM      3  O   UNL     1     -14.679   4.034  31.078  0.00  0.00    -0.370 OA
ATOM      4  O   UNL     1     -14.628   3.503  34.098  0.00  0.00    -0.370 OA
ATOM     11  C   UNL     1     -13.891   4.434  33.278  0.00  0.00    +0.170 C 
ATOM     12  C   UNL     1     -13.594   3.729  31.970  0.00  0.00    +0.179 C 
ATOM     13  C   UNL     1     -14.780   5.587  32.874  0.00  0.00    +0.133 C 
ATOM     14  C   UNL     1     -13.595   2.274  32.376  0.00  0.00    +0.176 C 
ATOM     15  C   UNL     1     -15.535   5.013  31.688  0.00  0.00    +0.183 C 
ATOM     16  C   UNL     1     -14.684   2.237  33.424  0.00  0.00    +0.194 C 
ENDROOT
BRANCH  13   9
ATOM      9  N   UNL     1     -14.001   6.739  32.494  0.00  0.00    -0.182 NA
ATOM     25  H   UNL     1     -13.294   6.606  31.760  0.00  0.00    +0.148 HD
BRANCH   9   2
ATOM      2  S   UNL     1     -13.813   8.030  33.581  0.00  0.00    +0.059 S 
ATOM      6  O   UNL     1     -12.999   7.603  34.702  0.00  0.00    -0.153 OA
ATOM      7  O   UNL     1     -15.108   8.642  33.810  0.00  0.00    -0.153 OA
BRANCH   2  18
ATOM      1 CL   UNL     1     -10.456  12.081  30.193  0.00  0.00    -0.084 Cl
ATOM     18  C   UNL     1     -12.865   9.176  32.624  0.00  0.00    +0.105 A 
ATOM     20  C   UNL     1     -13.277   9.486  31.339  0.00  0.00    +0.030 A 
ATOM     21  C   UNL     1     -11.730   9.741  33.177  0.00  0.00    +0.030 A 
ATOM     22  C   UNL     1     -12.528  10.389  30.584  0.00  0.00    +0.022 A 
ATOM     23  C   UNL     1     -10.980  10.643  32.422  0.00  0.00    +0.022 A 
ATOM     24  C   UNL     1     -11.380  10.968  31.126  0.00  0.00    +0.041 A 
ENDBRANCH   2  18
ENDBRANCH   9   2
ENDBRANCH  13   9
BRANCH  14   5
ATOM      5  O   UNL     1     -13.857   1.393  31.308  0.00  0.00    -0.362 OA
BRANCH   5  17
ATOM     17  C   UNL     1     -14.916   0.487  31.609  0.00  0.00    +0.255 C 
BRANCH  17  19
ATOM      8  O   UNL     1     -14.539  -0.389  29.388  0.00  0.00    -0.274 OA
ATOM     10  N   UNL     1     -15.789  -1.625  30.873  0.00  0.00    -0.327 N 
ATOM     19  C   UNL     1     -15.044  -0.528  30.498  0.00  0.00    +0.236 C 
ATOM     26  H   UNL     1     -16.195  -1.714  31.800  0.00  0.00    +0.145 HD
ATOM     27  H   UNL     1     -15.957  -2.388  30.227  0.00  0.00    +0.145 HD
ENDBRANCH  17  19
ENDBRANCH   5  17
ENDBRANCH  14   5
TORSDOF 6
ENDMDL
MODEL 9
REMARK VINA RESULT:      -5.4      5.566      7.729
REMARK  Name = 11883294
REMARK  6 active torsions:
REMARK  status: ('A' for Active; 'I' for Inactive)
REMARK    1  A    between atoms: S_2  and  N_9
REMARK    2  A    between atoms: S_2  and  C_18
REMARK    3  A    between atoms: O_5  and  C_14
REMARK    4  A    between atoms: O_5  and  C_17
REMARK    5  A    between atoms: N_9  and  C_13
REMARK    6  A    between atoms: C_17  and  C_19
REMARK                            x       y       z     vdW  Elec       q    Type
REMARK                         _______ _______ _______ _____ _____    ______ ____
ROOT
ATOM      3  O   UNL     1      14.939   7.149   6.517  0.00  0.00    -0.370 OA
ATOM      4  O   UNL     1      13.557   9.768   5.723  0.00  0.00    -0.370 OA
ATOM     11  C   UNL     1      13.560   8.464   5.106  0.00  0.00    +0.170 C 
ATOM     12  C   UNL     1      14.953   7.895   5.289  0.00  0.00    +0.179 C 
ATOM     13  C   UNL     1      12.677   7.518   5.886  0.00  0.00    +0.133 C 
ATOM     14  C   UNL     1      15.802   9.139   5.399  0.00  0.00    +0.176 C 
ATOM     15  C   UNL     1      13.594   7.078   7.015  0.00  0.00    +0.183 C 
ATOM     16  C   UNL     1      14.890  10.081   6.152  0.00  0.00    +0.194 C 
ENDROOT
BRANCH  13   9
ATOM      9  N   UNL     1      12.267   6.398   5.076  0.00  0.00    -0.182 NA
ATOM     25  H   UNL     1      12.945   6.040   4.392  0.00  0.00    +0.148 HD
BRANCH   9   2
ATOM      2  S   UNL     1      10.615   6.102   4.815  0.00  0.00    +0.059 S 
ATOM      6  O   UNL     1      10.459   4.918   3.994  0.00  0.00    -0.153 OA
ATOM      7  O   UNL     1       9.972   7.346   4.433  0.00  0.00    -0.153 OA
BRANCH   2  18
ATOM      1 CL   UNL     1       8.623   4.725  10.585  0.00  0.00    -0.084 Cl
ATOM     18  C   UNL     1      10.053   5.713   6.446  0.00  0.00    +0.105 A 
ATOM     20  C   UNL     1      10.173   4.415   6.910  0.00  0.00    +0.030 A 
ATOM     21  C   UNL     1       9.504   6.714   7.228  0.00  0.00    +0.030 A 
ATOM     22  C   UNL     1       9.729   4.108   8.197  0.00  0.00    +0.022 A 
ATOM     23  C   UNL     1       9.059   6.407   8.514  0.00  0.00    +0.022 A 
ATOM     24  C   UNL     1       9.172   5.105   8.999  0.00  0.00    +0.041 A 
ENDBRANCH   2  18
ENDBRANCH   9   2
ENDBRANCH  13   9
BRANCH  14   5
ATOM      5  O   UNL     1      17.021   8.929   6.073  0.00  0.00    -0.362 OA
BRANCH   5  17
ATOM     17  C   UNL     1      18.096   8.685   5.169  0.00  0.00    +0.255 C 
BRANCH  17  19
ATOM      8  O   UNL     1      19.453   8.410   7.151  0.00  0.00    -0.274 OA
ATOM     10  N   UNL     1      20.255   7.634   5.138  0.00  0.00    -0.327 N 
ATOM     19  C   UNL     1      19.317   8.243   5.942  0.00  0.00    +0.236 C 
ATOM     26  H   UNL     1      20.116   7.510   4.140  0.00  0.00    +0.145 HD
ATOM     27  H   UNL     1      21.126   7.286   5.523  0.00  0.00    +0.145 HD
ENDBRANCH  17  19
ENDBRANCH   5  17
ENDBRANCH  14   5
TORSDOF 6
ENDMDL
MODEL 10
REMARK VINA RESULT:      -5.3      2.055      2.631
REMARK  Name = 11883294
REMARK  6 active torsions:
REMARK  status: ('A' for Active; 'I' for Inactive)
REMARK    1  A    between atoms: S_2  and  N_9
REMARK    2  A    between atoms: S_2  and  C_18
REMARK    3  A    between atoms: O_5  and  C_14
REMARK    4  A    between atoms: O_5  and  C_17
REMARK    5  A    between atoms: N_9  and  C_13
REMARK    6  A    between atoms: C_17  and  C_19
REMARK                            x       y       z     vdW  Elec       q    Type
REMARK                         _______ _______ _______ _____ _____    ______ ____
ROOT
ATOM      3  O   UNL     1      10.290   7.650   4.746  0.00  0.00    -0.370 OA
ATOM      4  O   UNL     1       9.984   4.869   6.000  0.00  0.00    -0.370 OA
ATOM     11  C   UNL     1       9.855   5.322   4.637  0.00  0.00    +0.170 C 
ATOM     12  C   UNL     1       9.218   6.696   4.688  0.00  0.00    +0.179 C 
ATOM     13  C   UNL     1      11.221   5.580   4.043  0.00  0.00    +0.133 C 
ATOM     14  C   UNL     1       8.442   6.647   5.983  0.00  0.00    +0.176 C 
ATOM     15  C   UNL     1      11.542   6.970   4.563  0.00  0.00    +0.183 C 
ATOM     16  C   UNL     1       9.348   5.820   6.867  0.00  0.00    +0.194 C 
ENDROOT
BRANCH  13   9
ATOM      9  N   UNL     1      11.178   5.554   2.602  0.00  0.00    -0.182 NA
ATOM     25  H   UNL     1      10.791   6.381   2.130  0.00  0.00    +0.148 HD
BRANCH   9   2
ATOM      2  S   UNL     1      11.167   4.067   1.782  0.00  0.00    +0.059 S 
ATOM      6  O   UNL     1      10.099   4.065   0.801  0.00  0.00    -0.153 OA
ATOM      7  O   UNL     1      11.267   2.996   2.755  0.00  0.00    -0.153 OA
BRANCH   2  18
ATOM      1 CL   UNL     1      16.615   4.248  -1.291  0.00  0.00    -0.084 Cl
ATOM     18  C   UNL     1      12.706   4.119   0.913  0.00  0.00    +0.105 A 
ATOM     20  C   UNL     1      12.721   3.880  -0.450  0.00  0.00    +0.030 A 
ATOM     21  C   UNL     1      13.867   4.399   1.613  0.00  0.00    +0.030 A 
ATOM     22  C   UNL     1      13.936   3.920  -1.135  0.00  0.00    +0.022 A 
ATOM     23  C   UNL     1      15.082   4.438   0.928  0.00  0.00    +0.022 A 
ATOM     24  C   UNL     1      15.116   4.199  -0.445  0.00  0.00    +0.041 A 
ENDBRANCH   2  18
ENDBRANCH   9   2
ENDBRANCH  13   9
BRANCH  14   5
ATOM      5  O   UNL     1       8.183   7.919   6.532  0.00  0.00    -0.362 OA
BRANCH   5  17
ATOM     17  C   UNL     1       8.884   8.125   7.756  0.00  0.00    +0.255 C 
BRANCH  17  19
ATOM      8  O   UNL     1      10.143   9.964   8.693  0.00  0.00    -0.274 OA
ATOM     10  N   UNL     1       9.446  10.096   6.504  0.00  0.00    -0.327 N 
ATOM     19  C   UNL     1       9.559   9.476   7.730  0.00  0.00    +0.236 C 
ATOM     26  H   UNL     1       8.956   9.668   5.724  0.00  0.00    +0.145 HD
ATOM     27  H   UNL     1       9.853  11.010   6.342  0.00  0.00    +0.145 HD
ENDBRANCH  17  19
ENDBRANCH   5  17
ENDBRANCH  14   5
TORSDOF 6
ENDMDL
