MODEL 1
REMARK VINA RESULT:      -7.0      0.000      0.000
REMARK  Name = 28962508
REMARK  10 active torsions:
REMARK  status: ('A' for Active; 'I' for Inactive)
REMARK    1  A    between atoms: O_2  and  C_10
REMARK    2  A    between atoms: N_5  and  C_14
REMARK    3  A    between atoms: N_6  and  C_24
REMARK    4  A    between atoms: C_7  and  C_17
REMARK    5  A    between atoms: C_9  and  C_19
REMARK    6  A    between atoms: C_13  and  C_18
REMARK    7  A    between atoms: C_18  and  C_20
REMARK    8  A    between atoms: C_18  and  C_21
REMARK    9  A    between atoms: C_22  and  C_23
REMARK   10  A    between atoms: C_24  and  C_25
REMARK                            x       y       z     vdW  Elec       q    Type
REMARK                         _______ _______ _______ _____ _____    ______ ____
ROOT
ATOM      7  C   UNL     1      11.749   8.210  21.260  0.00  0.00    -0.027 C 
ATOM      8  C   UNL     1      12.927   9.206  21.523  0.00  0.00    +0.028 C 
ATOM      9  C   UNL     1      12.382  10.646  21.834  0.00  0.00    +0.012 C 
ATOM     10  C   UNL     1      13.996   9.125  20.395  0.00  0.00    +0.122 C 
ATOM     11  C   UNL     1      12.313   6.782  21.069  0.00  0.00    +0.007 C 
ATOM     12  C   UNL     1      10.821   8.188  22.497  0.00  0.00    +0.009 C 
ATOM     13  C   UNL     1      14.481   7.679  20.138  0.00  0.00    +0.029 C 
ATOM     14  C   UNL     1      11.393  10.600  23.032  0.00  0.00    +0.076 C 
ATOM     15  C   UNL     1      13.330   6.691  19.940  0.00  0.00    +0.007 C 
ATOM     16  C   UNL     1      10.283   9.564  22.864  0.00  0.00    +0.023 C 
ATOM     17  C   UNL     1      10.919   8.588  20.007  0.00  0.00    +0.011 C 
ATOM     19  C   UNL     1      13.489  11.672  22.131  0.00  0.00    +0.010 C 
ENDROOT
BRANCH  14   5
ATOM      4  O   UNL     1      11.207  12.021  25.557  0.00  0.00    -0.276 OA
ATOM      5  N   UNL     1      10.781  11.891  23.273  0.00  0.00    -0.312 N 
ATOM     22  C   UNL     1      10.744  12.488  24.520  0.00  0.00    +0.210 C 
ATOM     23  C   UNL     1      10.074  13.835  24.486  0.00  0.00    +0.109 C 
ATOM     29  H   UNL     1      10.312  12.347  22.497  0.00  0.00    +0.149 HD
ENDBRANCH  14   5
BRANCH  10   2
ATOM      2  O   UNL     1      15.147   9.881  20.774  0.00  0.00    -0.391 OA
ATOM     30  H   UNL     1      15.802   9.266  21.146  0.00  0.00    +0.210 HD
ENDBRANCH  10   2
BRANCH  13  18
ATOM     18  C   UNL     1      15.433   7.604  18.939  0.00  0.00    +0.077 C 
ATOM     20  C   UNL     1      14.660   7.238  17.676  0.00  0.00    +0.017 C 
BRANCH  18  21
ATOM      3  O   UNL     1      16.612   5.506  18.660  0.00  0.00    -0.276 OA
ATOM      6  N   UNL     1      17.449   7.058  20.169  0.00  0.00    -0.310 N 
ATOM     21  C   UNL     1      16.546   6.598  19.221  0.00  0.00    +0.216 C 
ATOM     31  H   UNL     1      17.302   7.965  20.601  0.00  0.00    +0.149 HD
BRANCH   6  24
ATOM     24  C   UNL     1      18.587   6.282  20.602  0.00  0.00    +0.146 C 
BRANCH  24  25
ATOM      1  S   UNL     1      20.737   6.199  22.362  0.00  0.00    -0.100 S 
ATOM     25  C   UNL     1      19.385   6.985  21.666  0.00  0.00    +0.007 A 
ATOM     26  C   UNL     1      19.183   8.240  22.199  0.00  0.00    +0.013 A 
ATOM     27  C   UNL     1      20.152   8.559  23.193  0.00  0.00    +0.008 A 
ATOM     28  C   UNL     1      21.057   7.538  23.382  0.00  0.00    +0.045 A 
ENDBRANCH  24  25
ENDBRANCH   6  24
ENDBRANCH  18  21
ENDBRANCH  13  18
TORSDOF 6
ENDMDL
MODEL 2
REMARK VINA RESULT:      -6.5     27.351     30.078
REMARK  Name = 28962508
REMARK  10 active torsions:
REMARK  status: ('A' for Active; 'I' for Inactive)
REMARK    1  A    between atoms: O_2  and  C_10
REMARK    2  A    between atoms: N_5  and  C_14
REMARK    3  A    between atoms: N_6  and  C_24
REMARK    4  A    between atoms: C_7  and  C_17
REMARK    5  A    between atoms: C_9  and  C_19
REMARK    6  A    between atoms: C_13  and  C_18
REMARK    7  A    between atoms: C_18  and  C_20
REMARK    8  A    between atoms: C_18  and  C_21
REMARK    9  A    between atoms: C_22  and  C_23
REMARK   10  A    between atoms: C_24  and  C_25
REMARK                            x       y       z     vdW  Elec       q    Type
REMARK                         _______ _______ _______ _____ _____    ______ ____
ROOT
ATOM      7  C   UNL     1      -2.937 -10.624  12.341  0.00  0.00    -0.027 C 
ATOM      8  C   UNL     1      -4.396 -10.390  12.853  0.00  0.00    +0.028 C 
ATOM      9  C   UNL     1      -4.704 -11.297  14.099  0.00  0.00    +0.012 C 
ATOM     10  C   UNL     1      -5.424 -10.485  11.688  0.00  0.00    +0.122 C 
ATOM     11  C   UNL     1      -2.630  -9.638  11.188  0.00  0.00    +0.007 C 
ATOM     12  C   UNL     1      -1.945 -10.327  13.491  0.00  0.00    +0.009 C 
ATOM     13  C   UNL     1      -5.055  -9.574  10.494  0.00  0.00    +0.029 C 
ATOM     14  C   UNL     1      -3.656 -11.043  15.220  0.00  0.00    +0.076 C 
ATOM     15  C   UNL     1      -3.610  -9.756  10.030  0.00  0.00    +0.007 C 
ATOM     16  C   UNL     1      -2.211 -11.158  14.738  0.00  0.00    +0.023 C 
ATOM     17  C   UNL     1      -2.708 -12.070  11.832  0.00  0.00    +0.011 C 
ATOM     19  C   UNL     1      -6.117 -11.096  14.672  0.00  0.00    +0.010 C 
ENDROOT
BRANCH  14   5
ATOM      4  O   UNL     1      -4.772 -10.417  17.826  0.00  0.00    -0.276 OA
ATOM      5  N   UNL     1      -3.839 -11.945  16.338  0.00  0.00    -0.312 N 
ATOM     22  C   UNL     1      -4.383 -11.548  17.546  0.00  0.00    +0.210 C 
ATOM     23  C   UNL     1      -4.483 -12.687  18.525  0.00  0.00    +0.109 C 
ATOM     29  H   UNL     1      -3.498 -12.896  16.242  0.00  0.00    +0.149 HD
ENDBRANCH  14   5
BRANCH  10   2
ATOM      2  O   UNL     1      -6.707 -10.057  12.148  0.00  0.00    -0.391 OA
ATOM     30  H   UNL     1      -6.597  -9.672  13.034  0.00  0.00    +0.210 HD
ENDBRANCH  10   2
BRANCH  13  18
ATOM     18  C   UNL     1      -6.005  -9.779   9.308  0.00  0.00    +0.077 C 
ATOM     20  C   UNL     1      -5.216  -9.814   8.003  0.00  0.00    +0.017 C 
BRANCH  18  21
ATOM      3  O   UNL     1      -8.028  -8.673  10.051  0.00  0.00    -0.276 OA
ATOM      6  N   UNL     1      -6.802  -7.707   8.334  0.00  0.00    -0.310 N 
ATOM     21  C   UNL     1      -7.061  -8.677   9.291  0.00  0.00    +0.216 C 
ATOM     31  H   UNL     1      -5.991  -7.806   7.730  0.00  0.00    +0.149 HD
BRANCH   6  24
ATOM     24  C   UNL     1      -7.661  -6.565   8.127  0.00  0.00    +0.146 C 
BRANCH  24  25
ATOM      1  S   UNL     1     -10.346  -6.459   7.415  0.00  0.00    -0.100 S 
ATOM     25  C   UNL     1      -8.707  -6.821   7.077  0.00  0.00    +0.007 A 
ATOM     26  C   UNL     1      -8.541  -7.334   5.809  0.00  0.00    +0.013 A 
ATOM     27  C   UNL     1      -9.776  -7.431   5.107  0.00  0.00    +0.008 A 
ATOM     28  C   UNL     1     -10.839  -6.989   5.863  0.00  0.00    +0.045 A 
ENDBRANCH  24  25
ENDBRANCH   6  24
ENDBRANCH  18  21
ENDBRANCH  13  18
TORSDOF 6
ENDMDL
MODEL 3
REMARK VINA RESULT:      -6.5     26.614     30.327
REMARK  Name = 28962508
REMARK  10 active torsions:
REMARK  status: ('A' for Active; 'I' for Inactive)
REMARK    1  A    between atoms: O_2  and  C_10
REMARK    2  A    between atoms: N_5  and  C_14
REMARK    3  A    between atoms: N_6  and  C_24
REMARK    4  A    between atoms: C_7  and  C_17
REMARK    5  A    between atoms: C_9  and  C_19
REMARK    6  A    between atoms: C_13  and  C_18
REMARK    7  A    between atoms: C_18  and  C_20
REMARK    8  A    between atoms: C_18  and  C_21
REMARK    9  A    between atoms: C_22  and  C_23
REMARK   10  A    between atoms: C_24  and  C_25
REMARK                            x       y       z     vdW  Elec       q    Type
REMARK                         _______ _______ _______ _____ _____    ______ ____
ROOT
ATOM      7  C   UNL     1     -15.997   7.058  22.505  0.00  0.00    -0.027 C 
ATOM      8  C   UNL     1     -14.606   6.361  22.668  0.00  0.00    +0.028 C 
ATOM      9  C   UNL     1     -13.697   6.627  21.415  0.00  0.00    +0.012 C 
ATOM     10  C   UNL     1     -14.769   4.866  23.069  0.00  0.00    +0.122 C 
ATOM     11  C   UNL     1     -16.823   6.872  23.800  0.00  0.00    +0.007 C 
ATOM     12  C   UNL     1     -15.779   8.576  22.301  0.00  0.00    +0.009 C 
ATOM     13  C   UNL     1     -15.682   4.678  24.304  0.00  0.00    +0.029 C 
ATOM     14  C   UNL     1     -13.546   8.156  21.175  0.00  0.00    +0.076 C 
ATOM     15  C   UNL     1     -17.018   5.409  24.174  0.00  0.00    +0.007 C 
ATOM     16  C   UNL     1     -14.880   8.896  21.114  0.00  0.00    +0.023 C 
ATOM     17  C   UNL     1     -16.809   6.495  21.311  0.00  0.00    +0.011 C 
ATOM     19  C   UNL     1     -12.300   5.991  21.522  0.00  0.00    +0.010 C 
ENDROOT
BRANCH  14   5
ATOM      4  O   UNL     1     -11.629  10.291  20.730  0.00  0.00    -0.276 OA
ATOM      5  N   UNL     1     -12.809   8.438  19.961  0.00  0.00    -0.312 N 
ATOM     22  C   UNL     1     -11.913   9.485  19.847  0.00  0.00    +0.210 C 
ATOM     23  C   UNL     1     -11.268   9.536  18.488  0.00  0.00    +0.109 C 
ATOM     29  H   UNL     1     -13.008   7.871  19.142  0.00  0.00    +0.149 HD
ENDBRANCH  14   5
BRANCH  10   2
ATOM      2  O   UNL     1     -13.495   4.324  23.417  0.00  0.00    -0.391 OA
ATOM     30  H   UNL     1     -13.189   4.767  24.227  0.00  0.00    +0.210 HD
ENDBRANCH  10   2
BRANCH  13  18
ATOM     18  C   UNL     1     -15.935   3.196  24.603  0.00  0.00    +0.077 C 
ATOM     20  C   UNL     1     -16.850   2.594  23.542  0.00  0.00    +0.017 C 
BRANCH  18  21
ATOM      3  O   UNL     1     -17.636   2.546  26.201  0.00  0.00    -0.276 OA
ATOM      6  N   UNL     1     -15.684   3.520  26.992  0.00  0.00    -0.310 N 
ATOM     21  C   UNL     1     -16.528   3.041  26.001  0.00  0.00    +0.216 C 
ATOM     31  H   UNL     1     -14.795   3.938  26.732  0.00  0.00    +0.149 HD
BRANCH   6  24
ATOM     24  C   UNL     1     -16.027   3.484  28.394  0.00  0.00    +0.146 C 
BRANCH  24  25
ATOM      1  S   UNL     1     -14.084   2.638  30.192  0.00  0.00    -0.100 S 
ATOM     25  C   UNL     1     -15.376   2.333  29.111  0.00  0.00    +0.007 A 
ATOM     26  C   UNL     1     -15.675   0.991  29.026  0.00  0.00    +0.013 A 
ATOM     27  C   UNL     1     -14.832   0.203  29.861  0.00  0.00    +0.008 A 
ATOM     28  C   UNL     1     -13.921   0.971  30.551  0.00  0.00    +0.045 A 
ENDBRANCH  24  25
ENDBRANCH   6  24
ENDBRANCH  18  21
ENDBRANCH  13  18
TORSDOF 6
ENDMDL
MODEL 4
REMARK VINA RESULT:      -6.5     27.435     29.046
REMARK  Name = 28962508
REMARK  10 active torsions:
REMARK  status: ('A' for Active; 'I' for Inactive)
REMARK    1  A    between atoms: O_2  and  C_10
REMARK    2  A    between atoms: N_5  and  C_14
REMARK    3  A    between atoms: N_6  and  C_24
REMARK    4  A    between atoms: C_7  and  C_17
REMARK    5  A    between atoms: C_9  and  C_19
REMARK    6  A    between atoms: C_13  and  C_18
REMARK    7  A    between atoms: C_18  and  C_20
REMARK    8  A    between atoms: C_18  and  C_21
REMARK    9  A    between atoms: C_22  and  C_23
REMARK   10  A    between atoms: C_24  and  C_25
REMARK                            x       y       z     vdW  Elec       q    Type
REMARK                         _______ _______ _______ _____ _____    ______ ____
ROOT
ATOM      7  C   UNL     1      -4.764 -11.043  16.889  0.00  0.00    -0.027 C 
ATOM      8  C   UNL     1      -5.546 -10.441  15.675  0.00  0.00    +0.028 C 
ATOM      9  C   UNL     1      -7.098 -10.566  15.892  0.00  0.00    +0.012 C 
ATOM     10  C   UNL     1      -5.013 -11.003  14.325  0.00  0.00    +0.122 C 
ATOM     11  C   UNL     1      -3.248 -10.803  16.696  0.00  0.00    +0.007 C 
ATOM     12  C   UNL     1      -5.197 -10.311  18.181  0.00  0.00    +0.009 C 
ATOM     13  C   UNL     1      -3.480 -10.853  14.184  0.00  0.00    +0.029 C 
ATOM     14  C   UNL     1      -7.510  -9.892  17.231  0.00  0.00    +0.076 C 
ATOM     15  C   UNL     1      -2.715 -11.387  15.395  0.00  0.00    +0.007 C 
ATOM     16  C   UNL     1      -6.697 -10.375  18.430  0.00  0.00    +0.023 C 
ATOM     17  C   UNL     1      -5.009 -12.564  17.059  0.00  0.00    +0.011 C 
ATOM     19  C   UNL     1      -7.930  -9.966  14.746  0.00  0.00    +0.010 C 
ENDROOT
BRANCH  14   5
ATOM      4  O   UNL     1      -9.564  -7.854  17.474  0.00  0.00    -0.276 OA
ATOM      5  N   UNL     1      -8.915 -10.089  17.520  0.00  0.00    -0.312 N 
ATOM     22  C   UNL     1      -9.819  -9.047  17.616  0.00  0.00    +0.210 C 
ATOM     23  C   UNL     1     -11.216  -9.532  17.899  0.00  0.00    +0.109 C 
ATOM     29  H   UNL     1      -9.232 -11.034  17.716  0.00  0.00    +0.149 HD
ENDBRANCH  14   5
BRANCH  10   2
ATOM      2  O   UNL     1      -5.596 -10.277  13.243  0.00  0.00    -0.391 OA
ATOM     30  H   UNL     1      -4.965 -10.279  12.503  0.00  0.00    +0.210 HD
ENDBRANCH  10   2
BRANCH  13  18
ATOM     18  C   UNL     1      -2.959 -11.529  12.910  0.00  0.00    +0.077 C 
ATOM     20  C   UNL     1      -1.757 -12.410  13.236  0.00  0.00    +0.017 C 
BRANCH  18  21
ATOM      3  O   UNL     1      -1.502  -9.934  11.814  0.00  0.00    -0.276 OA
ATOM      6  N   UNL     1      -3.663 -10.196  11.012  0.00  0.00    -0.310 N 
ATOM     21  C   UNL     1      -2.607 -10.471  11.868  0.00  0.00    +0.216 C 
ATOM     31  H   UNL     1      -4.551 -10.670  11.146  0.00  0.00    +0.149 HD
BRANCH   6  24
ATOM     24  C   UNL     1      -3.570  -9.228   9.944  0.00  0.00    +0.146 C 
BRANCH  24  25
ATOM      1  S   UNL     1      -5.187 -10.016   7.824  0.00  0.00    -0.100 S 
ATOM     25  C   UNL     1      -4.873  -9.062   9.211  0.00  0.00    +0.007 A 
ATOM     26  C   UNL     1      -5.916  -8.209   9.500  0.00  0.00    +0.013 A 
ATOM     27  C   UNL     1      -6.987  -8.342   8.569  0.00  0.00    +0.008 A 
ATOM     28  C   UNL     1      -6.722  -9.289   7.606  0.00  0.00    +0.045 A 
ENDBRANCH  24  25
ENDBRANCH   6  24
ENDBRANCH  18  21
ENDBRANCH  13  18
TORSDOF 6
ENDMDL
MODEL 5
REMARK VINA RESULT:      -6.4     15.286     18.086
REMARK  Name = 28962508
REMARK  10 active torsions:
REMARK  status: ('A' for Active; 'I' for Inactive)
REMARK    1  A    between atoms: O_2  and  C_10
REMARK    2  A    between atoms: N_5  and  C_14
REMARK    3  A    between atoms: N_6  and  C_24
REMARK    4  A    between atoms: C_7  and  C_17
REMARK    5  A    between atoms: C_9  and  C_19
REMARK    6  A    between atoms: C_13  and  C_18
REMARK    7  A    between atoms: C_18  and  C_20
REMARK    8  A    between atoms: C_18  and  C_21
REMARK    9  A    between atoms: C_22  and  C_23
REMARK   10  A    between atoms: C_24  and  C_25
REMARK                            x       y       z     vdW  Elec       q    Type
REMARK                         _______ _______ _______ _____ _____    ______ ____
ROOT
ATOM      7  C   UNL     1       9.432   6.332   6.345  0.00  0.00    -0.027 C 
ATOM      8  C   UNL     1      10.447   7.384   5.788  0.00  0.00    +0.028 C 
ATOM      9  C   UNL     1      10.007   8.843   6.170  0.00  0.00    +0.012 C 
ATOM     10  C   UNL     1      10.732   7.147   4.276  0.00  0.00    +0.122 C 
ATOM     11  C   UNL     1       9.952   4.906   6.050  0.00  0.00    +0.007 C 
ATOM     12  C   UNL     1       9.334   6.490   7.881  0.00  0.00    +0.009 C 
ATOM     13  C   UNL     1      11.152   5.689   3.973  0.00  0.00    +0.029 C 
ATOM     14  C   UNL     1       9.840   8.969   7.711  0.00  0.00    +0.076 C 
ATOM     15  C   UNL     1      10.194   4.657   4.568  0.00  0.00    +0.007 C 
ATOM     16  C   UNL     1       8.937   7.894   8.314  0.00  0.00    +0.023 C 
ATOM     17  C   UNL     1       8.018   6.484   5.727  0.00  0.00    +0.011 C 
ATOM     19  C   UNL     1      10.979   9.928   5.677  0.00  0.00    +0.010 C 
ENDROOT
BRANCH  14   5
ATOM      4  O   UNL     1      11.052  10.891   9.517  0.00  0.00    -0.276 OA
ATOM      5  N   UNL     1       9.323  10.267   8.090  0.00  0.00    -0.312 N 
ATOM     22  C   UNL     1       9.979  11.115   8.963  0.00  0.00    +0.210 C 
ATOM     23  C   UNL     1       9.236  12.409   9.165  0.00  0.00    +0.109 C 
ATOM     29  H   UNL     1       8.409  10.536   7.739  0.00  0.00    +0.149 HD
ENDBRANCH  14   5
BRANCH  10   2
ATOM      2  O   UNL     1      11.814   7.979   3.859  0.00  0.00    -0.391 OA
ATOM     30  H   UNL     1      11.975   7.815   2.914  0.00  0.00    +0.210 HD
ENDBRANCH  10   2
BRANCH  13  18
ATOM     18  C   UNL     1      11.301   5.443   2.467  0.00  0.00    +0.077 C 
ATOM     20  C   UNL     1      10.505   4.209   2.055  0.00  0.00    +0.017 C 
BRANCH  18  21
ATOM      3  O   UNL     1      13.558   6.249   2.116  0.00  0.00    -0.276 OA
ATOM      6  N   UNL     1      13.118   3.996   1.776  0.00  0.00    -0.310 N 
ATOM     21  C   UNL     1      12.777   5.299   2.107  0.00  0.00    +0.216 C 
ATOM     31  H   UNL     1      12.401   3.277   1.770  0.00  0.00    +0.149 HD
BRANCH   6  24
ATOM     24  C   UNL     1      14.459   3.613   1.398  0.00  0.00    +0.146 C 
BRANCH  24  25
ATOM      1  S   UNL     1      16.354   4.461  -0.450  0.00  0.00    -0.100 S 
ATOM     25  C   UNL     1      14.770   3.964  -0.031  0.00  0.00    +0.007 A 
ATOM     26  C   UNL     1      13.928   3.947  -1.121  0.00  0.00    +0.013 A 
ATOM     27  C   UNL     1      14.592   4.348  -2.315  0.00  0.00    +0.008 A 
ATOM     28  C   UNL     1      15.916   4.656  -2.094  0.00  0.00    +0.045 A 
ENDBRANCH  24  25
ENDBRANCH   6  24
ENDBRANCH  18  21
ENDBRANCH  13  18
TORSDOF 6
ENDMDL
MODEL 6
REMARK VINA RESULT:      -6.3     26.019     28.828
REMARK  Name = 28962508
REMARK  10 active torsions:
REMARK  status: ('A' for Active; 'I' for Inactive)
REMARK    1  A    between atoms: O_2  and  C_10
REMARK    2  A    between atoms: N_5  and  C_14
REMARK    3  A    between atoms: N_6  and  C_24
REMARK    4  A    between atoms: C_7  and  C_17
REMARK    5  A    between atoms: C_9  and  C_19
REMARK    6  A    between atoms: C_13  and  C_18
REMARK    7  A    between atoms: C_18  and  C_20
REMARK    8  A    between atoms: C_18  and  C_21
REMARK    9  A    between atoms: C_22  and  C_23
REMARK   10  A    between atoms: C_24  and  C_25
REMARK                            x       y       z     vdW  Elec       q    Type
REMARK                         _______ _______ _______ _____ _____    ______ ____
ROOT
ATOM      7  C   UNL     1     -15.181   7.498  20.169  0.00  0.00    -0.027 C 
ATOM      8  C   UNL     1     -14.011   6.590  20.672  0.00  0.00    +0.028 C 
ATOM      9  C   UNL     1     -14.340   5.985  22.085  0.00  0.00    +0.012 C 
ATOM     10  C   UNL     1     -12.642   7.321  20.562  0.00  0.00    +0.122 C 
ATOM     11  C   UNL     1     -14.876   7.985  18.733  0.00  0.00    +0.007 C 
ATOM     12  C   UNL     1     -16.482   6.662  20.116  0.00  0.00    +0.009 C 
ATOM     13  C   UNL     1     -12.388   7.897  19.148  0.00  0.00    +0.029 C 
ATOM     14  C   UNL     1     -15.687   5.210  22.037  0.00  0.00    +0.076 C 
ATOM     15  C   UNL     1     -13.556   8.736  18.628  0.00  0.00    +0.007 C 
ATOM     16  C   UNL     1     -16.838   6.027  21.453  0.00  0.00    +0.023 C 
ATOM     17  C   UNL     1     -15.407   8.734  21.076  0.00  0.00    +0.011 C 
ATOM     19  C   UNL     1     -13.241   5.056  22.628  0.00  0.00    +0.010 C 
ENDROOT
BRANCH  14   5
ATOM      4  O   UNL     1     -16.444   2.508  22.785  0.00  0.00    -0.276 OA
ATOM      5  N   UNL     1     -16.080   4.737  23.349  0.00  0.00    -0.312 N 
ATOM     22  C   UNL     1     -16.425   3.423  23.605  0.00  0.00    +0.210 C 
ATOM     23  C   UNL     1     -16.767   3.197  25.054  0.00  0.00    +0.109 C 
ATOM     29  H   UNL     1     -16.158   5.420  24.096  0.00  0.00    +0.149 HD
ENDBRANCH  14   5
BRANCH  10   2
ATOM      2  O   UNL     1     -11.585   6.397  20.822  0.00  0.00    -0.391 OA
ATOM     30  H   UNL     1     -10.900   6.522  20.143  0.00  0.00    +0.210 HD
ENDBRANCH  10   2
BRANCH  13  18
ATOM     18  C   UNL     1     -11.098   8.724  19.095  0.00  0.00    +0.077 C 
ATOM     20  C   UNL     1     -11.227   9.956  19.985  0.00  0.00    +0.017 C 
BRANCH  18  21
ATOM      3  O   UNL     1     -10.540  10.265  17.312  0.00  0.00    -0.276 OA
ATOM      6  N   UNL     1     -10.822   8.022  16.792  0.00  0.00    -0.310 N 
ATOM     21  C   UNL     1     -10.788   9.110  17.652  0.00  0.00    +0.216 C 
ATOM     31  H   UNL     1     -11.063   7.105  17.155  0.00  0.00    +0.149 HD
BRANCH   6  24
ATOM     24  C   UNL     1     -10.563   8.139  15.375  0.00  0.00    +0.146 C 
BRANCH  24  25
ATOM      1  S   UNL     1     -11.707   8.936  12.971  0.00  0.00    -0.100 S 
ATOM     25  C   UNL     1     -11.821   8.372  14.584  0.00  0.00    +0.007 A 
ATOM     26  C   UNL     1     -13.128   8.192  14.979  0.00  0.00    +0.013 A 
ATOM     27  C   UNL     1     -14.049   8.523  13.943  0.00  0.00    +0.008 A 
ATOM     28  C   UNL     1     -13.411   8.942  12.797  0.00  0.00    +0.045 A 
ENDBRANCH  24  25
ENDBRANCH   6  24
ENDBRANCH  18  21
ENDBRANCH  13  18
TORSDOF 6
ENDMDL
MODEL 7
REMARK VINA RESULT:      -6.3     27.775     29.794
REMARK  Name = 28962508
REMARK  10 active torsions:
REMARK  status: ('A' for Active; 'I' for Inactive)
REMARK    1  A    between atoms: O_2  and  C_10
REMARK    2  A    between atoms: N_5  and  C_14
REMARK    3  A    between atoms: N_6  and  C_24
REMARK    4  A    between atoms: C_7  and  C_17
REMARK    5  A    between atoms: C_9  and  C_19
REMARK    6  A    between atoms: C_13  and  C_18
REMARK    7  A    between atoms: C_18  and  C_20
REMARK    8  A    between atoms: C_18  and  C_21
REMARK    9  A    between atoms: C_22  and  C_23
REMARK   10  A    between atoms: C_24  and  C_25
REMARK                            x       y       z     vdW  Elec       q    Type
REMARK                         _______ _______ _______ _____ _____    ______ ____
ROOT
ATOM      7  C   UNL     1      -5.036 -11.212  17.978  0.00  0.00    -0.027 C 
ATOM      8  C   UNL     1      -5.754 -12.291  17.102  0.00  0.00    +0.028 C 
ATOM      9  C   UNL     1      -6.560 -13.296  18.001  0.00  0.00    +0.012 C 
ATOM     10  C   UNL     1      -4.768 -12.943  16.090  0.00  0.00    +0.122 C 
ATOM     11  C   UNL     1      -4.347 -10.176  17.060  0.00  0.00    +0.007 C 
ATOM     12  C   UNL     1      -6.094 -10.463  18.823  0.00  0.00    +0.009 C 
ATOM     13  C   UNL     1      -4.004 -11.896  15.245  0.00  0.00    +0.029 C 
ATOM     14  C   UNL     1      -7.568 -12.525  18.899  0.00  0.00    +0.076 C 
ATOM     15  C   UNL     1      -3.352 -10.806  16.095  0.00  0.00    +0.007 C 
ATOM     16  C   UNL     1      -6.926 -11.390  19.697  0.00  0.00    +0.023 C 
ATOM     17  C   UNL     1      -3.971 -11.825  18.923  0.00  0.00    +0.011 C 
ATOM     19  C   UNL     1      -7.316 -14.369  17.199  0.00  0.00    +0.010 C 
ENDROOT
BRANCH  14   5
ATOM      4  O   UNL     1     -10.291 -12.298  19.880  0.00  0.00    -0.276 OA
ATOM      5  N   UNL     1      -8.247 -13.408  19.825  0.00  0.00    -0.312 N 
ATOM     22  C   UNL     1      -9.553 -13.214  20.233  0.00  0.00    +0.210 C 
ATOM     23  C   UNL     1     -10.020 -14.291  21.176  0.00  0.00    +0.109 C 
ATOM     29  H   UNL     1      -7.713 -14.171  20.231  0.00  0.00    +0.149 HD
ENDBRANCH  14   5
BRANCH  10   2
ATOM      2  O   UNL     1      -5.497 -13.757  15.170  0.00  0.00    -0.391 OA
ATOM     30  H   UNL     1      -6.442 -13.554  15.271  0.00  0.00    +0.210 HD
ENDBRANCH  10   2
BRANCH  13  18
ATOM     18  C   UNL     1      -2.946 -12.551  14.350  0.00  0.00    +0.077 C 
ATOM     20  C   UNL     1      -1.584 -11.908  14.590  0.00  0.00    +0.017 C 
BRANCH  18  21
ATOM      3  O   UNL     1      -2.589 -12.661  11.956  0.00  0.00    -0.276 OA
ATOM      6  N   UNL     1      -4.691 -12.067  12.739  0.00  0.00    -0.310 N 
ATOM     21  C   UNL     1      -3.363 -12.440  12.886  0.00  0.00    +0.216 C 
ATOM     31  H   UNL     1      -5.252 -11.879  13.564  0.00  0.00    +0.149 HD
BRANCH   6  24
ATOM     24  C   UNL     1      -5.315 -11.896  11.447  0.00  0.00    +0.146 C 
BRANCH  24  25
ATOM      1  S   UNL     1      -5.700  -9.143  11.423  0.00  0.00    -0.100 S 
ATOM     25  C   UNL     1      -4.973 -10.572  10.821  0.00  0.00    +0.007 A 
ATOM     26  C   UNL     1      -4.115 -10.315   9.774  0.00  0.00    +0.013 A 
ATOM     27  C   UNL     1      -4.054  -8.926   9.463  0.00  0.00    +0.008 A 
ATOM     28  C   UNL     1      -4.867  -8.175  10.282  0.00  0.00    +0.045 A 
ENDBRANCH  24  25
ENDBRANCH   6  24
ENDBRANCH  18  21
ENDBRANCH  13  18
TORSDOF 6
ENDMDL
MODEL 8
REMARK VINA RESULT:      -6.3     27.784     30.849
REMARK  Name = 28962508
REMARK  10 active torsions:
REMARK  status: ('A' for Active; 'I' for Inactive)
REMARK    1  A    between atoms: O_2  and  C_10
REMARK    2  A    between atoms: N_5  and  C_14
REMARK    3  A    between atoms: N_6  and  C_24
REMARK    4  A    between atoms: C_7  and  C_17
REMARK    5  A    between atoms: C_9  and  C_19
REMARK    6  A    between atoms: C_13  and  C_18
REMARK    7  A    between atoms: C_18  and  C_20
REMARK    8  A    between atoms: C_18  and  C_21
REMARK    9  A    between atoms: C_22  and  C_23
REMARK   10  A    between atoms: C_24  and  C_25
REMARK                            x       y       z     vdW  Elec       q    Type
REMARK                         _______ _______ _______ _____ _____    ______ ____
ROOT
ATOM      7  C   UNL     1      -6.398 -11.445  19.049  0.00  0.00    -0.027 C 
ATOM      8  C   UNL     1      -6.776 -10.855  17.651  0.00  0.00    +0.028 C 
ATOM      9  C   UNL     1      -5.543 -10.133  16.997  0.00  0.00    +0.012 C 
ATOM     10  C   UNL     1      -8.080 -10.009  17.729  0.00  0.00    +0.122 C 
ATOM     11  C   UNL     1      -7.597 -12.244  19.614  0.00  0.00    +0.007 C 
ATOM     12  C   UNL     1      -5.216 -12.429  18.880  0.00  0.00    +0.009 C 
ATOM     13  C   UNL     1      -9.248 -10.779  18.389  0.00  0.00    +0.029 C 
ATOM     14  C   UNL     1      -4.337 -11.110  16.900  0.00  0.00    +0.076 C 
ATOM     15  C   UNL     1      -8.865 -11.409  19.729  0.00  0.00    +0.007 C 
ATOM     16  C   UNL     1      -3.999 -11.791  18.225  0.00  0.00    +0.023 C 
ATOM     17  C   UNL     1      -6.006 -10.349  20.072  0.00  0.00    +0.011 C 
ATOM     19  C   UNL     1      -5.837  -9.553  15.603  0.00  0.00    +0.010 C 
ENDROOT
BRANCH  14   5
ATOM      4  O   UNL     1      -2.496 -12.063  14.867  0.00  0.00    -0.276 OA
ATOM      5  N   UNL     1      -3.147 -10.446  16.409  0.00  0.00    -0.312 N 
ATOM     22  C   UNL     1      -2.330 -10.986  15.433  0.00  0.00    +0.210 C 
ATOM     23  C   UNL     1      -1.179 -10.079  15.091  0.00  0.00    +0.109 C 
ATOM     29  H   UNL     1      -2.876  -9.571  16.848  0.00  0.00    +0.149 HD
ENDBRANCH  14   5
BRANCH  10   2
ATOM      2  O   UNL     1      -8.508  -9.670  16.410  0.00  0.00    -0.391 OA
ATOM     30  H   UNL     1      -8.676 -10.497  15.925  0.00  0.00    +0.210 HD
ENDBRANCH  10   2
BRANCH  13  18
ATOM     18  C   UNL     1     -10.482  -9.888  18.576  0.00  0.00    +0.077 C 
ATOM     20  C   UNL     1     -11.229 -10.284  19.845  0.00  0.00    +0.017 C 
BRANCH  18  21
ATOM      3  O   UNL     1     -11.335 -10.929  16.562  0.00  0.00    -0.276 OA
ATOM      6  N   UNL     1     -12.237  -8.898  17.228  0.00  0.00    -0.310 N 
ATOM     21  C   UNL     1     -11.382  -9.984  17.347  0.00  0.00    +0.216 C 
ATOM     31  H   UNL     1     -12.189  -8.147  17.911  0.00  0.00    +0.149 HD
BRANCH   6  24
ATOM     24  C   UNL     1     -13.182  -8.763  16.145  0.00  0.00    +0.146 C 
BRANCH  24  25
ATOM      1  S   UNL     1     -13.135  -7.731  13.564  0.00  0.00    -0.100 S 
ATOM     25  C   UNL     1     -12.859  -7.599  15.249  0.00  0.00    +0.007 A 
ATOM     26  C   UNL     1     -12.344  -6.369  15.594  0.00  0.00    +0.013 A 
ATOM     27  C   UNL     1     -12.174  -5.524  14.460  0.00  0.00    +0.008 A 
ATOM     28  C   UNL     1     -12.565  -6.139  13.291  0.00  0.00    +0.045 A 
ENDBRANCH  24  25
ENDBRANCH   6  24
ENDBRANCH  18  21
ENDBRANCH  13  18
TORSDOF 6
ENDMDL
MODEL 9
REMARK VINA RESULT:      -6.1     27.091     29.786
REMARK  Name = 28962508
REMARK  10 active torsions:
REMARK  status: ('A' for Active; 'I' for Inactive)
REMARK    1  A    between atoms: O_2  and  C_10
REMARK    2  A    between atoms: N_5  and  C_14
REMARK    3  A    between atoms: N_6  and  C_24
REMARK    4  A    between atoms: C_7  and  C_17
REMARK    5  A    between atoms: C_9  and  C_19
REMARK    6  A    between atoms: C_13  and  C_18
REMARK    7  A    between atoms: C_18  and  C_20
REMARK    8  A    between atoms: C_18  and  C_21
REMARK    9  A    between atoms: C_22  and  C_23
REMARK   10  A    between atoms: C_24  and  C_25
REMARK                            x       y       z     vdW  Elec       q    Type
REMARK                         _______ _______ _______ _____ _____    ______ ____
ROOT
ATOM      7  C   UNL     1      -3.321 -11.111  11.477  0.00  0.00    -0.027 C 
ATOM      8  C   UNL     1      -4.653 -10.646  12.151  0.00  0.00    +0.028 C 
ATOM      9  C   UNL     1      -5.413  -9.618  11.238  0.00  0.00    +0.012 C 
ATOM     10  C   UNL     1      -4.411 -10.184  13.618  0.00  0.00    +0.122 C 
ATOM     11  C   UNL     1      -2.655 -12.203  12.347  0.00  0.00    +0.007 C 
ATOM     12  C   UNL     1      -3.645 -11.739  10.100  0.00  0.00    +0.009 C 
ATOM     13  C   UNL     1      -3.652 -11.240  14.456  0.00  0.00    +0.029 C 
ATOM     14  C   UNL     1      -5.667 -10.233   9.833  0.00  0.00    +0.076 C 
ATOM     15  C   UNL     1      -2.381 -11.742  13.772  0.00  0.00    +0.007 C 
ATOM     16  C   UNL     1      -4.407 -10.797   9.179  0.00  0.00    +0.023 C 
ATOM     17  C   UNL     1      -2.314  -9.949  11.282  0.00  0.00    +0.011 C 
ATOM     19  C   UNL     1      -6.750  -9.140  11.830  0.00  0.00    +0.010 C 
ENDROOT
BRANCH  14   5
ATOM      4  O   UNL     1      -7.836 -10.687   7.957  0.00  0.00    -0.276 OA
ATOM      5  N   UNL     1      -6.263  -9.273   8.927  0.00  0.00    -0.312 N 
ATOM     22  C   UNL     1      -7.299  -9.588   8.067  0.00  0.00    +0.210 C 
ATOM     23  C   UNL     1      -7.745  -8.401   7.256  0.00  0.00    +0.109 C 
ATOM     29  H   UNL     1      -5.858  -8.343   8.887  0.00  0.00    +0.149 HD
ENDBRANCH  14   5
BRANCH  10   2
ATOM      2  O   UNL     1      -5.667  -9.974  14.265  0.00  0.00    -0.391 OA
ATOM     30  H   UNL     1      -6.372 -10.127  13.613  0.00  0.00    +0.210 HD
ENDBRANCH  10   2
BRANCH  13  18
ATOM     18  C   UNL     1      -3.309 -10.715  15.855  0.00  0.00    +0.077 C 
ATOM     20  C   UNL     1      -1.798 -10.716  16.060  0.00  0.00    +0.017 C 
BRANCH  18  21
ATOM      3  O   UNL     1      -3.692 -11.540  18.100  0.00  0.00    -0.276 OA
ATOM      6  N   UNL     1      -5.039 -12.329  16.383  0.00  0.00    -0.310 N 
ATOM     21  C   UNL     1      -4.015 -11.558  16.913  0.00  0.00    +0.216 C 
ATOM     31  H   UNL     1      -5.220 -12.301  15.384  0.00  0.00    +0.149 HD
BRANCH   6  24
ATOM     24  C   UNL     1      -5.850 -13.210  17.190  0.00  0.00    +0.146 C 
BRANCH  24  25
ATOM      1  S   UNL     1      -8.029 -11.496  16.987  0.00  0.00    -0.100 S 
ATOM     25  C   UNL     1      -6.959 -12.478  17.894  0.00  0.00    +0.007 A 
ATOM     26  C   UNL     1      -7.266 -12.474  19.237  0.00  0.00    +0.013 A 
ATOM     27  C   UNL     1      -8.394 -11.653  19.525  0.00  0.00    +0.008 A 
ATOM     28  C   UNL     1      -8.907 -11.062  18.391  0.00  0.00    +0.045 A 
ENDBRANCH  24  25
ENDBRANCH   6  24
ENDBRANCH  18  21
ENDBRANCH  13  18
TORSDOF 6
ENDMDL
MODEL 10
REMARK VINA RESULT:      -6.1      3.925      5.757
REMARK  Name = 28962508
REMARK  10 active torsions:
REMARK  status: ('A' for Active; 'I' for Inactive)
REMARK    1  A    between atoms: O_2  and  C_10
REMARK    2  A    between atoms: N_5  and  C_14
REMARK    3  A    between atoms: N_6  and  C_24
REMARK    4  A    between atoms: C_7  and  C_17
REMARK    5  A    between atoms: C_9  and  C_19
REMARK    6  A    between atoms: C_13  and  C_18
REMARK    7  A    between atoms: C_18  and  C_20
REMARK    8  A    between atoms: C_18  and  C_21
REMARK    9  A    between atoms: C_22  and  C_23
REMARK   10  A    between atoms: C_24  and  C_25
REMARK                            x       y       z     vdW  Elec       q    Type
REMARK                         _______ _______ _______ _____ _____    ______ ____
ROOT
ATOM      7  C   UNL     1      16.212   9.835  20.589  0.00  0.00    -0.027 C 
ATOM      8  C   UNL     1      16.157   8.498  19.780  0.00  0.00    +0.028 C 
ATOM      9  C   UNL     1      14.685   8.170  19.340  0.00  0.00    +0.012 C 
ATOM     10  C   UNL     1      16.899   7.354  20.531  0.00  0.00    +0.122 C 
ATOM     11  C   UNL     1      17.685  10.185  20.909  0.00  0.00    +0.007 C 
ATOM     12  C   UNL     1      15.636  10.976  19.717  0.00  0.00    +0.009 C 
ATOM     13  C   UNL     1      18.338   7.748  20.940  0.00  0.00    +0.029 C 
ATOM     14  C   UNL     1      14.091   9.355  18.527  0.00  0.00    +0.076 C 
ATOM     15  C   UNL     1      18.403   9.085  21.678  0.00  0.00    +0.007 C 
ATOM     16  C   UNL     1      14.218  10.702  19.236  0.00  0.00    +0.023 C 
ATOM     17  C   UNL     1      15.419   9.761  21.918  0.00  0.00    +0.011 C 
ATOM     19  C   UNL     1      14.562   6.879  18.514  0.00  0.00    +0.010 C 
ENDROOT
BRANCH  14   5
ATOM      4  O   UNL     1      12.952   8.786  15.918  0.00  0.00    -0.276 OA
ATOM      5  N   UNL     1      12.696   9.138  18.204  0.00  0.00    -0.312 N 
ATOM     22  C   UNL     1      12.250   8.871  16.923  0.00  0.00    +0.210 C 
ATOM     23  C   UNL     1      10.761   8.662  16.871  0.00  0.00    +0.109 C 
ATOM     29  H   UNL     1      12.014   9.243  18.949  0.00  0.00    +0.149 HD
ENDBRANCH  14   5
BRANCH  10   2
ATOM      2  O   UNL     1      17.015   6.217  19.674  0.00  0.00    -0.391 OA
ATOM     30  H   UNL     1      16.922   5.417  20.220  0.00  0.00    +0.210 HD
ENDBRANCH  10   2
BRANCH  13  18
ATOM     18  C   UNL     1      19.005   6.660  21.791  0.00  0.00    +0.077 C 
ATOM     20  C   UNL     1      19.716   7.289  22.984  0.00  0.00    +0.017 C 
BRANCH  18  21
ATOM      3  O   UNL     1      19.589   5.014  20.112  0.00  0.00    -0.276 OA
ATOM      6  N   UNL     1      21.298   6.159  21.187  0.00  0.00    -0.310 N 
ATOM     21  C   UNL     1      19.970   5.848  20.932  0.00  0.00    +0.216 C 
ATOM     31  H   UNL     1      21.523   6.844  21.902  0.00  0.00    +0.149 HD
BRANCH   6  24
ATOM     24  C   UNL     1      22.395   5.519  20.498  0.00  0.00    +0.146 C 
BRANCH  24  25
ATOM      1  S   UNL     1      24.168   3.379  20.552  0.00  0.00    -0.100 S 
ATOM     25  C   UNL     1      22.886   4.296  21.222  0.00  0.00    +0.007 A 
ATOM     26  C   UNL     1      22.438   3.767  22.413  0.00  0.00    +0.013 A 
ATOM     27  C   UNL     1      23.157   2.592  22.778  0.00  0.00    +0.008 A 
ATOM     28  C   UNL     1      24.126   2.269  21.855  0.00  0.00    +0.045 A 
ENDBRANCH  24  25
ENDBRANCH   6  24
ENDBRANCH  18  21
ENDBRANCH  13  18
TORSDOF 6
ENDMDL
