MODEL 1
REMARK VINA RESULT:      -7.5      0.000      0.000
REMARK  Name = 51136834
REMARK  5 active torsions:
REMARK  status: ('A' for Active; 'I' for Inactive)
REMARK    1  A    between atoms: N_3  and  C_12
REMARK    2  A    between atoms: C_9  and  C_12
REMARK    3  A    between atoms: C_13  and  C_17
REMARK    4  A    between atoms: C_18  and  C_23
REMARK    5  A    between atoms: C_26  and  C_29
REMARK                            x       y       z     vdW  Elec       q    Type
REMARK                         _______ _______ _______ _____ _____    ______ ____
ROOT
ATOM      2  O   UNL     1     -15.720   0.460  28.535  0.00  0.00    -0.276 OA
ATOM      5  N   UNL     1     -14.343   3.585  32.265  0.00  0.00    -0.312 N 
ATOM      7  N   UNL     1     -14.700   1.403  30.397  0.00  0.00    -0.299 N 
ATOM      8  N   UNL     1     -14.247   4.423  34.471  0.00  0.00    -0.240 NA
ATOM     19  C   UNL     1     -14.921   3.810  30.937  0.00  0.00    +0.125 C 
ATOM     20  C   UNL     1     -14.020   2.211  32.656  0.00  0.00    +0.125 C 
ATOM     21  C   UNL     1     -15.610   2.545  30.428  0.00  0.00    +0.126 C 
ATOM     22  C   UNL     1     -13.663   1.368  31.432  0.00  0.00    +0.126 C 
ATOM     23  C   UNL     1     -13.646   6.955  33.448  0.00  0.00    +0.027 A 
ATOM     24  C   UNL     1     -14.143   4.649  33.142  0.00  0.00    +0.122 A 
ATOM     25  C   UNL     1     -13.848   5.884  32.586  0.00  0.00    +0.055 A 
ATOM     26  C   UNL     1     -14.848   0.432  29.406  0.00  0.00    +0.213 C 
ATOM     27  C   UNL     1     -13.745   6.763  34.822  0.00  0.00    +0.031 A 
ATOM     28  C   UNL     1     -14.044   5.488  35.278  0.00  0.00    +0.113 A 
ATOM     29  C   UNL     1     -13.863  -0.710  29.440  0.00  0.00    +0.109 C 
ENDROOT
BRANCH  23  18
ATOM      1  O   UNL     1     -13.470  10.318  32.387  0.00  0.00    -0.336 OA
ATOM      4  N   UNL     1     -12.156   8.507  32.286  0.00  0.00    -0.190 NA
ATOM      6  N   UNL     1     -14.175   9.289  33.024  0.00  0.00    -0.056 NA
ATOM     17  C   UNL     1     -12.292   9.774  31.983  0.00  0.00    +0.245 A 
ATOM     18  C   UNL     1     -13.336   8.255  32.923  0.00  0.00    +0.202 A 
BRANCH  17  13
ATOM      3  N   UNL     1     -11.855  11.139  29.949  0.00  0.00    -0.291 NA
ATOM     13  C   UNL     1     -11.335  10.696  31.258  0.00  0.00    +0.146 C 
ATOM     14  C   UNL     1     -11.277  12.459  29.699  0.00  0.00    +0.085 C 
ATOM     15  C   UNL     1     -11.064  11.999  32.032  0.00  0.00    +0.030 C 
ATOM     16  C   UNL     1     -11.403  13.118  31.058  0.00  0.00    +0.017 C 
BRANCH   3  12
ATOM     12  C   UNL     1     -11.569  10.202  28.870  0.00  0.00    +0.088 C 
BRANCH  12   9
ATOM      9  C   UNL     1     -10.868  10.877  27.736  0.00  0.00    +0.003 C 
ATOM     10  C   UNL     1     -10.053  10.053  26.783  0.00  0.00    +0.005 C 
ATOM     11  C   UNL     1     -11.353  10.650  26.335  0.00  0.00    +0.005 C 
ENDBRANCH  12   9
ENDBRANCH   3  12
ENDBRANCH  17  13
ENDBRANCH  23  18
TORSDOF 4
ENDMDL
MODEL 2
REMARK VINA RESULT:      -7.1     22.908     26.723
REMARK  Name = 51136834
REMARK  5 active torsions:
REMARK  status: ('A' for Active; 'I' for Inactive)
REMARK    1  A    between atoms: N_3  and  C_12
REMARK    2  A    between atoms: C_9  and  C_12
REMARK    3  A    between atoms: C_13  and  C_17
REMARK    4  A    between atoms: C_18  and  C_23
REMARK    5  A    between atoms: C_26  and  C_29
REMARK                            x       y       z     vdW  Elec       q    Type
REMARK                         _______ _______ _______ _____ _____    ______ ____
ROOT
ATOM      2  O   UNL     1      -9.080 -10.852  19.531  0.00  0.00    -0.276 OA
ATOM      5  N   UNL     1      -4.844 -11.002  16.772  0.00  0.00    -0.312 N 
ATOM      7  N   UNL     1      -7.026 -11.444  18.623  0.00  0.00    -0.299 N 
ATOM      8  N   UNL     1      -2.542 -10.746  16.314  0.00  0.00    -0.240 NA
ATOM     19  C   UNL     1      -6.170 -10.424  16.535  0.00  0.00    +0.125 C 
ATOM     20  C   UNL     1      -4.626 -11.748  18.014  0.00  0.00    +0.125 C 
ATOM     21  C   UNL     1      -6.908 -10.207  17.854  0.00  0.00    +0.126 C 
ATOM     22  C   UNL     1      -5.925 -12.401  18.489  0.00  0.00    +0.126 C 
ATOM     23  C   UNL     1      -3.142 -10.509  13.595  0.00  0.00    +0.027 A 
ATOM     24  C   UNL     1      -3.812 -10.811  15.857  0.00  0.00    +0.122 A 
ATOM     25  C   UNL     1      -4.161 -10.699  14.520  0.00  0.00    +0.055 A 
ATOM     26  C   UNL     1      -8.153 -11.656  19.417  0.00  0.00    +0.213 C 
ATOM     27  C   UNL     1      -1.822 -10.436  14.027  0.00  0.00    +0.031 A 
ATOM     28  C   UNL     1      -1.578 -10.560  15.385  0.00  0.00    +0.113 A 
ATOM     29  C   UNL     1      -8.201 -12.962  20.172  0.00  0.00    +0.109 C 
ENDROOT
BRANCH  23  18
ATOM      1  O   UNL     1      -3.273 -10.045  10.097  0.00  0.00    -0.336 OA
ATOM      4  N   UNL     1      -4.704 -10.635  11.716  0.00  0.00    -0.190 NA
ATOM      6  N   UNL     1      -2.538 -10.030  11.289  0.00  0.00    -0.056 NA
ATOM     17  C   UNL     1      -4.537 -10.411  10.437  0.00  0.00    +0.245 A 
ATOM     18  C   UNL     1      -3.450 -10.389  12.197  0.00  0.00    +0.202 A 
BRANCH  17  13
ATOM      3  N   UNL     1      -5.665  -9.239   8.554  0.00  0.00    -0.291 NA
ATOM     13  C   UNL     1      -5.541 -10.503   9.307  0.00  0.00    +0.146 C 
ATOM     14  C   UNL     1      -6.039  -9.606   7.188  0.00  0.00    +0.085 C 
ATOM     15  C   UNL     1      -5.151 -11.552   8.249  0.00  0.00    +0.030 C 
ATOM     16  C   UNL     1      -5.141 -10.799   6.928  0.00  0.00    +0.017 C 
BRANCH   3  12
ATOM     12  C   UNL     1      -6.612  -8.305   9.149  0.00  0.00    +0.088 C 
BRANCH  12   9
ATOM      9  C   UNL     1      -7.677  -7.918   8.177  0.00  0.00    +0.003 C 
ATOM     10  C   UNL     1      -8.989  -7.400   8.692  0.00  0.00    +0.005 C 
ATOM     11  C   UNL     1      -8.029  -6.468   8.013  0.00  0.00    +0.005 C 
ENDBRANCH  12   9
ENDBRANCH   3  12
ENDBRANCH  17  13
ENDBRANCH  23  18
TORSDOF 4
ENDMDL
MODEL 3
REMARK VINA RESULT:      -7.1     21.237     24.614
REMARK  Name = 51136834
REMARK  5 active torsions:
REMARK  status: ('A' for Active; 'I' for Inactive)
REMARK    1  A    between atoms: N_3  and  C_12
REMARK    2  A    between atoms: C_9  and  C_12
REMARK    3  A    between atoms: C_13  and  C_17
REMARK    4  A    between atoms: C_18  and  C_23
REMARK    5  A    between atoms: C_26  and  C_29
REMARK                            x       y       z     vdW  Elec       q    Type
REMARK                         _______ _______ _______ _____ _____    ______ ____
ROOT
ATOM      2  O   UNL     1     -12.802  -6.904  16.063  0.00  0.00    -0.276 OA
ATOM      5  N   UNL     1      -8.702  -9.481  17.522  0.00  0.00    -0.312 N 
ATOM      7  N   UNL     1     -11.364  -8.510  16.929  0.00  0.00    -0.299 N 
ATOM      8  N   UNL     1      -7.107 -10.349  19.032  0.00  0.00    -0.240 NA
ATOM     19  C   UNL     1      -8.926  -8.461  16.494  0.00  0.00    +0.125 C 
ATOM     20  C   UNL     1      -9.853  -9.943  18.302  0.00  0.00    +0.125 C 
ATOM     21  C   UNL     1     -10.187  -7.655  16.799  0.00  0.00    +0.126 C 
ATOM     22  C   UNL     1     -11.138  -9.849  17.479  0.00  0.00    +0.126 C 
ATOM     23  C   UNL     1      -5.260 -10.505  16.940  0.00  0.00    +0.027 A 
ATOM     24  C   UNL     1      -7.421  -9.966  17.774  0.00  0.00    +0.122 A 
ATOM     25  C   UNL     1      -6.542 -10.023  16.704  0.00  0.00    +0.055 A 
ATOM     26  C   UNL     1     -12.611  -8.031  16.526  0.00  0.00    +0.213 C 
ATOM     27  C   UNL     1      -4.899 -10.908  18.221  0.00  0.00    +0.031 A 
ATOM     28  C   UNL     1      -5.852 -10.812  19.223  0.00  0.00    +0.113 A 
ATOM     29  C   UNL     1     -13.773  -8.980  16.685  0.00  0.00    +0.109 C 
ENDROOT
BRANCH  23  18
ATOM      1  O   UNL     1      -2.479 -10.678  14.771  0.00  0.00    -0.336 OA
ATOM      4  N   UNL     1      -4.709 -10.667  14.563  0.00  0.00    -0.190 NA
ATOM      6  N   UNL     1      -2.991 -10.587  16.071  0.00  0.00    -0.056 NA
ATOM     17  C   UNL     1      -3.557 -10.720  13.944  0.00  0.00    +0.245 A 
ATOM     18  C   UNL     1      -4.310 -10.586  15.865  0.00  0.00    +0.202 A 
BRANCH  17  13
ATOM      3  N   UNL     1      -4.011  -9.821  11.668  0.00  0.00    -0.291 NA
ATOM     13  C   UNL     1      -3.267 -10.821  12.461  0.00  0.00    +0.146 C 
ATOM     14  C   UNL     1      -3.190  -9.532  10.493  0.00  0.00    +0.085 C 
ATOM     15  C   UNL     1      -1.786 -10.563  12.126  0.00  0.00    +0.030 C 
ATOM     16  C   UNL     1      -1.801  -9.445  11.093  0.00  0.00    +0.017 C 
BRANCH   3  12
ATOM     12  C   UNL     1      -5.353 -10.257  11.306  0.00  0.00    +0.088 C 
BRANCH  12   9
ATOM      9  C   UNL     1      -6.356  -9.173  11.530  0.00  0.00    +0.003 C 
ATOM     10  C   UNL     1      -7.694  -9.260  10.857  0.00  0.00    +0.005 C 
ATOM     11  C   UNL     1      -7.585  -9.466  12.339  0.00  0.00    +0.005 C 
ENDBRANCH  12   9
ENDBRANCH   3  12
ENDBRANCH  17  13
ENDBRANCH  23  18
TORSDOF 4
ENDMDL
MODEL 4
REMARK VINA RESULT:      -7.0     22.874     26.932
REMARK  Name = 51136834
REMARK  5 active torsions:
REMARK  status: ('A' for Active; 'I' for Inactive)
REMARK    1  A    between atoms: N_3  and  C_12
REMARK    2  A    between atoms: C_9  and  C_12
REMARK    3  A    between atoms: C_13  and  C_17
REMARK    4  A    between atoms: C_18  and  C_23
REMARK    5  A    between atoms: C_26  and  C_29
REMARK                            x       y       z     vdW  Elec       q    Type
REMARK                         _______ _______ _______ _____ _____    ______ ____
ROOT
ATOM      2  O   UNL     1      -9.173 -10.786  19.466  0.00  0.00    -0.276 OA
ATOM      5  N   UNL     1      -4.829 -11.021  16.887  0.00  0.00    -0.312 N 
ATOM      7  N   UNL     1      -7.108 -11.436  18.622  0.00  0.00    -0.299 N 
ATOM      8  N   UNL     1      -2.499 -10.853  16.538  0.00  0.00    -0.240 NA
ATOM     19  C   UNL     1      -6.116 -10.375  16.616  0.00  0.00    +0.125 C 
ATOM     20  C   UNL     1      -4.700 -11.824  18.105  0.00  0.00    +0.125 C 
ATOM     21  C   UNL     1      -6.902 -10.177  17.911  0.00  0.00    +0.126 C 
ATOM     22  C   UNL     1      -6.045 -12.436  18.496  0.00  0.00    +0.126 C 
ATOM     23  C   UNL     1      -2.967 -10.483  13.807  0.00  0.00    +0.027 A 
ATOM     24  C   UNL     1      -3.750 -10.843  16.025  0.00  0.00    +0.122 A 
ATOM     25  C   UNL     1      -4.034 -10.663  14.680  0.00  0.00    +0.055 A 
ATOM     26  C   UNL     1      -8.278 -11.627  19.359  0.00  0.00    +0.213 C 
ATOM     27  C   UNL     1      -1.666 -10.488  14.298  0.00  0.00    +0.031 A 
ATOM     28  C   UNL     1      -1.488 -10.676  15.660  0.00  0.00    +0.113 A 
ATOM     29  C   UNL     1      -8.416 -12.957  20.056  0.00  0.00    +0.109 C 
ENDROOT
BRANCH  23  18
ATOM      1  O   UNL     1      -2.924 -10.158  10.292  0.00  0.00    -0.336 OA
ATOM      4  N   UNL     1      -4.442  -9.963  11.927  0.00  0.00    -0.190 NA
ATOM      6  N   UNL     1      -2.246 -10.429  11.486  0.00  0.00    -0.056 NA
ATOM     17  C   UNL     1      -4.210  -9.893  10.640  0.00  0.00    +0.245 A 
ATOM     18  C   UNL     1      -3.207 -10.295  12.404  0.00  0.00    +0.202 A 
BRANCH  17  13
ATOM      3  N   UNL     1      -6.190 -10.607   9.312  0.00  0.00    -0.291 NA
ATOM     13  C   UNL     1      -5.163  -9.564   9.509  0.00  0.00    +0.146 C 
ATOM     14  C   UNL     1      -7.370  -9.928   8.776  0.00  0.00    +0.085 C 
ATOM     15  C   UNL     1      -5.960  -8.271   9.760  0.00  0.00    +0.030 C 
ATOM     16  C   UNL     1      -7.421  -8.672   9.624  0.00  0.00    +0.017 C 
BRANCH   3  12
ATOM     12  C   UNL     1      -5.747 -11.696   8.452  0.00  0.00    +0.088 C 
BRANCH  12   9
ATOM      9  C   UNL     1      -4.823 -11.204   7.386  0.00  0.00    +0.003 C 
ATOM     10  C   UNL     1      -4.208 -12.190   6.436  0.00  0.00    +0.005 C 
ATOM     11  C   UNL     1      -5.269 -11.246   5.954  0.00  0.00    +0.005 C 
ENDBRANCH  12   9
ENDBRANCH   3  12
ENDBRANCH  17  13
ENDBRANCH  23  18
TORSDOF 4
ENDMDL
MODEL 5
REMARK VINA RESULT:      -6.8     21.692     26.131
REMARK  Name = 51136834
REMARK  5 active torsions:
REMARK  status: ('A' for Active; 'I' for Inactive)
REMARK    1  A    between atoms: N_3  and  C_12
REMARK    2  A    between atoms: C_9  and  C_12
REMARK    3  A    between atoms: C_13  and  C_17
REMARK    4  A    between atoms: C_18  and  C_23
REMARK    5  A    between atoms: C_26  and  C_29
REMARK                            x       y       z     vdW  Elec       q    Type
REMARK                         _______ _______ _______ _____ _____    ______ ____
ROOT
ATOM      2  O   UNL     1      -5.589 -12.217   7.857  0.00  0.00    -0.276 OA
ATOM      5  N   UNL     1      -3.339 -10.717  12.131  0.00  0.00    -0.312 N 
ATOM      7  N   UNL     1      -4.462 -10.991   9.477  0.00  0.00    -0.299 N 
ATOM      8  N   UNL     1      -1.541 -10.199  13.572  0.00  0.00    -0.240 NA
ATOM     19  C   UNL     1      -4.380 -11.708  11.846  0.00  0.00    +0.125 C 
ATOM     20  C   UNL     1      -2.822  -9.917  11.019  0.00  0.00    +0.125 C 
ATOM     21  C   UNL     1      -4.334 -12.133  10.379  0.00  0.00    +0.126 C 
ATOM     22  C   UNL     1      -3.893  -9.724   9.945  0.00  0.00    +0.126 C 
ATOM     23  C   UNL     1      -3.205 -10.676  15.767  0.00  0.00    +0.027 A 
ATOM     24  C   UNL     1      -2.832 -10.570  13.420  0.00  0.00    +0.122 A 
ATOM     25  C   UNL     1      -3.697 -10.818  14.475  0.00  0.00    +0.055 A 
ATOM     26  C   UNL     1      -5.110 -11.151   8.252  0.00  0.00    +0.213 C 
ATOM     27  C   UNL     1      -1.882 -10.296  15.964  0.00  0.00    +0.031 A 
ATOM     28  C   UNL     1      -1.099 -10.070  14.843  0.00  0.00    +0.113 A 
ATOM     29  C   UNL     1      -5.207  -9.922   7.383  0.00  0.00    +0.109 C 
ENDROOT
BRANCH  23  18
ATOM      1  O   UNL     1      -4.813 -11.638  18.760  0.00  0.00    -0.336 OA
ATOM      4  N   UNL     1      -5.309 -10.374  16.978  0.00  0.00    -0.190 NA
ATOM      6  N   UNL     1      -3.691 -11.688  17.923  0.00  0.00    -0.056 NA
ATOM     17  C   UNL     1      -5.718 -10.844  18.129  0.00  0.00    +0.245 A 
ATOM     18  C   UNL     1      -4.060 -10.920  16.895  0.00  0.00    +0.202 A 
BRANCH  17  13
ATOM      3  N   UNL     1      -8.164 -10.443  17.903  0.00  0.00    -0.291 NA
ATOM     13  C   UNL     1      -7.038 -10.627  18.840  0.00  0.00    +0.146 C 
ATOM     14  C   UNL     1      -9.357 -10.940  18.587  0.00  0.00    +0.085 C 
ATOM     15  C   UNL     1      -7.448 -11.828  19.712  0.00  0.00    +0.030 C 
ATOM     16  C   UNL     1      -8.840 -12.210  19.234  0.00  0.00    +0.017 C 
BRANCH   3  12
ATOM     12  C   UNL     1      -8.322  -9.064  17.459  0.00  0.00    +0.088 C 
BRANCH  12   9
ATOM      9  C   UNL     1      -9.584  -8.885  16.679  0.00  0.00    +0.003 C 
ATOM     10  C   UNL     1     -10.597  -7.881  17.144  0.00  0.00    +0.005 C 
ATOM     11  C   UNL     1      -9.794  -7.618  15.904  0.00  0.00    +0.005 C 
ENDBRANCH  12   9
ENDBRANCH   3  12
ENDBRANCH  17  13
ENDBRANCH  23  18
TORSDOF 4
ENDMDL
MODEL 6
REMARK VINA RESULT:      -6.8     21.539     25.662
REMARK  Name = 51136834
REMARK  5 active torsions:
REMARK  status: ('A' for Active; 'I' for Inactive)
REMARK    1  A    between atoms: N_3  and  C_12
REMARK    2  A    between atoms: C_9  and  C_12
REMARK    3  A    between atoms: C_13  and  C_17
REMARK    4  A    between atoms: C_18  and  C_23
REMARK    5  A    between atoms: C_26  and  C_29
REMARK                            x       y       z     vdW  Elec       q    Type
REMARK                         _______ _______ _______ _____ _____    ______ ____
ROOT
ATOM      2  O   UNL     1     -12.151  -7.690  16.581  0.00  0.00    -0.276 OA
ATOM      5  N   UNL     1      -7.949 -10.186  17.880  0.00  0.00    -0.312 N 
ATOM      7  N   UNL     1     -10.649  -9.283  17.359  0.00  0.00    -0.299 N 
ATOM      8  N   UNL     1      -6.307 -11.065  19.333  0.00  0.00    -0.240 NA
ATOM     19  C   UNL     1      -8.220  -9.130  16.901  0.00  0.00    +0.125 C 
ATOM     20  C   UNL     1      -9.074 -10.722  18.650  0.00  0.00    +0.125 C 
ATOM     21  C   UNL     1      -9.503  -8.382  17.255  0.00  0.00    +0.126 C 
ATOM     22  C   UNL     1     -10.371 -10.636  17.845  0.00  0.00    +0.126 C 
ATOM     23  C   UNL     1      -4.481 -11.063  17.217  0.00  0.00    +0.027 A 
ATOM     24  C   UNL     1      -6.649 -10.637  18.097  0.00  0.00    +0.122 A 
ATOM     25  C   UNL     1      -5.781 -10.616  17.016  0.00  0.00    +0.055 A 
ATOM     26  C   UNL     1     -11.916  -8.830  16.991  0.00  0.00    +0.213 C 
ATOM     27  C   UNL     1      -4.091 -11.511  18.475  0.00  0.00    +0.031 A 
ATOM     28  C   UNL     1      -5.035 -11.493  19.490  0.00  0.00    +0.113 A 
ATOM     29  C   UNL     1     -13.043  -9.824  17.119  0.00  0.00    +0.109 C 
ENDROOT
BRANCH  23  18
ATOM      1  O   UNL     1      -1.740 -10.888  14.997  0.00  0.00    -0.336 OA
ATOM      4  N   UNL     1      -3.921 -11.379  14.857  0.00  0.00    -0.190 NA
ATOM      6  N   UNL     1      -2.252 -10.759  16.294  0.00  0.00    -0.056 NA
ATOM     17  C   UNL     1      -2.788 -11.255  14.213  0.00  0.00    +0.245 A 
ATOM     18  C   UNL     1      -3.542 -11.064  16.130  0.00  0.00    +0.202 A 
BRANCH  17  13
ATOM      3  N   UNL     1      -3.713 -11.689  11.944  0.00  0.00    -0.291 NA
ATOM     13  C   UNL     1      -2.491 -11.463  12.743  0.00  0.00    +0.146 C 
ATOM     14  C   UNL     1      -3.429 -11.181  10.602  0.00  0.00    +0.085 C 
ATOM     15  C   UNL     1      -1.820 -10.238  12.093  0.00  0.00    +0.030 C 
ATOM     16  C   UNL     1      -2.701  -9.886  10.904  0.00  0.00    +0.017 C 
BRANCH   3  12
ATOM     12  C   UNL     1      -4.137 -13.082  11.924  0.00  0.00    +0.088 C 
BRANCH  12   9
ATOM      9  C   UNL     1      -3.003 -13.991  11.577  0.00  0.00    +0.003 C 
ATOM     10  C   UNL     1      -2.705 -15.165  12.463  0.00  0.00    +0.005 C 
ATOM     11  C   UNL     1      -3.298 -15.383  11.102  0.00  0.00    +0.005 C 
ENDBRANCH  12   9
ENDBRANCH   3  12
ENDBRANCH  17  13
ENDBRANCH  23  18
TORSDOF 4
ENDMDL
MODEL 7
REMARK VINA RESULT:      -6.7     21.079     23.833
REMARK  Name = 51136834
REMARK  5 active torsions:
REMARK  status: ('A' for Active; 'I' for Inactive)
REMARK    1  A    between atoms: N_3  and  C_12
REMARK    2  A    between atoms: C_9  and  C_12
REMARK    3  A    between atoms: C_13  and  C_17
REMARK    4  A    between atoms: C_18  and  C_23
REMARK    5  A    between atoms: C_26  and  C_29
REMARK                            x       y       z     vdW  Elec       q    Type
REMARK                         _______ _______ _______ _____ _____    ______ ____
ROOT
ATOM      2  O   UNL     1     -12.209  -4.683  13.716  0.00  0.00    -0.276 OA
ATOM      5  N   UNL     1     -10.491  -8.427  16.650  0.00  0.00    -0.312 N 
ATOM      7  N   UNL     1     -11.951  -6.696  14.847  0.00  0.00    -0.299 N 
ATOM      8  N   UNL     1     -10.400  -9.832  18.546  0.00  0.00    -0.240 NA
ATOM     19  C   UNL     1      -9.832  -7.307  15.974  0.00  0.00    +0.125 C 
ATOM     20  C   UNL     1     -11.932  -8.605  16.452  0.00  0.00    +0.125 C 
ATOM     21  C   UNL     1     -10.837  -6.202  15.654  0.00  0.00    +0.126 C 
ATOM     22  C   UNL     1     -12.359  -8.083  15.079  0.00  0.00    +0.126 C 
ATOM     23  C   UNL     1      -7.705 -10.337  18.002  0.00  0.00    +0.027 A 
ATOM     24  C   UNL     1      -9.770  -9.275  17.487  0.00  0.00    +0.122 A 
ATOM     25  C   UNL     1      -8.438  -9.494  17.175  0.00  0.00    +0.055 A 
ATOM     26  C   UNL     1     -12.551  -5.851  13.912  0.00  0.00    +0.213 C 
ATOM     27  C   UNL     1      -8.318 -10.929  19.102  0.00  0.00    +0.031 A 
ATOM     28  C   UNL     1      -9.656 -10.646  19.327  0.00  0.00    +0.113 A 
ATOM     29  C   UNL     1     -13.688  -6.440  13.115  0.00  0.00    +0.109 C 
ENDROOT
BRANCH  23  18
ATOM      1  O   UNL     1      -4.219 -10.895  17.953  0.00  0.00    -0.336 OA
ATOM      4  N   UNL     1      -5.883 -10.857  16.455  0.00  0.00    -0.190 NA
ATOM      6  N   UNL     1      -5.384 -10.604  18.674  0.00  0.00    -0.056 NA
ATOM     17  C   UNL     1      -4.601 -11.029  16.656  0.00  0.00    +0.245 A 
ATOM     18  C   UNL     1      -6.321 -10.598  17.722  0.00  0.00    +0.202 A 
BRANCH  17  13
ATOM      3  N   UNL     1      -3.621 -10.560  14.417  0.00  0.00    -0.291 NA
ATOM     13  C   UNL     1      -3.507 -11.351  15.659  0.00  0.00    +0.146 C 
ATOM     14  C   UNL     1      -2.262 -10.406  13.900  0.00  0.00    +0.085 C 
ATOM     15  C   UNL     1      -2.100 -11.034  16.198  0.00  0.00    +0.030 C 
ATOM     16  C   UNL     1      -1.478 -10.108  15.163  0.00  0.00    +0.017 C 
BRANCH   3  12
ATOM     12  C   UNL     1      -4.516 -11.158  13.435  0.00  0.00    +0.088 C 
BRANCH  12   9
ATOM      9  C   UNL     1      -5.267 -10.112  12.677  0.00  0.00    +0.003 C 
ATOM     10  C   UNL     1      -6.389 -10.526  11.771  0.00  0.00    +0.005 C 
ATOM     11  C   UNL     1      -6.687  -9.809  13.055  0.00  0.00    +0.005 C 
ENDBRANCH  12   9
ENDBRANCH   3  12
ENDBRANCH  17  13
ENDBRANCH  23  18
TORSDOF 4
ENDMDL
MODEL 8
REMARK VINA RESULT:      -6.7     22.107     26.624
REMARK  Name = 51136834
REMARK  5 active torsions:
REMARK  status: ('A' for Active; 'I' for Inactive)
REMARK    1  A    between atoms: N_3  and  C_12
REMARK    2  A    between atoms: C_9  and  C_12
REMARK    3  A    between atoms: C_13  and  C_17
REMARK    4  A    between atoms: C_18  and  C_23
REMARK    5  A    between atoms: C_26  and  C_29
REMARK                            x       y       z     vdW  Elec       q    Type
REMARK                         _______ _______ _______ _____ _____    ______ ____
ROOT
ATOM      2  O   UNL     1      -8.641 -10.608   7.030  0.00  0.00    -0.276 OA
ATOM      5  N   UNL     1      -4.850 -10.161  10.347  0.00  0.00    -0.312 N 
ATOM      7  N   UNL     1      -6.790  -9.863   8.220  0.00  0.00    -0.299 N 
ATOM      8  N   UNL     1      -2.617 -10.229  11.114  0.00  0.00    -0.240 NA
ATOM     19  C   UNL     1      -6.138 -10.857  10.393  0.00  0.00    +0.125 C 
ATOM     20  C   UNL     1      -4.532  -9.369   9.156  0.00  0.00    +0.125 C 
ATOM     21  C   UNL     1      -6.669 -11.104   8.981  0.00  0.00    +0.126 C 
ATOM     22  C   UNL     1      -5.807  -8.818   8.516  0.00  0.00    +0.126 C 
ATOM     23  C   UNL     1      -3.558 -10.584  13.722  0.00  0.00    +0.027 A 
ATOM     24  C   UNL     1      -3.939 -10.284  11.393  0.00  0.00    +0.122 A 
ATOM     25  C   UNL     1      -4.455 -10.459  12.668  0.00  0.00    +0.055 A 
ATOM     26  C   UNL     1      -7.813  -9.730   7.280  0.00  0.00    +0.213 C 
ATOM     27  C   UNL     1      -2.190 -10.532  13.475  0.00  0.00    +0.031 A 
ATOM     28  C   UNL     1      -1.775 -10.353  12.164  0.00  0.00    +0.113 A 
ATOM     29  C   UNL     1      -7.874  -8.415   6.543  0.00  0.00    +0.109 C 
ENDROOT
BRANCH  23  18
ATOM      1  O   UNL     1      -4.216 -11.399  17.094  0.00  0.00    -0.336 OA
ATOM      4  N   UNL     1      -5.198 -10.181  15.491  0.00  0.00    -0.190 NA
ATOM      6  N   UNL     1      -3.396 -11.509  15.964  0.00  0.00    -0.056 NA
ATOM     17  C   UNL     1      -5.253 -10.600  16.731  0.00  0.00    +0.245 A 
ATOM     18  C   UNL     1      -4.041 -10.765  15.062  0.00  0.00    +0.202 A 
BRANCH  17  13
ATOM      3  N   UNL     1      -7.535 -11.098  17.589  0.00  0.00    -0.291 NA
ATOM     13  C   UNL     1      -6.296 -10.322  17.793  0.00  0.00    +0.146 C 
ATOM     14  C   UNL     1      -8.113 -11.310  18.916  0.00  0.00    +0.085 C 
ATOM     15  C   UNL     1      -5.822 -10.706  19.207  0.00  0.00    +0.030 C 
ATOM     16  C   UNL     1      -6.887 -11.652  19.740  0.00  0.00    +0.017 C 
BRANCH   3  12
ATOM     12  C   UNL     1      -8.474 -10.453  16.680  0.00  0.00    +0.088 C 
BRANCH  12   9
ATOM      9  C   UNL     1      -8.573  -8.987  16.950  0.00  0.00    +0.003 C 
ATOM     10  C   UNL     1      -9.501  -8.149  16.121  0.00  0.00    +0.005 C 
ATOM     11  C   UNL     1      -9.831  -8.437  17.556  0.00  0.00    +0.005 C 
ENDBRANCH  12   9
ENDBRANCH   3  12
ENDBRANCH  17  13
ENDBRANCH  23  18
TORSDOF 4
ENDMDL
MODEL 9
REMARK VINA RESULT:      -6.6     29.968     33.513
REMARK  Name = 51136834
REMARK  5 active torsions:
REMARK  status: ('A' for Active; 'I' for Inactive)
REMARK    1  A    between atoms: N_3  and  C_12
REMARK    2  A    between atoms: C_9  and  C_12
REMARK    3  A    between atoms: C_13  and  C_17
REMARK    4  A    between atoms: C_18  and  C_23
REMARK    5  A    between atoms: C_26  and  C_29
REMARK                            x       y       z     vdW  Elec       q    Type
REMARK                         _______ _______ _______ _____ _____    ______ ____
ROOT
ATOM      2  O   UNL     1      21.627  10.374  27.308  0.00  0.00    -0.276 OA
ATOM      5  N   UNL     1      20.932   7.021  23.586  0.00  0.00    -0.312 N 
ATOM      7  N   UNL     1      21.466   8.419  26.064  0.00  0.00    -0.299 N 
ATOM      8  N   UNL     1      21.554   5.485  21.903  0.00  0.00    -0.240 NA
ATOM     19  C   UNL     1      20.411   8.370  23.824  0.00  0.00    +0.125 C 
ATOM     20  C   UNL     1      21.799   6.424  24.605  0.00  0.00    +0.125 C 
ATOM     21  C   UNL     1      21.308   9.131  24.798  0.00  0.00    +0.126 C 
ATOM     22  C   UNL     1      21.448   6.955  25.995  0.00  0.00    +0.126 C 
ATOM     23  C   UNL     1      19.104   5.934  20.634  0.00  0.00    +0.027 A 
ATOM     24  C   UNL     1      20.638   6.344  22.405  0.00  0.00    +0.122 A 
ATOM     25  C   UNL     1      19.411   6.601  21.814  0.00  0.00    +0.055 A 
ATOM     26  C   UNL     1      21.612   9.143  27.248  0.00  0.00    +0.213 C 
ATOM     27  C   UNL     1      20.020   5.042  20.087  0.00  0.00    +0.031 A 
ATOM     28  C   UNL     1      21.220   4.855  20.755  0.00  0.00    +0.113 A 
ATOM     29  C   UNL     1      21.762   8.332  28.511  0.00  0.00    +0.109 C 
ENDROOT
BRANCH  23  18
ATOM      1  O   UNL     1      16.216   6.050  18.606  0.00  0.00    -0.336 OA
ATOM      4  N   UNL     1      16.939   7.061  20.469  0.00  0.00    -0.190 NA
ATOM      6  N   UNL     1      17.484   5.517  18.870  0.00  0.00    -0.056 NA
ATOM     17  C   UNL     1      15.972   6.950  19.594  0.00  0.00    +0.245 A 
ATOM     18  C   UNL     1      17.844   6.162  19.983  0.00  0.00    +0.202 A 
BRANCH  17  13
ATOM      3  N   UNL     1      13.881   7.363  18.309  0.00  0.00    -0.291 NA
ATOM     13  C   UNL     1      14.643   7.674  19.535  0.00  0.00    +0.146 C 
ATOM     14  C   UNL     1      12.467   7.493  18.657  0.00  0.00    +0.085 C 
ATOM     15  C   UNL     1      13.702   7.285  20.690  0.00  0.00    +0.030 C 
ATOM     16  C   UNL     1      12.417   6.825  20.017  0.00  0.00    +0.017 C 
BRANCH   3  12
ATOM     12  C   UNL     1      14.246   8.205  17.177  0.00  0.00    +0.088 C 
BRANCH  12   9
ATOM      9  C   UNL     1      13.404   9.438  17.123  0.00  0.00    +0.003 C 
ATOM     10  C   UNL     1      14.056  10.780  17.285  0.00  0.00    +0.005 C 
ATOM     11  C   UNL     1      13.528  10.359  15.945  0.00  0.00    +0.005 C 
ENDBRANCH  12   9
ENDBRANCH   3  12
ENDBRANCH  17  13
ENDBRANCH  23  18
TORSDOF 4
ENDMDL
MODEL 10
REMARK VINA RESULT:      -6.6     23.822     28.767
REMARK  Name = 51136834
REMARK  5 active torsions:
REMARK  status: ('A' for Active; 'I' for Inactive)
REMARK    1  A    between atoms: N_3  and  C_12
REMARK    2  A    between atoms: C_9  and  C_12
REMARK    3  A    between atoms: C_13  and  C_17
REMARK    4  A    between atoms: C_18  and  C_23
REMARK    5  A    between atoms: C_26  and  C_29
REMARK                            x       y       z     vdW  Elec       q    Type
REMARK                         _______ _______ _______ _____ _____    ______ ____
ROOT
ATOM      2  O   UNL     1      -7.140 -10.313  18.738  0.00  0.00    -0.276 OA
ATOM      5  N   UNL     1      -4.442 -10.572  14.468  0.00  0.00    -0.312 N 
ATOM      7  N   UNL     1      -5.696 -10.981  17.045  0.00  0.00    -0.299 N 
ATOM      8  N   UNL     1      -2.519 -10.434  13.103  0.00  0.00    -0.240 NA
ATOM     19  C   UNL     1      -5.697  -9.900  14.816  0.00  0.00    +0.125 C 
ATOM     20  C   UNL     1      -3.792 -11.398  15.489  0.00  0.00    +0.125 C 
ATOM     21  C   UNL     1      -5.807  -9.713  16.328  0.00  0.00    +0.126 C 
ATOM     22  C   UNL     1      -4.827 -11.995  16.442  0.00  0.00    +0.126 C 
ATOM     23  C   UNL     1      -4.165 -10.010  10.884  0.00  0.00    +0.027 A 
ATOM     24  C   UNL     1      -3.866 -10.395  13.212  0.00  0.00    +0.122 A 
ATOM     25  C   UNL     1      -4.725 -10.188  12.144  0.00  0.00    +0.055 A 
ATOM     26  C   UNL     1      -6.409 -11.166  18.230  0.00  0.00    +0.213 C 
ATOM     27  C   UNL     1      -2.783 -10.043  10.732  0.00  0.00    +0.031 A 
ATOM     28  C   UNL     1      -2.012 -10.258  11.863  0.00  0.00    +0.113 A 
ATOM     29  C   UNL     1      -6.246 -12.506  18.903  0.00  0.00    +0.109 C 
ENDROOT
BRANCH  23  18
ATOM      1  O   UNL     1      -6.641  -9.185   8.505  0.00  0.00    -0.336 OA
ATOM      4  N   UNL     1      -4.658 -10.227   8.499  0.00  0.00    -0.190 NA
ATOM      6  N   UNL     1      -6.184  -9.160   9.828  0.00  0.00    -0.056 NA
ATOM     17  C   UNL     1      -5.684  -9.831   7.788  0.00  0.00    +0.245 A 
ATOM     18  C   UNL     1      -5.011  -9.793   9.743  0.00  0.00    +0.202 A 
BRANCH  17  13
ATOM      3  N   UNL     1      -6.571 -11.287   5.975  0.00  0.00    -0.291 NA
ATOM     13  C   UNL     1      -5.944  -9.991   6.305  0.00  0.00    +0.146 C 
ATOM     14  C   UNL     1      -7.378 -11.063   4.776  0.00  0.00    +0.085 C 
ATOM     15  C   UNL     1      -6.919  -8.934   5.755  0.00  0.00    +0.030 C 
ATOM     16  C   UNL     1      -8.028  -9.728   5.081  0.00  0.00    +0.017 C 
BRANCH   3  12
ATOM     12  C   UNL     1      -5.605 -12.363   5.792  0.00  0.00    +0.088 C 
BRANCH  12   9
ATOM      9  C   UNL     1      -4.504 -11.953   4.869  0.00  0.00    +0.003 C 
ATOM     10  C   UNL     1      -3.114 -12.465   5.111  0.00  0.00    +0.005 C 
ATOM     11  C   UNL     1      -3.907 -12.972   3.943  0.00  0.00    +0.005 C 
ENDBRANCH  12   9
ENDBRANCH   3  12
ENDBRANCH  17  13
ENDBRANCH  23  18
TORSDOF 4
ENDMDL
