MODEL 1
REMARK VINA RESULT:      -7.3      0.000      0.000
REMARK  Name = 45360991
REMARK  6 active torsions:
REMARK  status: ('A' for Active; 'I' for Inactive)
REMARK    1  A    between atoms: N_3  and  C_16
REMARK    2  A    between atoms: N_6  and  C_19
REMARK    3  A    between atoms: C_11  and  C_15
REMARK    4  A    between atoms: C_15  and  C_17
REMARK    5  A    between atoms: C_17  and  C_18
REMARK    6  A    between atoms: C_19  and  C_20
REMARK                            x       y       z     vdW  Elec       q    Type
REMARK                         _______ _______ _______ _____ _____    ______ ____
ROOT
ATOM      1  O   UNL     1      11.544   6.086  21.766  0.00  0.00    -0.274 OA
ATOM      3  N   UNL     1      13.388   9.031  19.993  0.00  0.00    -0.296 NA
ATOM      4  N   UNL     1      10.444   8.515  22.095  0.00  0.00    -0.304 NA
ATOM      5  N   UNL     1      12.163   6.439  19.591  0.00  0.00    -0.312 N 
ATOM      8  C   UNL     1      12.043   9.390  20.490  0.00  0.00    +0.084 C 
ATOM      9  C   UNL     1      11.033   8.245  20.775  0.00  0.00    +0.158 C 
ATOM     10  C   UNL     1      12.054  10.145  21.832  0.00  0.00    +0.036 C 
ATOM     11  C   UNL     1      13.397   8.373  18.657  0.00  0.00    +0.074 C 
ATOM     12  C   UNL     1      10.658   9.928  22.372  0.00  0.00    +0.083 C 
ATOM     13  C   UNL     1      12.297   7.315  18.444  0.00  0.00    +0.123 C 
ATOM     14  C   UNL     1      11.603   6.834  20.791  0.00  0.00    +0.232 C 
ATOM     16  C   UNL     1      14.275  10.207  19.987  0.00  0.00    +0.105 C 
ATOM     25  H   UNL     1      10.947   7.977  22.803  0.00  0.00    +0.123 HD
ATOM     26  H   UNL     1      12.543   5.499  19.526  0.00  0.00    +0.149 HD
ENDROOT
BRANCH  11  15
ATOM     15  C   UNL     1      14.758   7.688  18.405  0.00  0.00    +0.029 C 
BRANCH  15  17
ATOM     17  C   UNL     1      15.354   7.185  19.706  0.00  0.00    +0.097 C 
BRANCH  17  18
ATOM      2  O   UNL     1      16.755   5.565  18.575  0.00  0.00    -0.276 OA
ATOM      6  N   UNL     1      17.620   6.742  20.380  0.00  0.00    -0.311 N 
ATOM     18  C   UNL     1      16.632   6.399  19.469  0.00  0.00    +0.213 C 
ATOM     27  H   UNL     1      17.421   7.431  21.099  0.00  0.00    +0.149 HD
BRANCH   6  19
ATOM     19  C   UNL     1      18.928   6.132  20.363  0.00  0.00    +0.141 C 
BRANCH  19  20
ATOM      7  N   UNL     1      21.452   5.828  23.163  0.00  0.00    -0.263 NA
ATOM     20  C   UNL     1      19.713   6.451  21.603  0.00  0.00    -0.012 A 
ATOM     21  C   UNL     1      19.461   7.606  22.334  0.00  0.00    +0.008 A 
ATOM     22  C   UNL     1      20.711   5.602  22.055  0.00  0.00    +0.115 A 
ATOM     23  C   UNL     1      20.203   7.874  23.479  0.00  0.00    +0.020 A 
ATOM     24  C   UNL     1      21.178   6.961  23.848  0.00  0.00    +0.111 A 
ENDBRANCH  19  20
ENDBRANCH   6  19
ENDBRANCH  17  18
ENDBRANCH  15  17
ENDBRANCH  11  15
TORSDOF 5
ENDMDL
MODEL 2
REMARK VINA RESULT:      -7.0      1.626      2.174
REMARK  Name = 45360991
REMARK  6 active torsions:
REMARK  status: ('A' for Active; 'I' for Inactive)
REMARK    1  A    between atoms: N_3  and  C_16
REMARK    2  A    between atoms: N_6  and  C_19
REMARK    3  A    between atoms: C_11  and  C_15
REMARK    4  A    between atoms: C_15  and  C_17
REMARK    5  A    between atoms: C_17  and  C_18
REMARK    6  A    between atoms: C_19  and  C_20
REMARK                            x       y       z     vdW  Elec       q    Type
REMARK                         _______ _______ _______ _____ _____    ______ ____
ROOT
ATOM      1  O   UNL     1      11.303   5.760  21.711  0.00  0.00    -0.274 OA
ATOM      3  N   UNL     1      13.559   8.653  20.385  0.00  0.00    -0.296 NA
ATOM      4  N   UNL     1      10.387   8.246  22.154  0.00  0.00    -0.304 NA
ATOM      5  N   UNL     1      12.163   6.228  19.642  0.00  0.00    -0.312 N 
ATOM      8  C   UNL     1      12.206   9.095  20.788  0.00  0.00    +0.084 C 
ATOM      9  C   UNL     1      11.079   8.031  20.875  0.00  0.00    +0.158 C 
ATOM     10  C   UNL     1      12.148   9.734  22.187  0.00  0.00    +0.036 C 
ATOM     11  C   UNL     1      13.645   8.107  19.003  0.00  0.00    +0.074 C 
ATOM     12  C   UNL     1      10.693   9.606  22.575  0.00  0.00    +0.083 C 
ATOM     13  C   UNL     1      12.485   7.178  18.596  0.00  0.00    +0.123 C 
ATOM     14  C   UNL     1      11.522   6.576  20.816  0.00  0.00    +0.232 C 
ATOM     16  C   UNL     1      14.539   9.737  20.567  0.00  0.00    +0.105 C 
ATOM     25  H   UNL     1      10.769   7.608  22.854  0.00  0.00    +0.123 HD
ATOM     26  H   UNL     1      12.465   5.266  19.529  0.00  0.00    +0.149 HD
ENDROOT
BRANCH  11  15
ATOM     15  C   UNL     1      14.960   7.321  18.817  0.00  0.00    +0.029 C 
BRANCH  15  17
ATOM     17  C   UNL     1      15.354   6.621  20.103  0.00  0.00    +0.097 C 
BRANCH  17  18
ATOM      2  O   UNL     1      17.583   5.946  19.442  0.00  0.00    -0.276 OA
ATOM      6  N   UNL     1      17.306   7.170  21.396  0.00  0.00    -0.311 N 
ATOM     18  C   UNL     1      16.862   6.526  20.250  0.00  0.00    +0.213 C 
ATOM     27  H   UNL     1      16.633   7.609  22.017  0.00  0.00    +0.149 HD
BRANCH   6  19
ATOM     19  C   UNL     1      18.703   7.220  21.759  0.00  0.00    +0.141 C 
BRANCH  19  20
ATOM      7  N   UNL     1      19.001  10.891  20.904  0.00  0.00    -0.263 NA
ATOM     20  C   UNL     1      19.312   8.560  21.467  0.00  0.00    -0.012 A 
ATOM     21  C   UNL     1      20.691   8.738  21.474  0.00  0.00    +0.008 A 
ATOM     22  C   UNL     1      18.518   9.659  21.178  0.00  0.00    +0.115 A 
ATOM     23  C   UNL     1      21.226   9.991  21.197  0.00  0.00    +0.020 A 
ATOM     24  C   UNL     1      20.346  11.025  20.921  0.00  0.00    +0.111 A 
ENDBRANCH  19  20
ENDBRANCH   6  19
ENDBRANCH  17  18
ENDBRANCH  15  17
ENDBRANCH  11  15
TORSDOF 5
ENDMDL
MODEL 3
REMARK VINA RESULT:      -6.8     26.083     28.231
REMARK  Name = 45360991
REMARK  6 active torsions:
REMARK  status: ('A' for Active; 'I' for Inactive)
REMARK    1  A    between atoms: N_3  and  C_16
REMARK    2  A    between atoms: N_6  and  C_19
REMARK    3  A    between atoms: C_11  and  C_15
REMARK    4  A    between atoms: C_15  and  C_17
REMARK    5  A    between atoms: C_17  and  C_18
REMARK    6  A    between atoms: C_19  and  C_20
REMARK                            x       y       z     vdW  Elec       q    Type
REMARK                         _______ _______ _______ _____ _____    ______ ____
ROOT
ATOM      1  O   UNL     1      -8.585 -11.285  15.551  0.00  0.00    -0.274 OA
ATOM      3  N   UNL     1      -5.504 -11.417  17.939  0.00  0.00    -0.296 NA
ATOM      4  N   UNL     1      -9.083 -10.708  18.127  0.00  0.00    -0.304 NA
ATOM      5  N   UNL     1      -6.545 -10.248  15.504  0.00  0.00    -0.312 N 
ATOM      8  C   UNL     1      -6.692 -10.776  18.542  0.00  0.00    +0.084 C 
ATOM      9  C   UNL     1      -7.797 -10.234  17.596  0.00  0.00    +0.158 C 
ATOM     10  C   UNL     1      -7.497 -11.702  19.473  0.00  0.00    +0.036 C 
ATOM     11  C   UNL     1      -4.671 -10.510  17.103  0.00  0.00    +0.074 C 
ATOM     12  C   UNL     1      -8.862 -11.053  19.523  0.00  0.00    +0.083 C 
ATOM     13  C   UNL     1      -5.463  -9.562  16.182  0.00  0.00    +0.123 C 
ATOM     14  C   UNL     1      -7.702 -10.661  16.138  0.00  0.00    +0.232 C 
ATOM     16  C   UNL     1      -4.675 -12.060  18.974  0.00  0.00    +0.105 C 
ATOM     25  H   UNL     1      -9.358 -11.558  17.633  0.00  0.00    +0.123 HD
ATOM     26  H   UNL     1      -6.427 -10.481  14.523  0.00  0.00    +0.149 HD
ENDROOT
BRANCH  11  15
ATOM     15  C   UNL     1      -3.712 -11.330  16.214  0.00  0.00    +0.029 C 
BRANCH  15  17
ATOM     17  C   UNL     1      -2.326 -10.713  16.206  0.00  0.00    +0.097 C 
BRANCH  17  18
ATOM      2  O   UNL     1      -1.033  -9.542  14.527  0.00  0.00    -0.276 OA
ATOM      6  N   UNL     1      -2.453 -11.257  13.867  0.00  0.00    -0.311 N 
ATOM     18  C   UNL     1      -1.851 -10.419  14.794  0.00  0.00    +0.213 C 
ATOM     27  H   UNL     1      -3.134 -11.944  14.180  0.00  0.00    +0.149 HD
BRANCH   6  19
ATOM     19  C   UNL     1      -2.167 -11.175  12.455  0.00  0.00    +0.141 C 
BRANCH  19  20
ATOM      7  N   UNL     1      -5.378  -9.364  11.615  0.00  0.00    -0.263 NA
ATOM     20  C   UNL     1      -3.155 -10.309  11.730  0.00  0.00    -0.012 A 
ATOM     21  C   UNL     1      -2.813  -9.666  10.546  0.00  0.00    +0.008 A 
ATOM     22  C   UNL     1      -4.439 -10.128  12.218  0.00  0.00    +0.115 A 
ATOM     23  C   UNL     1      -3.751  -8.871   9.896  0.00  0.00    +0.020 A 
ATOM     24  C   UNL     1      -5.008  -8.755  10.466  0.00  0.00    +0.111 A 
ENDBRANCH  19  20
ENDBRANCH   6  19
ENDBRANCH  17  18
ENDBRANCH  15  17
ENDBRANCH  11  15
TORSDOF 5
ENDMDL
MODEL 4
REMARK VINA RESULT:      -6.6     26.402     28.382
REMARK  Name = 45360991
REMARK  6 active torsions:
REMARK  status: ('A' for Active; 'I' for Inactive)
REMARK    1  A    between atoms: N_3  and  C_16
REMARK    2  A    between atoms: N_6  and  C_19
REMARK    3  A    between atoms: C_11  and  C_15
REMARK    4  A    between atoms: C_15  and  C_17
REMARK    5  A    between atoms: C_17  and  C_18
REMARK    6  A    between atoms: C_19  and  C_20
REMARK                            x       y       z     vdW  Elec       q    Type
REMARK                         _______ _______ _______ _____ _____    ______ ____
ROOT
ATOM      1  O   UNL     1      -6.292 -10.596  20.467  0.00  0.00    -0.274 OA
ATOM      3  N   UNL     1      -6.264 -10.720  16.569  0.00  0.00    -0.296 NA
ATOM      4  N   UNL     1      -8.414 -11.785  19.325  0.00  0.00    -0.304 NA
ATOM      5  N   UNL     1      -4.774 -11.399  18.955  0.00  0.00    -0.312 N 
ATOM      8  C   UNL     1      -7.293 -11.589  17.180  0.00  0.00    +0.084 C 
ATOM      9  C   UNL     1      -7.118 -12.004  18.666  0.00  0.00    +0.158 C 
ATOM     10  C   UNL     1      -8.706 -10.977  17.185  0.00  0.00    +0.036 C 
ATOM     11  C   UNL     1      -4.910 -11.332  16.483  0.00  0.00    +0.074 C 
ATOM     12  C   UNL     1      -9.420 -11.745  18.274  0.00  0.00    +0.083 C 
ATOM     13  C   UNL     1      -4.469 -12.117  17.734  0.00  0.00    +0.123 C 
ATOM     14  C   UNL     1      -6.054 -11.251  19.453  0.00  0.00    +0.232 C 
ATOM     16  C   UNL     1      -6.697 -10.253  15.240  0.00  0.00    +0.105 C 
ATOM     25  H   UNL     1      -8.406 -10.874  19.787  0.00  0.00    +0.123 HD
ATOM     26  H   UNL     1      -4.013 -10.940  19.447  0.00  0.00    +0.149 HD
ENDROOT
BRANCH  11  15
ATOM     15  C   UNL     1      -3.846 -10.246  16.215  0.00  0.00    +0.029 C 
BRANCH  15  17
ATOM     17  C   UNL     1      -2.456 -10.851  16.192  0.00  0.00    +0.097 C 
BRANCH  17  18
ATOM      2  O   UNL     1      -1.516 -12.341  14.531  0.00  0.00    -0.276 OA
ATOM      6  N   UNL     1      -2.347 -10.280  13.858  0.00  0.00    -0.311 N 
ATOM     18  C   UNL     1      -2.047 -11.264  14.789  0.00  0.00    +0.213 C 
ATOM     27  H   UNL     1      -2.772  -9.410  14.168  0.00  0.00    +0.149 HD
BRANCH   6  19
ATOM     19  C   UNL     1      -2.055 -10.435  12.453  0.00  0.00    +0.141 C 
BRANCH  19  20
ATOM      7  N   UNL     1      -3.895  -8.934   9.510  0.00  0.00    -0.263 NA
ATOM     20  C   UNL     1      -3.179  -9.941  11.588  0.00  0.00    -0.012 A 
ATOM     21  C   UNL     1      -4.499 -10.013  12.017  0.00  0.00    +0.008 A 
ATOM     22  C   UNL     1      -2.932  -9.398  10.337  0.00  0.00    +0.115 A 
ATOM     23  C   UNL     1      -5.518  -9.547  11.194  0.00  0.00    +0.020 A 
ATOM     24  C   UNL     1      -5.167  -9.020   9.962  0.00  0.00    +0.111 A 
ENDBRANCH  19  20
ENDBRANCH   6  19
ENDBRANCH  17  18
ENDBRANCH  15  17
ENDBRANCH  11  15
TORSDOF 5
ENDMDL
MODEL 5
REMARK VINA RESULT:      -6.5     26.486     29.043
REMARK  Name = 45360991
REMARK  6 active torsions:
REMARK  status: ('A' for Active; 'I' for Inactive)
REMARK    1  A    between atoms: N_3  and  C_16
REMARK    2  A    between atoms: N_6  and  C_19
REMARK    3  A    between atoms: C_11  and  C_15
REMARK    4  A    between atoms: C_15  and  C_17
REMARK    5  A    between atoms: C_17  and  C_18
REMARK    6  A    between atoms: C_19  and  C_20
REMARK                            x       y       z     vdW  Elec       q    Type
REMARK                         _______ _______ _______ _____ _____    ______ ____
ROOT
ATOM      1  O   UNL     1      -1.317 -12.969  13.751  0.00  0.00    -0.274 OA
ATOM      3  N   UNL     1      -4.538 -10.911  14.527  0.00  0.00    -0.296 NA
ATOM      4  N   UNL     1      -1.911 -11.029  11.990  0.00  0.00    -0.304 NA
ATOM      5  N   UNL     1      -1.991 -11.785  15.590  0.00  0.00    -0.312 N 
ATOM      8  C   UNL     1      -3.690 -10.308  13.477  0.00  0.00    +0.084 C 
ATOM      9  C   UNL     1      -2.198 -10.732  13.401  0.00  0.00    +0.158 C 
ATOM     10  C   UNL     1      -4.174 -10.590  12.043  0.00  0.00    +0.036 C 
ATOM     11  C   UNL     1      -4.129 -10.578  15.919  0.00  0.00    +0.074 C 
ATOM     12  C   UNL     1      -2.938 -10.365  11.202  0.00  0.00    +0.083 C 
ATOM     13  C   UNL     1      -2.610 -10.615  16.178  0.00  0.00    +0.123 C 
ATOM     14  C   UNL     1      -1.801 -11.944  14.230  0.00  0.00    +0.232 C 
ATOM     16  C   UNL     1      -5.955 -10.567  14.317  0.00  0.00    +0.105 C 
ATOM     25  H   UNL     1      -1.997 -12.034  11.835  0.00  0.00    +0.123 HD
ATOM     26  H   UNL     1      -1.726 -12.550  16.203  0.00  0.00    +0.149 HD
ENDROOT
BRANCH  11  15
ATOM     15  C   UNL     1      -4.796 -11.544  16.921  0.00  0.00    +0.029 C 
BRANCH  15  17
ATOM     17  C   UNL     1      -4.891 -10.912  18.296  0.00  0.00    +0.097 C 
BRANCH  17  18
ATOM      2  O   UNL     1      -6.659 -10.487  19.894  0.00  0.00    -0.276 OA
ATOM      6  N   UNL     1      -7.216 -10.918  17.681  0.00  0.00    -0.311 N 
ATOM     18  C   UNL     1      -6.334 -10.744  18.738  0.00  0.00    +0.213 C 
ATOM     27  H   UNL     1      -6.855 -11.146  16.760  0.00  0.00    +0.149 HD
BRANCH   6  19
ATOM     19  C   UNL     1      -8.646 -10.809  17.847  0.00  0.00    +0.141 C 
BRANCH  19  20
ATOM      7  N   UNL     1      -9.665  -8.650  14.914  0.00  0.00    -0.263 NA
ATOM     20  C   UNL     1      -9.216  -9.662  17.063  0.00  0.00    -0.012 A 
ATOM     21  C   UNL     1      -9.803  -8.577  17.705  0.00  0.00    +0.008 A 
ATOM     22  C   UNL     1      -9.173  -9.651  15.678  0.00  0.00    +0.115 A 
ATOM     23  C   UNL     1     -10.321  -7.529  16.952  0.00  0.00    +0.020 A 
ATOM     24  C   UNL     1     -10.228  -7.612  15.573  0.00  0.00    +0.111 A 
ENDBRANCH  19  20
ENDBRANCH   6  19
ENDBRANCH  17  18
ENDBRANCH  15  17
ENDBRANCH  11  15
TORSDOF 5
ENDMDL
MODEL 6
REMARK VINA RESULT:      -6.5     26.495     28.404
REMARK  Name = 45360991
REMARK  6 active torsions:
REMARK  status: ('A' for Active; 'I' for Inactive)
REMARK    1  A    between atoms: N_3  and  C_16
REMARK    2  A    between atoms: N_6  and  C_19
REMARK    3  A    between atoms: C_11  and  C_15
REMARK    4  A    between atoms: C_15  and  C_17
REMARK    5  A    between atoms: C_17  and  C_18
REMARK    6  A    between atoms: C_19  and  C_20
REMARK                            x       y       z     vdW  Elec       q    Type
REMARK                         _______ _______ _______ _____ _____    ______ ____
ROOT
ATOM      1  O   UNL     1      -4.975 -10.991   7.828  0.00  0.00    -0.274 OA
ATOM      3  N   UNL     1      -5.658  -9.832  11.489  0.00  0.00    -0.296 NA
ATOM      4  N   UNL     1      -6.502  -8.796   8.088  0.00  0.00    -0.304 NA
ATOM      5  N   UNL     1      -3.586 -10.477   9.573  0.00  0.00    -0.312 N 
ATOM      8  C   UNL     1      -6.037  -8.829  10.471  0.00  0.00    +0.084 C 
ATOM      9  C   UNL     1      -5.406  -8.939   9.057  0.00  0.00    +0.158 C 
ATOM     10  C   UNL     1      -7.542  -8.806  10.146  0.00  0.00    +0.036 C 
ATOM     11  C   UNL     1      -4.220  -9.810  11.873  0.00  0.00    +0.074 C 
ATOM     12  C   UNL     1      -7.601  -8.146   8.787  0.00  0.00    +0.083 C 
ATOM     13  C   UNL     1      -3.235  -9.637  10.700  0.00  0.00    +0.123 C 
ATOM     14  C   UNL     1      -4.669 -10.235   8.749  0.00  0.00    +0.232 C 
ATOM     16  C   UNL     1      -6.507  -9.708  12.687  0.00  0.00    +0.105 C 
ATOM     25  H   UNL     1      -6.818  -9.723   7.800  0.00  0.00    +0.123 HD
ATOM     26  H   UNL     1      -3.037 -11.315   9.408  0.00  0.00    +0.149 HD
ENDROOT
BRANCH  11  15
ATOM     15  C   UNL     1      -3.841 -11.110  12.612  0.00  0.00    +0.029 C 
BRANCH  15  17
ATOM     17  C   UNL     1      -2.386 -11.082  13.038  0.00  0.00    +0.097 C 
BRANCH  17  18
ATOM      2  O   UNL     1      -1.327  -9.943  14.894  0.00  0.00    -0.276 OA
ATOM      6  N   UNL     1      -3.241 -11.198  15.283  0.00  0.00    -0.311 N 
ATOM     18  C   UNL     1      -2.235 -10.665  14.490  0.00  0.00    +0.213 C 
ATOM     27  H   UNL     1      -3.943 -11.802  14.863  0.00  0.00    +0.149 HD
BRANCH   6  19
ATOM     19  C   UNL     1      -3.317 -10.948  16.702  0.00  0.00    +0.141 C 
BRANCH  19  20
ATOM      7  N   UNL     1      -6.776  -9.424  16.586  0.00  0.00    -0.263 NA
ATOM     20  C   UNL     1      -4.696 -10.532  17.126  0.00  0.00    -0.012 A 
ATOM     21  C   UNL     1      -5.179 -10.837  18.394  0.00  0.00    +0.008 A 
ATOM     22  C   UNL     1      -5.527  -9.830  16.267  0.00  0.00    +0.115 A 
ATOM     23  C   UNL     1      -6.460 -10.437  18.759  0.00  0.00    +0.020 A 
ATOM     24  C   UNL     1      -7.211  -9.739  17.827  0.00  0.00    +0.111 A 
ENDBRANCH  19  20
ENDBRANCH   6  19
ENDBRANCH  17  18
ENDBRANCH  15  17
ENDBRANCH  11  15
TORSDOF 5
ENDMDL
MODEL 7
REMARK VINA RESULT:      -6.5     26.244     29.205
REMARK  Name = 45360991
REMARK  6 active torsions:
REMARK  status: ('A' for Active; 'I' for Inactive)
REMARK    1  A    between atoms: N_3  and  C_16
REMARK    2  A    between atoms: N_6  and  C_19
REMARK    3  A    between atoms: C_11  and  C_15
REMARK    4  A    between atoms: C_15  and  C_17
REMARK    5  A    between atoms: C_17  and  C_18
REMARK    6  A    between atoms: C_19  and  C_20
REMARK                            x       y       z     vdW  Elec       q    Type
REMARK                         _______ _______ _______ _____ _____    ______ ____
ROOT
ATOM      1  O   UNL     1      -6.046  -9.505  13.320  0.00  0.00    -0.274 OA
ATOM      3  N   UNL     1      -3.146 -10.821  15.573  0.00  0.00    -0.296 NA
ATOM      4  N   UNL     1      -3.918 -10.500  12.016  0.00  0.00    -0.304 NA
ATOM      5  N   UNL     1      -5.978 -11.041  15.016  0.00  0.00    -0.312 N 
ATOM      8  C   UNL     1      -3.019 -11.218  14.154  0.00  0.00    +0.084 C 
ATOM      9  C   UNL     1      -4.290 -11.184  13.263  0.00  0.00    +0.158 C 
ATOM     10  C   UNL     1      -2.041 -10.344  13.346  0.00  0.00    +0.036 C 
ATOM     11  C   UNL     1      -4.024 -11.707  16.386  0.00  0.00    +0.074 C 
ATOM     12  C   UNL     1      -2.468 -10.568  11.913  0.00  0.00    +0.083 C 
ATOM     13  C   UNL     1      -5.328 -12.146  15.691  0.00  0.00    +0.123 C 
ATOM     14  C   UNL     1      -5.503 -10.475  13.848  0.00  0.00    +0.232 C 
ATOM     16  C   UNL     1      -1.820 -10.702  16.203  0.00  0.00    +0.105 C 
ATOM     25  H   UNL     1      -4.182  -9.516  12.082  0.00  0.00    +0.123 HD
ATOM     26  H   UNL     1      -6.799 -10.629  15.448  0.00  0.00    +0.149 HD
ENDROOT
BRANCH  11  15
ATOM     15  C   UNL     1      -4.412 -11.011  17.708  0.00  0.00    +0.029 C 
BRANCH  15  17
ATOM     17  C   UNL     1      -4.850 -12.030  18.742  0.00  0.00    +0.097 C 
BRANCH  17  18
ATOM      2  O   UNL     1      -6.047 -11.123  20.642  0.00  0.00    -0.276 OA
ATOM      6  N   UNL     1      -7.234 -11.714  18.735  0.00  0.00    -0.311 N 
ATOM     18  C   UNL     1      -6.084 -11.568  19.497  0.00  0.00    +0.213 C 
ATOM     27  H   UNL     1      -7.170 -12.109  17.801  0.00  0.00    +0.149 HD
BRANCH   6  19
ATOM     19  C   UNL     1      -8.538 -11.345  19.232  0.00  0.00    +0.141 C 
BRANCH  19  20
ATOM      7  N   UNL     1      -8.893  -8.487  16.780  0.00  0.00    -0.263 NA
ATOM     20  C   UNL     1      -9.159 -10.246  18.418  0.00  0.00    -0.012 A 
ATOM     21  C   UNL     1     -10.514  -9.953  18.524  0.00  0.00    +0.008 A 
ATOM     22  C   UNL     1      -8.398  -9.491  17.539  0.00  0.00    +0.115 A 
ATOM     23  C   UNL     1     -11.059  -8.928  17.759  0.00  0.00    +0.020 A 
ATOM     24  C   UNL     1     -10.214  -8.231  16.911  0.00  0.00    +0.111 A 
ENDBRANCH  19  20
ENDBRANCH   6  19
ENDBRANCH  17  18
ENDBRANCH  15  17
ENDBRANCH  11  15
TORSDOF 5
ENDMDL
MODEL 8
REMARK VINA RESULT:      -6.4      2.334      8.284
REMARK  Name = 45360991
REMARK  6 active torsions:
REMARK  status: ('A' for Active; 'I' for Inactive)
REMARK    1  A    between atoms: N_3  and  C_16
REMARK    2  A    between atoms: N_6  and  C_19
REMARK    3  A    between atoms: C_11  and  C_15
REMARK    4  A    between atoms: C_15  and  C_17
REMARK    5  A    between atoms: C_17  and  C_18
REMARK    6  A    between atoms: C_19  and  C_20
REMARK                            x       y       z     vdW  Elec       q    Type
REMARK                         _______ _______ _______ _____ _____    ______ ____
ROOT
ATOM      1  O   UNL     1      20.347   6.551  24.412  0.00  0.00    -0.274 OA
ATOM      3  N   UNL     1      18.766   6.597  20.846  0.00  0.00    -0.296 NA
ATOM      4  N   UNL     1      21.876   5.541  22.447  0.00  0.00    -0.304 NA
ATOM      5  N   UNL     1      19.460   8.229  23.134  0.00  0.00    -0.312 N 
ATOM      8  C   UNL     1      20.214   6.297  20.847  0.00  0.00    +0.084 C 
ATOM      9  C   UNL     1      21.050   6.704  22.090  0.00  0.00    +0.158 C 
ATOM     10  C   UNL     1      20.542   4.798  20.720  0.00  0.00    +0.036 C 
ATOM     11  C   UNL     1      18.436   8.048  20.886  0.00  0.00    +0.074 C 
ATOM     12  C   UNL     1      21.949   4.696  21.264  0.00  0.00    +0.083 C 
ATOM     13  C   UNL     1      19.295   8.886  21.852  0.00  0.00    +0.123 C 
ATOM     14  C   UNL     1      20.261   7.120  23.324  0.00  0.00    +0.232 C 
ATOM     16  C   UNL     1      18.099   5.954  19.700  0.00  0.00    +0.105 C 
ATOM     25  H   UNL     1      21.409   5.011  23.184  0.00  0.00    +0.123 HD
ATOM     26  H   UNL     1      18.923   8.573  23.924  0.00  0.00    +0.149 HD
ENDROOT
BRANCH  11  15
ATOM     15  C   UNL     1      16.958   8.252  21.280  0.00  0.00    +0.029 C 
BRANCH  15  17
ATOM     17  C   UNL     1      16.584   9.721  21.225  0.00  0.00    +0.097 C 
BRANCH  17  18
ATOM      2  O   UNL     1      14.494  10.915  20.960  0.00  0.00    -0.276 OA
ATOM      6  N   UNL     1      14.755   8.850  19.928  0.00  0.00    -0.311 N 
ATOM     18  C   UNL     1      15.171   9.921  20.708  0.00  0.00    +0.213 C 
ATOM     27  H   UNL     1      15.378   8.060  19.789  0.00  0.00    +0.149 HD
BRANCH   6  19
ATOM     19  C   UNL     1      13.446   8.803  19.321  0.00  0.00    +0.141 C 
BRANCH  19  20
ATOM      7  N   UNL     1      10.518   8.577  21.704  0.00  0.00    -0.263 NA
ATOM     20  C   UNL     1      12.417   8.225  20.248  0.00  0.00    -0.012 A 
ATOM     21  C   UNL     1      12.384   6.863  20.524  0.00  0.00    +0.008 A 
ATOM     22  C   UNL     1      11.470   9.033  20.858  0.00  0.00    +0.115 A 
ATOM     23  C   UNL     1      11.420   6.356  21.388  0.00  0.00    +0.020 A 
ATOM     24  C   UNL     1      10.519   7.248  21.948  0.00  0.00    +0.111 A 
ENDBRANCH  19  20
ENDBRANCH   6  19
ENDBRANCH  17  18
ENDBRANCH  15  17
ENDBRANCH  11  15
TORSDOF 5
ENDMDL
MODEL 9
REMARK VINA RESULT:      -6.1     26.199     29.543
REMARK  Name = 45360991
REMARK  6 active torsions:
REMARK  status: ('A' for Active; 'I' for Inactive)
REMARK    1  A    between atoms: N_3  and  C_16
REMARK    2  A    between atoms: N_6  and  C_19
REMARK    3  A    between atoms: C_11  and  C_15
REMARK    4  A    between atoms: C_15  and  C_17
REMARK    5  A    between atoms: C_17  and  C_18
REMARK    6  A    between atoms: C_19  and  C_20
REMARK                            x       y       z     vdW  Elec       q    Type
REMARK                         _______ _______ _______ _____ _____    ______ ____
ROOT
ATOM      1  O   UNL     1     -10.796   7.685  14.135  0.00  0.00    -0.274 OA
ATOM      3  N   UNL     1     -12.617   9.157  17.255  0.00  0.00    -0.296 NA
ATOM      4  N   UNL     1     -11.508  10.270  13.956  0.00  0.00    -0.304 NA
ATOM      5  N   UNL     1     -10.233   7.785  16.351  0.00  0.00    -0.312 N 
ATOM      8  C   UNL     1     -12.174  10.185  16.289  0.00  0.00    +0.084 C 
ATOM      9  C   UNL     1     -11.055   9.814  15.278  0.00  0.00    +0.158 C 
ATOM     10  C   UNL     1     -13.291  10.689  15.356  0.00  0.00    +0.036 C 
ATOM     11  C   UNL     1     -11.568   8.720  18.217  0.00  0.00    +0.074 C 
ATOM     12  C   UNL     1     -12.535  11.274  14.184  0.00  0.00    +0.083 C 
ATOM     13  C   UNL     1     -10.169   8.510  17.605  0.00  0.00    +0.123 C 
ATOM     14  C   UNL     1     -10.706   8.336  15.176  0.00  0.00    +0.232 C 
ATOM     16  C   UNL     1     -13.819   9.603  17.980  0.00  0.00    +0.105 C 
ATOM     25  H   UNL     1     -11.938   9.487  13.461  0.00  0.00    +0.123 HD
ATOM     26  H   UNL     1      -9.961   6.807  16.346  0.00  0.00    +0.149 HD
ENDROOT
BRANCH  11  15
ATOM     15  C   UNL     1     -11.982   7.399  18.899  0.00  0.00    +0.029 C 
BRANCH  15  17
ATOM     17  C   UNL     1     -11.691   7.449  20.387  0.00  0.00    +0.097 C 
BRANCH  17  18
ATOM      2  O   UNL     1     -12.563   5.633  21.730  0.00  0.00    -0.276 OA
ATOM      6  N   UNL     1     -13.944   7.433  21.231  0.00  0.00    -0.311 N 
ATOM     18  C   UNL     1     -12.754   6.720  21.190  0.00  0.00    +0.213 C 
ATOM     27  H   UNL     1     -14.014   8.318  20.738  0.00  0.00    +0.149 HD
BRANCH   6  19
ATOM     19  C   UNL     1     -15.107   6.948  21.934  0.00  0.00    +0.141 C 
BRANCH  19  20
ATOM      7  N   UNL     1     -17.505   4.262  20.778  0.00  0.00    -0.263 NA
ATOM     20  C   UNL     1     -16.007   6.141  21.043  0.00  0.00    -0.012 A 
ATOM     21  C   UNL     1     -16.185   6.481  19.707  0.00  0.00    +0.008 A 
ATOM     22  C   UNL     1     -16.683   5.032  21.526  0.00  0.00    +0.115 A 
ATOM     23  C   UNL     1     -17.023   5.714  18.906  0.00  0.00    +0.020 A 
ATOM     24  C   UNL     1     -17.653   4.624  19.484  0.00  0.00    +0.111 A 
ENDBRANCH  19  20
ENDBRANCH   6  19
ENDBRANCH  17  18
ENDBRANCH  15  17
ENDBRANCH  11  15
TORSDOF 5
ENDMDL
MODEL 10
REMARK VINA RESULT:      -5.9     26.604     28.556
REMARK  Name = 45360991
REMARK  6 active torsions:
REMARK  status: ('A' for Active; 'I' for Inactive)
REMARK    1  A    between atoms: N_3  and  C_16
REMARK    2  A    between atoms: N_6  and  C_19
REMARK    3  A    between atoms: C_11  and  C_15
REMARK    4  A    between atoms: C_15  and  C_17
REMARK    5  A    between atoms: C_17  and  C_18
REMARK    6  A    between atoms: C_19  and  C_20
REMARK                            x       y       z     vdW  Elec       q    Type
REMARK                         _______ _______ _______ _____ _____    ______ ____
ROOT
ATOM      1  O   UNL     1      -6.642 -11.585  13.431  0.00  0.00    -0.274 OA
ATOM      3  N   UNL     1      -3.916 -10.287  10.962  0.00  0.00    -0.296 NA
ATOM      4  N   UNL     1      -7.544 -10.704  11.059  0.00  0.00    -0.304 NA
ATOM      5  N   UNL     1      -4.742 -12.539  12.582  0.00  0.00    -0.312 N 
ATOM      8  C   UNL     1      -5.238 -10.485  10.331  0.00  0.00    +0.084 C 
ATOM      9  C   UNL     1      -6.259 -11.418  11.037  0.00  0.00    +0.158 C 
ATOM     10  C   UNL     1      -6.053  -9.188  10.168  0.00  0.00    +0.036 C 
ATOM     11  C   UNL     1      -3.084 -11.518  11.052  0.00  0.00    +0.074 C 
ATOM     12  C   UNL     1      -7.476  -9.680  10.028  0.00  0.00    +0.083 C 
ATOM     13  C   UNL     1      -3.845 -12.790  11.472  0.00  0.00    +0.123 C 
ATOM     14  C   UNL     1      -5.921 -11.827  12.464  0.00  0.00    +0.232 C 
ATOM     16  C   UNL     1      -3.167  -9.215  10.283  0.00  0.00    +0.105 C 
ATOM     25  H   UNL     1      -7.653 -10.236  11.960  0.00  0.00    +0.123 HD
ATOM     26  H   UNL     1      -4.469 -12.861  13.505  0.00  0.00    +0.149 HD
ENDROOT
BRANCH  11  15
ATOM     15  C   UNL     1      -1.928 -11.314  12.054  0.00  0.00    +0.029 C 
BRANCH  15  17
ATOM     17  C   UNL     1      -2.314 -10.305  13.120  0.00  0.00    +0.097 C 
BRANCH  17  18
ATOM      2  O   UNL     1      -1.610 -11.863  14.835  0.00  0.00    -0.276 OA
ATOM      6  N   UNL     1      -3.284 -10.328  15.321  0.00  0.00    -0.311 N 
ATOM     18  C   UNL     1      -2.341 -10.934  14.502  0.00  0.00    +0.213 C 
ATOM     27  H   UNL     1      -3.858  -9.575  14.952  0.00  0.00    +0.149 HD
BRANCH   6  19
ATOM     19  C   UNL     1      -3.501 -10.747  16.685  0.00  0.00    +0.141 C 
BRANCH  19  20
ATOM      7  N   UNL     1      -7.031  -9.390  16.719  0.00  0.00    -0.263 NA
ATOM     20  C   UNL     1      -4.885 -10.413  17.162  0.00  0.00    -0.012 A 
ATOM     21  C   UNL     1      -5.315 -10.783  18.431  0.00  0.00    +0.008 A 
ATOM     22  C   UNL     1      -5.773  -9.724  16.351  0.00  0.00    +0.115 A 
ATOM     23  C   UNL     1      -6.602 -10.458  18.845  0.00  0.00    +0.020 A 
ATOM     24  C   UNL     1      -7.413  -9.767  17.960  0.00  0.00    +0.111 A 
ENDBRANCH  19  20
ENDBRANCH   6  19
ENDBRANCH  17  18
ENDBRANCH  15  17
ENDBRANCH  11  15
TORSDOF 5
ENDMDL
