MODEL 1
REMARK VINA RESULT:      -8.3      0.000      0.000
REMARK  Name = 26763461
REMARK  5 active torsions:
REMARK  status: ('A' for Active; 'I' for Inactive)
REMARK    1  A    between atoms: N_4  and  C_11
REMARK    2  A    between atoms: N_5  and  C_12
REMARK    3  A    between atoms: N_8  and  C_25
REMARK    4  A    between atoms: C_15  and  C_18
REMARK    5  A    between atoms: C_18  and  C_22
REMARK                            x       y       z     vdW  Elec       q    Type
REMARK                         _______ _______ _______ _____ _____    ______ ____
ROOT
ATOM      1  O   UNL     1     -15.944   3.772  22.749  0.00  0.00    -0.370 OA
ATOM      2  O   UNL     1     -17.293   5.801  24.704  0.00  0.00    -0.370 OA
ATOM      9  C   UNL     1     -16.010   5.763  24.052  0.00  0.00    +0.175 C 
ATOM     10  C   UNL     1     -15.565   4.313  24.025  0.00  0.00    +0.171 C 
ATOM     11  C   UNL     1     -16.157   6.145  22.589  0.00  0.00    +0.166 C 
ATOM     12  C   UNL     1     -16.365   3.660  25.130  0.00  0.00    +0.131 C 
ATOM     13  C   UNL     1     -16.526   4.810  21.948  0.00  0.00    +0.190 C 
ATOM     14  C   UNL     1     -17.643   4.477  25.132  0.00  0.00    +0.185 C 
ENDROOT
BRANCH  12   5
ATOM      3  O   UNL     1     -16.669   1.912  27.379  0.00  0.00    -0.252 OA
ATOM      5  N   UNL     1     -15.680   3.756  26.396  0.00  0.00    -0.292 N 
ATOM      8  N   UNL     1     -15.089   3.198  28.545  0.00  0.00    -0.269 N 
ATOM     24  C   UNL     1     -15.886   2.857  27.449  0.00  0.00    +0.304 C 
ATOM     31  H   UNL     1     -14.967   4.471  26.507  0.00  0.00    +0.151 HD
ATOM     32  H   UNL     1     -14.494   4.016  28.439  0.00  0.00    +0.156 HD
BRANCH   8  25
ATOM     25  C   UNL     1     -15.007   2.543  29.796  0.00  0.00    +0.035 A 
ATOM     26  C   UNL     1     -15.359   3.223  30.962  0.00  0.00    +0.023 A 
ATOM     27  C   UNL     1     -14.574   1.219  29.864  0.00  0.00    +0.023 A 
ATOM     28  C   UNL     1     -15.278   2.578  32.196  0.00  0.00    +0.002 A 
ATOM     29  C   UNL     1     -14.493   0.575  31.098  0.00  0.00    +0.002 A 
ATOM     30  C   UNL     1     -14.845   1.254  32.264  0.00  0.00    +0.000 A 
ENDBRANCH   8  25
ENDBRANCH  12   5
BRANCH  11   4
ATOM      4  N   UNL     1     -14.895   6.799  22.059  0.00  0.00    -0.244 N 
ATOM      6  N   UNL     1     -14.746   8.133  22.094  0.00  0.00    -0.065 NA
ATOM      7  N   UNL     1     -13.560   8.412  21.564  0.00  0.00    -0.134 NA
ATOM     19  C   UNL     1     -13.811   6.187  21.507  0.00  0.00    +0.134 A 
ATOM     22  C   UNL     1     -12.974   7.231  21.200  0.00  0.00    +0.083 A 
BRANCH  22  18
ATOM     18  C   UNL     1     -11.612   7.199  20.562  0.00  0.00    +0.062 C 
BRANCH  18  15
ATOM     15  C   UNL     1     -11.509   8.191  19.407  0.00  0.00    -0.005 C 
ATOM     16  C   UNL     1     -10.496   9.298  19.731  0.00  0.00    +0.004 C 
ATOM     17  C   UNL     1     -11.132   7.471  18.105  0.00  0.00    +0.004 C 
ATOM     20  C   UNL     1     -10.335  10.274  18.569  0.00  0.00    +0.000 C 
ATOM     21  C   UNL     1     -10.969   8.450  16.945  0.00  0.00    +0.000 C 
ATOM     23  C   UNL     1      -9.968   9.553  17.275  0.00  0.00    +0.000 C 
ENDBRANCH  18  15
ENDBRANCH  22  18
ENDBRANCH  11   4
TORSDOF 5
ENDMDL
MODEL 2
REMARK VINA RESULT:      -8.3      2.372     10.371
REMARK  Name = 26763461
REMARK  5 active torsions:
REMARK  status: ('A' for Active; 'I' for Inactive)
REMARK    1  A    between atoms: N_4  and  C_11
REMARK    2  A    between atoms: N_5  and  C_12
REMARK    3  A    between atoms: N_8  and  C_25
REMARK    4  A    between atoms: C_15  and  C_18
REMARK    5  A    between atoms: C_18  and  C_22
REMARK                            x       y       z     vdW  Elec       q    Type
REMARK                         _______ _______ _______ _____ _____    ______ ____
ROOT
ATOM      1  O   UNL     1     -17.786   2.976  26.862  0.00  0.00    -0.370 OA
ATOM      2  O   UNL     1     -16.921   0.470  25.211  0.00  0.00    -0.370 OA
ATOM      9  C   UNL     1     -16.256   1.276  26.201  0.00  0.00    +0.175 C 
ATOM     10  C   UNL     1     -16.689   2.712  25.972  0.00  0.00    +0.171 C 
ATOM     11  C   UNL     1     -16.779   0.936  27.586  0.00  0.00    +0.166 C 
ATOM     12  C   UNL     1     -17.162   2.730  24.536  0.00  0.00    +0.131 C 
ATOM     13  C   UNL     1     -18.015   1.825  27.686  0.00  0.00    +0.190 C 
ATOM     14  C   UNL     1     -17.690   1.320  24.349  0.00  0.00    +0.185 C 
ENDROOT
BRANCH  12   5
ATOM      3  O   UNL     1     -16.319   5.304  23.602  0.00  0.00    -0.252 OA
ATOM      5  N   UNL     1     -16.073   3.005  23.631  0.00  0.00    -0.292 N 
ATOM      8  N   UNL     1     -14.634   4.255  22.349  0.00  0.00    -0.269 N 
ATOM     24  C   UNL     1     -15.724   4.298  23.222  0.00  0.00    +0.304 C 
ATOM     31  H   UNL     1     -15.490   2.231  23.327  0.00  0.00    +0.151 HD
ATOM     32  H   UNL     1     -14.257   3.335  22.134  0.00  0.00    +0.156 HD
BRANCH   8  25
ATOM     25  C   UNL     1     -13.985   5.342  21.717  0.00  0.00    +0.035 A 
ATOM     26  C   UNL     1     -14.728   6.268  20.986  0.00  0.00    +0.023 A 
ATOM     27  C   UNL     1     -12.602   5.487  21.825  0.00  0.00    +0.023 A 
ATOM     28  C   UNL     1     -14.089   7.339  20.362  0.00  0.00    +0.002 A 
ATOM     29  C   UNL     1     -11.963   6.559  21.202  0.00  0.00    +0.002 A 
ATOM     30  C   UNL     1     -12.706   7.484  20.470  0.00  0.00    +0.000 A 
ENDBRANCH   8  25
ENDBRANCH  12   5
BRANCH  11   4
ATOM      4  N   UNL     1     -15.720   1.165  28.648  0.00  0.00    -0.244 N 
ATOM      6  N   UNL     1     -15.036   0.134  29.169  0.00  0.00    -0.065 NA
ATOM      7  N   UNL     1     -14.193   0.633  30.067  0.00  0.00    -0.134 NA
ATOM     19  C   UNL     1     -15.335   2.351  29.196  0.00  0.00    +0.134 A 
ATOM     22  C   UNL     1     -14.363   1.989  30.095  0.00  0.00    +0.083 A 
BRANCH  22  18
ATOM     18  C   UNL     1     -13.552   2.860  31.016  0.00  0.00    +0.062 C 
BRANCH  18  15
ATOM     15  C   UNL     1     -14.429   3.873  31.748  0.00  0.00    -0.005 C 
ATOM     16  C   UNL     1     -15.379   3.163  32.722  0.00  0.00    +0.004 C 
ATOM     17  C   UNL     1     -13.564   4.905  32.484  0.00  0.00    +0.004 C 
ATOM     20  C   UNL     1     -16.230   4.159  33.506  0.00  0.00    +0.000 C 
ATOM     21  C   UNL     1     -14.418   5.898  33.270  0.00  0.00    +0.000 C 
ATOM     23  C   UNL     1     -15.367   5.189  34.230  0.00  0.00    +0.000 C 
ENDBRANCH  18  15
ENDBRANCH  22  18
ENDBRANCH  11   4
TORSDOF 5
ENDMDL
MODEL 3
REMARK VINA RESULT:      -7.8     16.318     17.571
REMARK  Name = 26763461
REMARK  5 active torsions:
REMARK  status: ('A' for Active; 'I' for Inactive)
REMARK    1  A    between atoms: N_4  and  C_11
REMARK    2  A    between atoms: N_5  and  C_12
REMARK    3  A    between atoms: N_8  and  C_25
REMARK    4  A    between atoms: C_15  and  C_18
REMARK    5  A    between atoms: C_18  and  C_22
REMARK                            x       y       z     vdW  Elec       q    Type
REMARK                         _______ _______ _______ _____ _____    ______ ____
ROOT
ATOM      1  O   UNL     1     -12.652  -7.981  13.924  0.00  0.00    -0.370 OA
ATOM      2  O   UNL     1     -11.788  -6.105  16.267  0.00  0.00    -0.370 OA
ATOM      9  C   UNL     1     -11.566  -6.073  14.845  0.00  0.00    +0.175 C 
ATOM     10  C   UNL     1     -11.378  -7.508  14.390  0.00  0.00    +0.171 C 
ATOM     11  C   UNL     1     -12.824  -5.608  14.132  0.00  0.00    +0.166 C 
ATOM     12  C   UNL     1     -10.973  -8.244  15.647  0.00  0.00    +0.131 C 
ATOM     13  C   UNL     1     -13.605  -6.911  13.984  0.00  0.00    +0.190 C 
ATOM     14  C   UNL     1     -11.692  -7.460  16.729  0.00  0.00    +0.185 C 
ENDROOT
BRANCH  12   5
ATOM      3  O   UNL     1      -9.338 -10.319  16.755  0.00  0.00    -0.252 OA
ATOM      5  N   UNL     1      -9.544  -8.207  15.836  0.00  0.00    -0.292 N 
ATOM      8  N   UNL     1      -7.457  -8.949  16.446  0.00  0.00    -0.269 N 
ATOM     24  C   UNL     1      -8.816  -9.269  16.387  0.00  0.00    +0.304 C 
ATOM     31  H   UNL     1      -9.031  -7.400  15.494  0.00  0.00    +0.151 HD
ATOM     32  H   UNL     1      -7.188  -8.031  16.100  0.00  0.00    +0.156 HD
BRANCH   8  25
ATOM     25  C   UNL     1      -6.397  -9.749  16.935  0.00  0.00    +0.035 A 
ATOM     26  C   UNL     1      -5.276  -9.981  16.139  0.00  0.00    +0.023 A 
ATOM     27  C   UNL     1      -6.475 -10.306  18.211  0.00  0.00    +0.023 A 
ATOM     28  C   UNL     1      -4.231 -10.770  16.620  0.00  0.00    +0.002 A 
ATOM     29  C   UNL     1      -5.430 -11.094  18.692  0.00  0.00    +0.002 A 
ATOM     30  C   UNL     1      -4.308 -11.327  17.896  0.00  0.00    +0.000 A 
ENDBRANCH   8  25
ENDBRANCH  12   5
BRANCH  11   4
ATOM      4  N   UNL     1     -12.493  -4.894  12.835  0.00  0.00    -0.244 N 
ATOM      6  N   UNL     1     -12.378  -3.556  12.798  0.00  0.00    -0.065 NA
ATOM      7  N   UNL     1     -12.091  -3.219  11.545  0.00  0.00    -0.134 NA
ATOM     19  C   UNL     1     -12.283  -5.450  11.610  0.00  0.00    +0.134 A 
ATOM     22  C   UNL     1     -12.029  -4.368  10.805  0.00  0.00    +0.083 A 
BRANCH  22  18
ATOM     18  C   UNL     1     -11.722  -4.332   9.333  0.00  0.00    +0.062 C 
BRANCH  18  15
ATOM     15  C   UNL     1     -10.778  -5.462   8.928  0.00  0.00    -0.005 C 
ATOM     16  C   UNL     1     -11.341  -6.234   7.727  0.00  0.00    +0.004 C 
ATOM     17  C   UNL     1      -9.378  -4.915   8.618  0.00  0.00    +0.004 C 
ATOM     20  C   UNL     1     -10.389  -7.337   7.269  0.00  0.00    +0.000 C 
ATOM     21  C   UNL     1      -8.430  -6.019   8.158  0.00  0.00    +0.000 C 
ATOM     23  C   UNL     1      -8.996  -6.789   6.970  0.00  0.00    +0.000 C 
ENDBRANCH  18  15
ENDBRANCH  22  18
ENDBRANCH  11   4
TORSDOF 5
ENDMDL
MODEL 4
REMARK VINA RESULT:      -7.2     19.075     20.573
REMARK  Name = 26763461
REMARK  5 active torsions:
REMARK  status: ('A' for Active; 'I' for Inactive)
REMARK    1  A    between atoms: N_4  and  C_11
REMARK    2  A    between atoms: N_5  and  C_12
REMARK    3  A    between atoms: N_8  and  C_25
REMARK    4  A    between atoms: C_15  and  C_18
REMARK    5  A    between atoms: C_18  and  C_22
REMARK                            x       y       z     vdW  Elec       q    Type
REMARK                         _______ _______ _______ _____ _____    ______ ____
ROOT
ATOM      1  O   UNL     1      -4.965 -10.296  17.952  0.00  0.00    -0.370 OA
ATOM      2  O   UNL     1      -6.436 -12.733  16.667  0.00  0.00    -0.370 OA
ATOM      9  C   UNL     1      -5.608 -11.686  16.129  0.00  0.00    +0.175 C 
ATOM     10  C   UNL     1      -5.934 -10.420  16.899  0.00  0.00    +0.171 C 
ATOM     11  C   UNL     1      -4.148 -11.960  16.446  0.00  0.00    +0.166 C 
ATOM     12  C   UNL     1      -7.306 -10.682  17.477  0.00  0.00    +0.131 C 
ATOM     13  C   UNL     1      -4.008 -11.359  17.842  0.00  0.00    +0.190 C 
ATOM     14  C   UNL     1      -7.293 -12.185  17.679  0.00  0.00    +0.185 C 
ENDROOT
BRANCH  12   5
ATOM      3  O   UNL     1      -9.133  -8.498  17.790  0.00  0.00    -0.252 OA
ATOM      5  N   UNL     1      -8.345 -10.287  16.557  0.00  0.00    -0.292 N 
ATOM      8  N   UNL     1     -10.100  -9.059  15.726  0.00  0.00    -0.269 N 
ATOM     24  C   UNL     1      -9.199  -9.201  16.785  0.00  0.00    +0.304 C 
ATOM     31  H   UNL     1      -8.418 -10.778  15.670  0.00  0.00    +0.151 HD
ATOM     32  H   UNL     1     -10.021  -9.731  14.966  0.00  0.00    +0.156 HD
BRANCH   8  25
ATOM     25  C   UNL     1     -11.119  -8.089  15.578  0.00  0.00    +0.035 A 
ATOM     26  C   UNL     1     -10.788  -6.775  15.248  0.00  0.00    +0.023 A 
ATOM     27  C   UNL     1     -12.454  -8.447  15.764  0.00  0.00    +0.023 A 
ATOM     28  C   UNL     1     -11.792  -5.819  15.103  0.00  0.00    +0.002 A 
ATOM     29  C   UNL     1     -13.459  -7.490  15.618  0.00  0.00    +0.002 A 
ATOM     30  C   UNL     1     -13.128  -6.176  15.288  0.00  0.00    +0.000 A 
ENDBRANCH   8  25
ENDBRANCH  12   5
BRANCH  11   4
ATOM      4  N   UNL     1      -3.233 -11.376  15.387  0.00  0.00    -0.244 N 
ATOM      6  N   UNL     1      -2.094 -10.753  15.731  0.00  0.00    -0.065 NA
ATOM      7  N   UNL     1      -1.512 -10.346  14.608  0.00  0.00    -0.134 NA
ATOM     19  C   UNL     1      -3.412 -11.385  14.037  0.00  0.00    +0.134 A 
ATOM     22  C   UNL     1      -2.306 -10.726  13.562  0.00  0.00    +0.083 A 
BRANCH  22  18
ATOM     18  C   UNL     1      -1.927 -10.413  12.140  0.00  0.00    +0.062 C 
BRANCH  18  15
ATOM     15  C   UNL     1      -3.157 -10.288  11.245  0.00  0.00    -0.005 C 
ATOM     16  C   UNL     1      -2.982  -9.142  10.239  0.00  0.00    +0.004 C 
ATOM     17  C   UNL     1      -3.437 -11.612  10.520  0.00  0.00    +0.004 C 
ATOM     20  C   UNL     1      -4.177  -9.031   9.297  0.00  0.00    +0.000 C 
ATOM     21  C   UNL     1      -4.632 -11.497   9.576  0.00  0.00    +0.000 C 
ATOM     23  C   UNL     1      -4.457 -10.351   8.584  0.00  0.00    +0.000 C 
ENDBRANCH  18  15
ENDBRANCH  22  18
ENDBRANCH  11   4
TORSDOF 5
ENDMDL
MODEL 5
REMARK VINA RESULT:      -7.2     29.868     34.275
REMARK  Name = 26763461
REMARK  5 active torsions:
REMARK  status: ('A' for Active; 'I' for Inactive)
REMARK    1  A    between atoms: N_4  and  C_11
REMARK    2  A    between atoms: N_5  and  C_12
REMARK    3  A    between atoms: N_8  and  C_25
REMARK    4  A    between atoms: C_15  and  C_18
REMARK    5  A    between atoms: C_18  and  C_22
REMARK                            x       y       z     vdW  Elec       q    Type
REMARK                         _______ _______ _______ _____ _____    ______ ____
ROOT
ATOM      1  O   UNL     1      12.909   5.969  -0.276  0.00  0.00    -0.370 OA
ATOM      2  O   UNL     1      12.769   2.982   0.628  0.00  0.00    -0.370 OA
ATOM      9  C   UNL     1      11.828   3.864  -0.011  0.00  0.00    +0.175 C 
ATOM     10  C   UNL     1      12.026   5.242   0.593  0.00  0.00    +0.171 C 
ATOM     11  C   UNL     1      12.187   4.035  -1.477  0.00  0.00    +0.166 C 
ATOM     12  C   UNL     1      12.700   4.970   1.919  0.00  0.00    +0.131 C 
ATOM     13  C   UNL     1      13.213   5.163  -1.423  0.00  0.00    +0.190 C 
ATOM     14  C   UNL     1      13.495   3.712   1.628  0.00  0.00    +0.185 C 
ENDROOT
BRANCH  12   5
ATOM      3  O   UNL     1      11.968   6.799   4.000  0.00  0.00    -0.252 OA
ATOM      5  N   UNL     1      11.729   4.747   2.962  0.00  0.00    -0.292 N 
ATOM      8  N   UNL     1      10.453   5.203   4.818  0.00  0.00    -0.269 N 
ATOM     24  C   UNL     1      11.428   5.697   3.946  0.00  0.00    +0.304 C 
ATOM     31  H   UNL     1      11.190   3.886   2.945  0.00  0.00    +0.151 HD
ATOM     32  H   UNL     1      10.109   4.264   4.633  0.00  0.00    +0.156 HD
BRANCH   8  25
ATOM     25  C   UNL     1       9.883   5.852   5.938  0.00  0.00    +0.035 A 
ATOM     26  C   UNL     1      10.244   5.462   7.227  0.00  0.00    +0.023 A 
ATOM     27  C   UNL     1       8.959   6.880   5.753  0.00  0.00    +0.023 A 
ATOM     28  C   UNL     1       9.682   6.100   8.332  0.00  0.00    +0.002 A 
ATOM     29  C   UNL     1       8.396   7.518   6.858  0.00  0.00    +0.002 A 
ATOM     30  C   UNL     1       8.758   7.128   8.148  0.00  0.00    +0.000 A 
ENDBRANCH   8  25
ENDBRANCH  12   5
BRANCH  11   4
ATOM      4  N   UNL     1      10.956   4.310  -2.319  0.00  0.00    -0.244 N 
ATOM      6  N   UNL     1      10.119   3.316  -2.657  0.00  0.00    -0.065 NA
ATOM      7  N   UNL     1       9.148   3.849  -3.390  0.00  0.00    -0.134 NA
ATOM     19  C   UNL     1      10.546   5.505  -2.827  0.00  0.00    +0.134 A 
ATOM     22  C   UNL     1       9.394   5.190  -3.504  0.00  0.00    +0.083 A 
BRANCH  22  18
ATOM     18  C   UNL     1       8.474   6.090  -4.281  0.00  0.00    +0.062 C 
BRANCH  18  15
ATOM     15  C   UNL     1       7.010   5.836  -3.930  0.00  0.00    -0.005 C 
ATOM     16  C   UNL     1       6.469   6.950  -3.023  0.00  0.00    +0.004 C 
ATOM     17  C   UNL     1       6.162   5.708  -5.202  0.00  0.00    +0.004 C 
ATOM     20  C   UNL     1       4.991   6.747  -2.701  0.00  0.00    +0.000 C 
ATOM     21  C   UNL     1       4.684   5.507  -4.877  0.00  0.00    +0.000 C 
ATOM     23  C   UNL     1       4.152   6.611  -3.969  0.00  0.00    +0.000 C 
ENDBRANCH  18  15
ENDBRANCH  22  18
ENDBRANCH  11   4
TORSDOF 5
ENDMDL
MODEL 6
REMARK VINA RESULT:      -7.2      2.112     10.550
REMARK  Name = 26763461
REMARK  5 active torsions:
REMARK  status: ('A' for Active; 'I' for Inactive)
REMARK    1  A    between atoms: N_4  and  C_11
REMARK    2  A    between atoms: N_5  and  C_12
REMARK    3  A    between atoms: N_8  and  C_25
REMARK    4  A    between atoms: C_15  and  C_18
REMARK    5  A    between atoms: C_18  and  C_22
REMARK                            x       y       z     vdW  Elec       q    Type
REMARK                         _______ _______ _______ _____ _____    ______ ____
ROOT
ATOM      1  O   UNL     1     -18.183   4.148  25.910  0.00  0.00    -0.370 OA
ATOM      2  O   UNL     1     -15.822   2.458  24.757  0.00  0.00    -0.370 OA
ATOM      9  C   UNL     1     -15.965   3.282  25.928  0.00  0.00    +0.175 C 
ATOM     10  C   UNL     1     -16.831   4.465  25.540  0.00  0.00    +0.171 C 
ATOM     11  C   UNL     1     -16.773   2.548  26.986  0.00  0.00    +0.166 C 
ATOM     12  C   UNL     1     -16.702   4.538  24.035  0.00  0.00    +0.131 C 
ATOM     13  C   UNL     1     -18.205   2.877  26.575  0.00  0.00    +0.190 C 
ATOM     14  C   UNL     1     -16.494   3.084  23.655  0.00  0.00    +0.185 C 
ENDROOT
BRANCH  12   5
ATOM      3  O   UNL     1     -15.849   5.120  21.363  0.00  0.00    -0.252 OA
ATOM      5  N   UNL     1     -15.573   5.347  23.647  0.00  0.00    -0.292 N 
ATOM      8  N   UNL     1     -14.089   6.400  22.243  0.00  0.00    -0.269 N 
ATOM     24  C   UNL     1     -15.222   5.584  22.312  0.00  0.00    +0.304 C 
ATOM     31  H   UNL     1     -15.045   5.822  24.374  0.00  0.00    +0.151 HD
ATOM     32  H   UNL     1     -13.688   6.699  23.129  0.00  0.00    +0.156 HD
BRANCH   8  25
ATOM     25  C   UNL     1     -13.424   6.864  21.084  0.00  0.00    +0.035 A 
ATOM     26  C   UNL     1     -14.121   7.605  20.131  0.00  0.00    +0.023 A 
ATOM     27  C   UNL     1     -12.072   6.580  20.895  0.00  0.00    +0.023 A 
ATOM     28  C   UNL     1     -13.466   8.063  18.988  0.00  0.00    +0.002 A 
ATOM     29  C   UNL     1     -11.416   7.038  19.752  0.00  0.00    +0.002 A 
ATOM     30  C   UNL     1     -12.114   7.779  18.799  0.00  0.00    +0.000 A 
ENDBRANCH   8  25
ENDBRANCH  12   5
BRANCH  11   4
ATOM      4  N   UNL     1     -16.377   2.982  28.384  0.00  0.00    -0.244 N 
ATOM      6  N   UNL     1     -15.114   2.839  28.816  0.00  0.00    -0.065 NA
ATOM      7  N   UNL     1     -15.068   3.295  30.063  0.00  0.00    -0.134 NA
ATOM     19  C   UNL     1     -17.175   3.533  29.341  0.00  0.00    +0.134 A 
ATOM     22  C   UNL     1     -16.322   3.724  30.399  0.00  0.00    +0.083 A 
BRANCH  22  18
ATOM     18  C   UNL     1     -16.612   4.302  31.758  0.00  0.00    +0.062 C 
BRANCH  18  15
ATOM     15  C   UNL     1     -15.335   4.761  32.457  0.00  0.00    -0.005 C 
ATOM     16  C   UNL     1     -15.015   6.219  32.099  0.00  0.00    +0.004 C 
ATOM     17  C   UNL     1     -15.457   4.586  33.977  0.00  0.00    +0.004 C 
ATOM     20  C   UNL     1     -13.771   6.718  32.829  0.00  0.00    +0.000 C 
ATOM     21  C   UNL     1     -14.212   5.089  34.704  0.00  0.00    +0.000 C 
ATOM     23  C   UNL     1     -13.893   6.535  34.340  0.00  0.00    +0.000 C 
ENDBRANCH  18  15
ENDBRANCH  22  18
ENDBRANCH  11   4
TORSDOF 5
ENDMDL
MODEL 7
REMARK VINA RESULT:      -7.2      1.590     10.453
REMARK  Name = 26763461
REMARK  5 active torsions:
REMARK  status: ('A' for Active; 'I' for Inactive)
REMARK    1  A    between atoms: N_4  and  C_11
REMARK    2  A    between atoms: N_5  and  C_12
REMARK    3  A    between atoms: N_8  and  C_25
REMARK    4  A    between atoms: C_15  and  C_18
REMARK    5  A    between atoms: C_18  and  C_22
REMARK                            x       y       z     vdW  Elec       q    Type
REMARK                         _______ _______ _______ _____ _____    ______ ____
ROOT
ATOM      1  O   UNL     1     -17.585   6.362  23.873  0.00  0.00    -0.370 OA
ATOM      2  O   UNL     1     -16.298   4.059  22.202  0.00  0.00    -0.370 OA
ATOM      9  C   UNL     1     -16.103   4.527  23.548  0.00  0.00    +0.175 C 
ATOM     10  C   UNL     1     -16.231   6.038  23.518  0.00  0.00    +0.171 C 
ATOM     11  C   UNL     1     -17.250   4.065  24.431  0.00  0.00    +0.166 C 
ATOM     12  C   UNL     1     -15.964   6.403  22.075  0.00  0.00    +0.131 C 
ATOM     13  C   UNL     1     -18.290   5.156  24.198  0.00  0.00    +0.190 C 
ATOM     14  C   UNL     1     -16.479   5.185  21.332  0.00  0.00    +0.185 C 
ENDROOT
BRANCH  12   5
ATOM      3  O   UNL     1     -14.778   7.817  19.885  0.00  0.00    -0.252 OA
ATOM      5  N   UNL     1     -14.555   6.603  21.839  0.00  0.00    -0.292 N 
ATOM      8  N   UNL     1     -12.658   7.341  20.774  0.00  0.00    -0.269 N 
ATOM     24  C   UNL     1     -14.055   7.310  20.739  0.00  0.00    +0.304 C 
ATOM     31  H   UNL     1     -13.896   6.272  22.538  0.00  0.00    +0.151 HD
ATOM     32  H   UNL     1     -12.210   6.868  21.555  0.00  0.00    +0.156 HD
BRANCH   8  25
ATOM     25  C   UNL     1     -11.781   7.952  19.848  0.00  0.00    +0.035 A 
ATOM     26  C   UNL     1     -11.475   7.308  18.649  0.00  0.00    +0.023 A 
ATOM     27  C   UNL     1     -11.221   9.197  20.133  0.00  0.00    +0.023 A 
ATOM     28  C   UNL     1     -10.609   7.910  17.735  0.00  0.00    +0.002 A 
ATOM     29  C   UNL     1     -10.356   9.799  19.220  0.00  0.00    +0.002 A 
ATOM     30  C   UNL     1     -10.050   9.155  18.021  0.00  0.00    +0.000 A 
ENDBRANCH   8  25
ENDBRANCH  12   5
BRANCH  11   4
ATOM      4  N   UNL     1     -16.802   3.884  25.870  0.00  0.00    -0.244 N 
ATOM      6  N   UNL     1     -16.968   4.867  26.769  0.00  0.00    -0.065 NA
ATOM      7  N   UNL     1     -16.482   4.430  27.926  0.00  0.00    -0.134 NA
ATOM     19  C   UNL     1     -16.206   2.792  26.424  0.00  0.00    +0.134 A 
ATOM     22  C   UNL     1     -16.013   3.161  27.732  0.00  0.00    +0.083 A 
BRANCH  22  18
ATOM     18  C   UNL     1     -15.392   2.377  28.856  0.00  0.00    +0.062 C 
BRANCH  18  15
ATOM     15  C   UNL     1     -14.849   3.294  29.948  0.00  0.00    -0.005 C 
ATOM     16  C   UNL     1     -15.871   3.451  31.083  0.00  0.00    +0.004 C 
ATOM     17  C   UNL     1     -13.513   2.764  30.486  0.00  0.00    +0.004 C 
ATOM     20  C   UNL     1     -15.330   4.322  32.213  0.00  0.00    +0.000 C 
ATOM     21  C   UNL     1     -12.975   3.636  31.619  0.00  0.00    +0.000 C 
ATOM     23  C   UNL     1     -13.997   3.796  32.740  0.00  0.00    +0.000 C 
ENDBRANCH  18  15
ENDBRANCH  22  18
ENDBRANCH  11   4
TORSDOF 5
ENDMDL
MODEL 8
REMARK VINA RESULT:      -7.0     16.693     18.972
REMARK  Name = 26763461
REMARK  5 active torsions:
REMARK  status: ('A' for Active; 'I' for Inactive)
REMARK    1  A    between atoms: N_4  and  C_11
REMARK    2  A    between atoms: N_5  and  C_12
REMARK    3  A    between atoms: N_8  and  C_25
REMARK    4  A    between atoms: C_15  and  C_18
REMARK    5  A    between atoms: C_18  and  C_22
REMARK                            x       y       z     vdW  Elec       q    Type
REMARK                         _______ _______ _______ _____ _____    ______ ____
ROOT
ATOM      1  O   UNL     1     -11.200  -9.855  15.499  0.00  0.00    -0.370 OA
ATOM      2  O   UNL     1      -9.291  -8.065  17.204  0.00  0.00    -0.370 OA
ATOM      9  C   UNL     1     -10.101  -7.814  16.041  0.00  0.00    +0.175 C 
ATOM     10  C   UNL     1     -10.045  -9.062  15.180  0.00  0.00    +0.171 C 
ATOM     11  C   UNL     1     -11.562  -7.690  16.440  0.00  0.00    +0.166 C 
ATOM     12  C   UNL     1      -8.785  -9.766  15.631  0.00  0.00    +0.131 C 
ATOM     13  C   UNL     1     -12.014  -9.147  16.445  0.00  0.00    +0.190 C 
ATOM     14  C   UNL     1      -8.693  -9.364  17.091  0.00  0.00    +0.185 C 
ENDROOT
BRANCH  12   5
ATOM      3  O   UNL     1      -7.829 -10.807  13.140  0.00  0.00    -0.252 OA
ATOM      5  N   UNL     1      -7.637  -9.307  14.888  0.00  0.00    -0.292 N 
ATOM      8  N   UNL     1      -6.095  -9.225  13.187  0.00  0.00    -0.269 N 
ATOM     24  C   UNL     1      -7.235  -9.873  13.672  0.00  0.00    +0.304 C 
ATOM     31  H   UNL     1      -7.134  -8.493  15.229  0.00  0.00    +0.151 HD
ATOM     32  H   UNL     1      -5.725  -8.466  13.754  0.00  0.00    +0.156 HD
BRANCH   8  25
ATOM     25  C   UNL     1      -5.384  -9.498  11.995  0.00  0.00    +0.035 A 
ATOM     26  C   UNL     1      -5.589  -8.706  10.865  0.00  0.00    +0.023 A 
ATOM     27  C   UNL     1      -4.479 -10.558  11.949  0.00  0.00    +0.023 A 
ATOM     28  C   UNL     1      -4.888  -8.974   9.689  0.00  0.00    +0.002 A 
ATOM     29  C   UNL     1      -3.778 -10.826  10.774  0.00  0.00    +0.002 A 
ATOM     30  C   UNL     1      -3.983 -10.034   9.644  0.00  0.00    +0.000 A 
ENDBRANCH   8  25
ENDBRANCH  12   5
BRANCH  11   4
ATOM      4  N   UNL     1     -12.317  -6.774  15.495  0.00  0.00    -0.244 N 
ATOM      6  N   UNL     1     -13.651  -6.860  15.375  0.00  0.00    -0.065 NA
ATOM      7  N   UNL     1     -14.027  -5.949  14.484  0.00  0.00    -0.134 NA
ATOM     19  C   UNL     1     -11.801  -5.807  14.686  0.00  0.00    +0.134 A 
ATOM     22  C   UNL     1     -12.906  -5.295  14.053  0.00  0.00    +0.083 A 
BRANCH  22  18
ATOM     18  C   UNL     1     -12.988  -4.195  13.031  0.00  0.00    +0.062 C 
BRANCH  18  15
ATOM     15  C   UNL     1     -12.082  -4.471  11.833  0.00  0.00    -0.005 C 
ATOM     16  C   UNL     1     -12.510  -5.758  11.116  0.00  0.00    +0.004 C 
ATOM     17  C   UNL     1     -12.085  -3.280  10.865  0.00  0.00    +0.004 C 
ATOM     20  C   UNL     1     -11.652  -6.028   9.882  0.00  0.00    +0.000 C 
ATOM     21  C   UNL     1     -11.228  -3.554   9.632  0.00  0.00    +0.000 C 
ATOM     23  C   UNL     1     -11.650  -4.838   8.926  0.00  0.00    +0.000 C 
ENDBRANCH  18  15
ENDBRANCH  22  18
ENDBRANCH  11   4
TORSDOF 5
ENDMDL
MODEL 9
REMARK VINA RESULT:      -7.0     32.116     33.559
REMARK  Name = 26763461
REMARK  5 active torsions:
REMARK  status: ('A' for Active; 'I' for Inactive)
REMARK    1  A    between atoms: N_4  and  C_11
REMARK    2  A    between atoms: N_5  and  C_12
REMARK    3  A    between atoms: N_8  and  C_25
REMARK    4  A    between atoms: C_15  and  C_18
REMARK    5  A    between atoms: C_18  and  C_22
REMARK                            x       y       z     vdW  Elec       q    Type
REMARK                         _______ _______ _______ _____ _____    ______ ____
ROOT
ATOM      1  O   UNL     1      19.050  -2.605  31.304  0.00  0.00    -0.370 OA
ATOM      2  O   UNL     1      16.003  -2.692  30.624  0.00  0.00    -0.370 OA
ATOM      9  C   UNL     1      17.167  -2.282  29.884  0.00  0.00    +0.175 C 
ATOM     10  C   UNL     1      18.109  -1.612  30.866  0.00  0.00    +0.171 C 
ATOM     11  C   UNL     1      17.930  -3.502  29.396  0.00  0.00    +0.166 C 
ATOM     12  C   UNL     1      17.213  -1.197  32.012  0.00  0.00    +0.131 C 
ATOM     13  C   UNL     1      18.807  -3.831  30.600  0.00  0.00    +0.190 C 
ATOM     14  C   UNL     1      16.138  -2.267  31.988  0.00  0.00    +0.185 C 
ENDROOT
BRANCH  12   5
ATOM      3  O   UNL     1      18.385   1.314  32.736  0.00  0.00    -0.252 OA
ATOM      5  N   UNL     1      16.652   0.113  31.788  0.00  0.00    -0.292 N 
ATOM      8  N   UNL     1      16.516   2.406  31.829  0.00  0.00    -0.269 N 
ATOM     24  C   UNL     1      17.293   1.297  32.174  0.00  0.00    +0.304 C 
ATOM     31  H   UNL     1      15.783   0.184  31.268  0.00  0.00    +0.151 HD
ATOM     32  H   UNL     1      15.629   2.216  31.366  0.00  0.00    +0.156 HD
BRANCH   8  25
ATOM     25  C   UNL     1      16.809   3.773  32.046  0.00  0.00    +0.035 A 
ATOM     26  C   UNL     1      16.921   4.642  30.962  0.00  0.00    +0.023 A 
ATOM     27  C   UNL     1      16.986   4.250  33.345  0.00  0.00    +0.023 A 
ATOM     28  C   UNL     1      17.210   5.990  31.175  0.00  0.00    +0.002 A 
ATOM     29  C   UNL     1      17.276   5.598  33.558  0.00  0.00    +0.002 A 
ATOM     30  C   UNL     1      17.388   6.467  32.473  0.00  0.00    +0.000 A 
ENDBRANCH   8  25
ENDBRANCH  12   5
BRANCH  11   4
ATOM      4  N   UNL     1      18.672  -3.210  28.105  0.00  0.00    -0.244 N 
ATOM      6  N   UNL     1      19.768  -3.910  27.770  0.00  0.00    -0.065 NA
ATOM      7  N   UNL     1      20.199  -3.434  26.607  0.00  0.00    -0.134 NA
ATOM     19  C   UNL     1      18.372  -2.268  27.169  0.00  0.00    +0.134 A 
ATOM     22  C   UNL     1      19.355  -2.429  26.225  0.00  0.00    +0.083 A 
BRANCH  22  18
ATOM     18  C   UNL     1      19.568  -1.675  24.941  0.00  0.00    +0.062 C 
BRANCH  18  15
ATOM     15  C   UNL     1      18.548  -2.075  23.878  0.00  0.00    -0.005 C 
ATOM     16  C   UNL     1      18.003  -3.484  24.152  0.00  0.00    +0.004 C 
ATOM     17  C   UNL     1      17.406  -1.052  23.811  0.00  0.00    +0.004 C 
ATOM     20  C   UNL     1      16.941  -3.886  23.132  0.00  0.00    +0.000 C 
ATOM     21  C   UNL     1      16.343  -1.458  22.792  0.00  0.00    +0.000 C 
ATOM     23  C   UNL     1      15.811  -2.862  23.063  0.00  0.00    +0.000 C 
ENDBRANCH  18  15
ENDBRANCH  22  18
ENDBRANCH  11   4
TORSDOF 5
ENDMDL
MODEL 10
REMARK VINA RESULT:      -7.0      5.076     10.262
REMARK  Name = 26763461
REMARK  5 active torsions:
REMARK  status: ('A' for Active; 'I' for Inactive)
REMARK    1  A    between atoms: N_4  and  C_11
REMARK    2  A    between atoms: N_5  and  C_12
REMARK    3  A    between atoms: N_8  and  C_25
REMARK    4  A    between atoms: C_15  and  C_18
REMARK    5  A    between atoms: C_18  and  C_22
REMARK                            x       y       z     vdW  Elec       q    Type
REMARK                         _______ _______ _______ _____ _____    ______ ____
ROOT
ATOM      1  O   UNL     1     -16.082   2.598  31.860  0.00  0.00    -0.370 OA
ATOM      2  O   UNL     1     -13.284   2.195  30.533  0.00  0.00    -0.370 OA
ATOM      9  C   UNL     1     -13.935   3.327  31.137  0.00  0.00    +0.175 C 
ATOM     10  C   UNL     1     -15.404   3.246  30.772  0.00  0.00    +0.171 C 
ATOM     11  C   UNL     1     -13.910   3.195  32.651  0.00  0.00    +0.166 C 
ATOM     12  C   UNL     1     -15.431   2.369  29.541  0.00  0.00    +0.131 C 
ATOM     13  C   UNL     1     -15.145   2.340  32.915  0.00  0.00    +0.190 C 
ATOM     14  C   UNL     1     -14.245   1.451  29.769  0.00  0.00    +0.185 C 
ENDROOT
BRANCH  12   5
ATOM      3  O   UNL     1     -17.203   2.454  27.292  0.00  0.00    -0.252 OA
ATOM      5  N   UNL     1     -15.264   3.150  28.340  0.00  0.00    -0.292 N 
ATOM      8  N   UNL     1     -15.758   3.988  26.258  0.00  0.00    -0.269 N 
ATOM     24  C   UNL     1     -16.181   3.136  27.282  0.00  0.00    +0.304 C 
ATOM     31  H   UNL     1     -14.478   3.791  28.285  0.00  0.00    +0.151 HD
ATOM     32  H   UNL     1     -14.881   4.481  26.408  0.00  0.00    +0.156 HD
BRANCH   8  25
ATOM     25  C   UNL     1     -16.402   4.250  25.026  0.00  0.00    +0.035 A 
ATOM     26  C   UNL     1     -16.369   3.299  24.007  0.00  0.00    +0.023 A 
ATOM     27  C   UNL     1     -17.067   5.460  24.830  0.00  0.00    +0.023 A 
ATOM     28  C   UNL     1     -17.003   3.556  22.791  0.00  0.00    +0.002 A 
ATOM     29  C   UNL     1     -17.701   5.718  23.615  0.00  0.00    +0.002 A 
ATOM     30  C   UNL     1     -17.668   4.766  22.595  0.00  0.00    +0.000 A 
ENDBRANCH   8  25
ENDBRANCH  12   5
BRANCH  11   4
ATOM      4  N   UNL     1     -13.898   4.554  33.324  0.00  0.00    -0.244 N 
ATOM      6  N   UNL     1     -14.151   4.672  34.638  0.00  0.00    -0.065 NA
ATOM      7  N   UNL     1     -14.078   5.964  34.939  0.00  0.00    -0.134 NA
ATOM     19  C   UNL     1     -13.657   5.765  32.749  0.00  0.00    +0.134 A 
ATOM     22  C   UNL     1     -13.775   6.647  33.794  0.00  0.00    +0.083 A 
BRANCH  22  18
ATOM     18  C   UNL     1     -13.621   8.143  33.794  0.00  0.00    +0.062 C 
BRANCH  18  15
ATOM     15  C   UNL     1     -12.412   8.583  32.971  0.00  0.00    -0.005 C 
ATOM     16  C   UNL     1     -12.861   9.280  31.679  0.00  0.00    +0.004 C 
ATOM     17  C   UNL     1     -11.500   9.500  33.796  0.00  0.00    +0.004 C 
ATOM     20  C   UNL     1     -11.670   9.777  30.863  0.00  0.00    +0.000 C 
ATOM     21  C   UNL     1     -10.311   9.998  32.978  0.00  0.00    +0.000 C 
ATOM     23  C   UNL     1     -10.760  10.682  31.690  0.00  0.00    +0.000 C 
ENDBRANCH  18  15
ENDBRANCH  22  18
ENDBRANCH  11   4
TORSDOF 5
ENDMDL
