MODEL 1
REMARK VINA RESULT:      -8.0      0.000      0.000
REMARK  Name = 26744980
REMARK  5 active torsions:
REMARK  status: ('A' for Active; 'I' for Inactive)
REMARK    1  A    between atoms: N_4  and  C_11
REMARK    2  A    between atoms: N_9  and  C_28
REMARK    3  A    between atoms: C_10  and  C_11
REMARK    4  A    between atoms: C_16  and  C_22
REMARK    5  A    between atoms: C_24  and  C_25
REMARK                            x       y       z     vdW  Elec       q    Type
REMARK                         _______ _______ _______ _____ _____    ______ ____
ROOT
ATOM      4  N   UNL     1      14.402   7.470  19.341  0.00  0.00    -0.285 NA
ATOM      5  N   UNL     1      11.825   6.600  21.923  0.00  0.00    -0.347 N 
ATOM      6  N   UNL     1      10.499   7.984  20.771  0.00  0.00    -0.240 NA
ATOM     16  C   UNL     1      13.384   7.769  18.278  0.00  0.00    +0.152 C 
ATOM     18  C   UNL     1      13.873   6.550  20.390  0.00  0.00    +0.140 C 
ATOM     19  C   UNL     1      12.095   8.454  18.856  0.00  0.00    +0.085 C 
ATOM     20  C   UNL     1      12.523   6.972  20.814  0.00  0.00    +0.053 A 
ATOM     21  C   UNL     1      11.689   7.812  20.122  0.00  0.00    +0.065 A 
ATOM     23  C   UNL     1      10.610   7.237  21.852  0.00  0.00    +0.197 A 
ATOM     31  H   UNL     1      12.133   5.975  22.655  0.00  0.00    +0.167 HD
ENDROOT
BRANCH  16  22
ATOM      1  O   UNL     1      13.814   8.135  15.890  0.00  0.00    -0.336 OA
ATOM      7  N   UNL     1      14.452   9.836  17.201  0.00  0.00    -0.190 NA
ATOM      8  N   UNL     1      14.354   9.105  15.035  0.00  0.00    -0.056 NA
ATOM     22  C   UNL     1      13.911   8.646  17.145  0.00  0.00    +0.245 A 
ATOM     24  C   UNL     1      14.708  10.076  15.881  0.00  0.00    +0.202 A 
BRANCH  24  25
ATOM     25  C   UNL     1      15.317  11.298  15.444  0.00  0.00    +0.025 A 
ATOM     26  C   UNL     1      15.819  11.404  14.147  0.00  0.00    +0.044 A 
ATOM     27  C   UNL     1      15.407  12.383  16.316  0.00  0.00    +0.012 A 
ATOM     28  C   UNL     1      16.410  12.593  13.722  0.00  0.00    +0.127 A 
ATOM     29  C   UNL     1      15.999  13.573  15.892  0.00  0.00    +0.003 A 
ATOM     30  C   UNL     1      16.500  13.678  14.595  0.00  0.00    +0.033 A 
BRANCH  28   9
ATOM      2  O   UNL     1      16.511  11.908  11.522  0.00  0.00    -0.126 OA
ATOM      3  O   UNL     1      17.773  13.591  12.152  0.00  0.00    -0.126 OA
ATOM      9  N   UNL     1      16.922  12.702  12.402  0.00  0.00    +0.056 N 
ENDBRANCH  28   9
ENDBRANCH  24  25
ENDBRANCH  16  22
BRANCH   4  11
ATOM     11  C   UNL     1      15.628   6.876  18.790  0.00  0.00    +0.089 C 
BRANCH  11  10
ATOM     10  C   UNL     1      16.681   6.671  19.879  0.00  0.00    +0.003 C 
ATOM     12  C   UNL     1      17.894   5.915  19.323  0.00  0.00    +0.005 C 
ATOM     13  C   UNL     1      17.104   8.017  20.482  0.00  0.00    +0.005 C 
ATOM     14  C   UNL     1      18.985   5.745  20.380  0.00  0.00    +0.000 C 
ATOM     15  C   UNL     1      18.194   7.843  21.537  0.00  0.00    +0.000 C 
ATOM     17  C   UNL     1      19.397   7.084  20.983  0.00  0.00    +0.000 C 
ENDBRANCH  11  10
ENDBRANCH   4  11
TORSDOF 5
ENDMDL
MODEL 2
REMARK VINA RESULT:      -7.5      4.628      7.361
REMARK  Name = 26744980
REMARK  5 active torsions:
REMARK  status: ('A' for Active; 'I' for Inactive)
REMARK    1  A    between atoms: N_4  and  C_11
REMARK    2  A    between atoms: N_9  and  C_28
REMARK    3  A    between atoms: C_10  and  C_11
REMARK    4  A    between atoms: C_16  and  C_22
REMARK    5  A    between atoms: C_24  and  C_25
REMARK                            x       y       z     vdW  Elec       q    Type
REMARK                         _______ _______ _______ _____ _____    ______ ____
ROOT
ATOM      4  N   UNL     1      12.668  11.090  21.503  0.00  0.00    -0.285 NA
ATOM      5  N   UNL     1      10.270  12.371  24.086  0.00  0.00    -0.347 N 
ATOM      6  N   UNL     1      11.962  12.066  25.515  0.00  0.00    -0.240 NA
ATOM     16  C   UNL     1      13.884  11.555  22.254  0.00  0.00    +0.152 C 
ATOM     18  C   UNL     1      11.445  11.862  21.871  0.00  0.00    +0.140 C 
ATOM     19  C   UNL     1      13.721  11.409  23.809  0.00  0.00    +0.085 C 
ATOM     20  C   UNL     1      11.348  12.008  23.337  0.00  0.00    +0.053 A 
ATOM     21  C   UNL     1      12.371  11.833  24.232  0.00  0.00    +0.065 A 
ATOM     23  C   UNL     1      10.690  12.392  25.393  0.00  0.00    +0.197 A 
ATOM     31  H   UNL     1       9.341  12.588  23.750  0.00  0.00    +0.167 HD
ENDROOT
BRANCH  16  22
ATOM      1  O   UNL     1      16.258  11.629  21.640  0.00  0.00    -0.336 OA
ATOM      7  N   UNL     1      15.391   9.564  21.672  0.00  0.00    -0.190 NA
ATOM      8  N   UNL     1      17.301  10.763  21.285  0.00  0.00    -0.056 NA
ATOM     22  C   UNL     1      15.171  10.841  21.851  0.00  0.00    +0.245 A 
ATOM     24  C   UNL     1      16.711   9.564  21.327  0.00  0.00    +0.202 A 
BRANCH  24  25
ATOM     25  C   UNL     1      17.411   8.348  21.029  0.00  0.00    +0.025 A 
ATOM     26  C   UNL     1      18.631   8.074  21.648  0.00  0.00    +0.044 A 
ATOM     27  C   UNL     1      16.871   7.439  20.120  0.00  0.00    +0.012 A 
ATOM     28  C   UNL     1      19.310   6.891  21.359  0.00  0.00    +0.127 A 
ATOM     29  C   UNL     1      17.551   6.255  19.829  0.00  0.00    +0.003 A 
ATOM     30  C   UNL     1      18.770   5.982  20.450  0.00  0.00    +0.033 A 
BRANCH  28   9
ATOM      2  O   UNL     1      21.595   7.148  21.543  0.00  0.00    -0.126 OA
ATOM      3  O   UNL     1      20.572   5.833  22.973  0.00  0.00    -0.126 OA
ATOM      9  N   UNL     1      20.552   6.611  21.988  0.00  0.00    +0.056 N 
ENDBRANCH  28   9
ENDBRANCH  24  25
ENDBRANCH  16  22
BRANCH   4  11
ATOM     11  C   UNL     1      12.843  11.180  20.047  0.00  0.00    +0.089 C 
BRANCH  11  10
ATOM     10  C   UNL     1      12.661   9.815  19.384  0.00  0.00    +0.003 C 
ATOM     12  C   UNL     1      13.915   9.426  18.590  0.00  0.00    +0.005 C 
ATOM     13  C   UNL     1      12.322   8.745  20.430  0.00  0.00    +0.005 C 
ATOM     14  C   UNL     1      13.778   8.041  17.961  0.00  0.00    +0.000 C 
ATOM     15  C   UNL     1      12.187   7.362  19.798  0.00  0.00    +0.000 C 
ATOM     17  C   UNL     1      13.433   6.982  19.003  0.00  0.00    +0.000 C 
ENDBRANCH  11  10
ENDBRANCH   4  11
TORSDOF 5
ENDMDL
MODEL 3
REMARK VINA RESULT:      -7.2     13.241     16.092
REMARK  Name = 26744980
REMARK  5 active torsions:
REMARK  status: ('A' for Active; 'I' for Inactive)
REMARK    1  A    between atoms: N_4  and  C_11
REMARK    2  A    between atoms: N_9  and  C_28
REMARK    3  A    between atoms: C_10  and  C_11
REMARK    4  A    between atoms: C_16  and  C_22
REMARK    5  A    between atoms: C_24  and  C_25
REMARK                            x       y       z     vdW  Elec       q    Type
REMARK                         _______ _______ _______ _____ _____    ______ ____
ROOT
ATOM      4  N   UNL     1       9.421   7.139   6.239  0.00  0.00    -0.285 NA
ATOM      5  N   UNL     1       8.568   5.808   9.640  0.00  0.00    -0.347 N 
ATOM      6  N   UNL     1       9.897   4.099   9.081  0.00  0.00    -0.240 NA
ATOM     16  C   UNL     1      10.751   6.440   6.188  0.00  0.00    +0.152 C 
ATOM     18  C   UNL     1       8.949   7.355   7.638  0.00  0.00    +0.140 C 
ATOM     19  C   UNL     1      10.711   5.024   6.864  0.00  0.00    +0.085 C 
ATOM     20  C   UNL     1       9.125   6.127   8.439  0.00  0.00    +0.053 A 
ATOM     21  C   UNL     1       9.938   5.070   8.122  0.00  0.00    +0.065 A 
ATOM     23  C   UNL     1       9.064   4.574   9.986  0.00  0.00    +0.197 A 
ATOM     31  H   UNL     1       7.920   6.367  10.178  0.00  0.00    +0.167 HD
ENDROOT
BRANCH  16  22
ATOM      1  O   UNL     1      12.230   7.179   4.375  0.00  0.00    -0.336 OA
ATOM      7  N   UNL     1      11.019   5.361   3.878  0.00  0.00    -0.190 NA
ATOM      8  N   UNL     1      12.584   6.821   3.067  0.00  0.00    -0.056 NA
ATOM     22  C   UNL     1      11.305   6.268   4.777  0.00  0.00    +0.245 A 
ATOM     24  C   UNL     1      11.829   5.741   2.846  0.00  0.00    +0.202 A 
BRANCH  24  25
ATOM     25  C   UNL     1      11.858   5.019   1.608  0.00  0.00    +0.025 A 
ATOM     26  C   UNL     1      10.922   5.298   0.612  0.00  0.00    +0.044 A 
ATOM     27  C   UNL     1      12.826   4.035   1.399  0.00  0.00    +0.012 A 
ATOM     28  C   UNL     1      10.953   4.595  -0.592  0.00  0.00    +0.127 A 
ATOM     29  C   UNL     1      12.856   3.331   0.194  0.00  0.00    +0.003 A 
ATOM     30  C   UNL     1      11.920   3.612  -0.801  0.00  0.00    +0.033 A 
BRANCH  28   9
ATOM      2  O   UNL     1       9.453   6.008  -1.629  0.00  0.00    -0.126 OA
ATOM      3  O   UNL     1       9.730   3.991  -2.451  0.00  0.00    -0.126 OA
ATOM      9  N   UNL     1      10.000   4.879  -1.606  0.00  0.00    +0.056 N 
ENDBRANCH  28   9
ENDBRANCH  24  25
ENDBRANCH  16  22
BRANCH   4  11
ATOM     11  C   UNL     1       9.448   8.441   5.560  0.00  0.00    +0.089 C 
BRANCH  11  10
ATOM     10  C   UNL     1       8.412   8.500   4.437  0.00  0.00    +0.003 C 
ATOM     12  C   UNL     1       7.435   9.661   4.662  0.00  0.00    +0.005 C 
ATOM     13  C   UNL     1       9.101   8.621   3.072  0.00  0.00    +0.005 C 
ATOM     14  C   UNL     1       6.422   9.773   3.525  0.00  0.00    +0.000 C 
ATOM     15  C   UNL     1       8.086   8.735   1.937  0.00  0.00    +0.000 C 
ATOM     17  C   UNL     1       7.110   9.885   2.168  0.00  0.00    +0.000 C 
ENDBRANCH  11  10
ENDBRANCH   4  11
TORSDOF 5
ENDMDL
MODEL 4
REMARK VINA RESULT:      -7.2     29.058     32.921
REMARK  Name = 26744980
REMARK  5 active torsions:
REMARK  status: ('A' for Active; 'I' for Inactive)
REMARK    1  A    between atoms: N_4  and  C_11
REMARK    2  A    between atoms: N_9  and  C_28
REMARK    3  A    between atoms: C_10  and  C_11
REMARK    4  A    between atoms: C_16  and  C_22
REMARK    5  A    between atoms: C_24  and  C_25
REMARK                            x       y       z     vdW  Elec       q    Type
REMARK                         _______ _______ _______ _____ _____    ______ ____
ROOT
ATOM      4  N   UNL     1     -15.726   4.705  21.636  0.00  0.00    -0.285 NA
ATOM      5  N   UNL     1     -17.802   5.345  18.579  0.00  0.00    -0.347 N 
ATOM      6  N   UNL     1     -19.348   4.108  19.619  0.00  0.00    -0.240 NA
ATOM     16  C   UNL     1     -16.919   4.533  22.535  0.00  0.00    +0.152 C 
ATOM     18  C   UNL     1     -16.040   5.520  20.427  0.00  0.00    +0.140 C 
ATOM     19  C   UNL     1     -18.113   3.812  21.814  0.00  0.00    +0.085 C 
ATOM     20  C   UNL     1     -17.313   5.078  19.822  0.00  0.00    +0.053 A 
ATOM     21  C   UNL     1     -18.279   4.327  20.440  0.00  0.00    +0.065 A 
ATOM     23  C   UNL     1     -19.031   4.738  18.503  0.00  0.00    +0.197 A 
ATOM     31  H   UNL     1     -17.353   5.886  17.852  0.00  0.00    +0.167 HD
ENDROOT
BRANCH  16  22
ATOM      1  O   UNL     1     -16.312   2.452  23.685  0.00  0.00    -0.336 OA
ATOM      7  N   UNL     1     -16.617   4.195  25.058  0.00  0.00    -0.190 NA
ATOM      8  N   UNL     1     -16.082   1.972  24.981  0.00  0.00    -0.056 NA
ATOM     22  C   UNL     1     -16.620   3.769  23.821  0.00  0.00    +0.245 A 
ATOM     24  C   UNL     1     -16.281   3.058  25.734  0.00  0.00    +0.202 A 
BRANCH  24  25
ATOM     25  C   UNL     1     -16.152   3.041  27.162  0.00  0.00    +0.025 A 
ATOM     26  C   UNL     1     -15.720   1.885  27.811  0.00  0.00    +0.044 A 
ATOM     27  C   UNL     1     -16.458   4.183  27.902  0.00  0.00    +0.012 A 
ATOM     28  C   UNL     1     -15.594   1.870  29.200  0.00  0.00    +0.127 A 
ATOM     29  C   UNL     1     -16.332   4.169  29.292  0.00  0.00    +0.003 A 
ATOM     30  C   UNL     1     -15.900   3.012  29.940  0.00  0.00    +0.033 A 
BRANCH  28   9
ATOM      2  O   UNL     1     -16.003  -0.171  30.195  0.00  0.00    -0.126 OA
ATOM      3  O   UNL     1     -13.931   0.550  30.099  0.00  0.00    -0.126 OA
ATOM      9  N   UNL     1     -15.156   0.693  29.863  0.00  0.00    +0.056 N 
ENDBRANCH  28   9
ENDBRANCH  24  25
ENDBRANCH  16  22
BRANCH   4  11
ATOM     11  C   UNL     1     -14.592   5.333  22.328  0.00  0.00    +0.089 C 
BRANCH  11  10
ATOM     10  C   UNL     1     -13.993   6.464  21.492  0.00  0.00    +0.003 C 
ATOM     12  C   UNL     1     -14.191   7.816  22.190  0.00  0.00    +0.005 C 
ATOM     13  C   UNL     1     -12.507   6.204  21.215  0.00  0.00    +0.005 C 
ATOM     14  C   UNL     1     -13.555   8.957  21.399  0.00  0.00    +0.000 C 
ATOM     15  C   UNL     1     -11.873   7.347  20.426  0.00  0.00    +0.000 C 
ATOM     17  C   UNL     1     -12.079   8.691  21.118  0.00  0.00    +0.000 C 
ENDBRANCH  11  10
ENDBRANCH   4  11
TORSDOF 5
ENDMDL
MODEL 5
REMARK VINA RESULT:      -6.8     27.441     30.017
REMARK  Name = 26744980
REMARK  5 active torsions:
REMARK  status: ('A' for Active; 'I' for Inactive)
REMARK    1  A    between atoms: N_4  and  C_11
REMARK    2  A    between atoms: N_9  and  C_28
REMARK    3  A    between atoms: C_10  and  C_11
REMARK    4  A    between atoms: C_16  and  C_22
REMARK    5  A    between atoms: C_24  and  C_25
REMARK                            x       y       z     vdW  Elec       q    Type
REMARK                         _______ _______ _______ _____ _____    ______ ____
ROOT
ATOM      4  N   UNL     1      -3.404 -13.403  12.310  0.00  0.00    -0.285 NA
ATOM      5  N   UNL     1      -1.453 -16.212  10.772  0.00  0.00    -0.347 N 
ATOM      6  N   UNL     1      -0.634 -16.502  12.833  0.00  0.00    -0.240 NA
ATOM     16  C   UNL     1      -3.415 -14.025  13.678  0.00  0.00    +0.152 C 
ATOM     18  C   UNL     1      -3.215 -14.414  11.230  0.00  0.00    +0.140 C 
ATOM     19  C   UNL     1      -2.077 -14.777  14.007  0.00  0.00    +0.085 C 
ATOM     20  C   UNL     1      -2.128 -15.350  11.581  0.00  0.00    +0.053 A 
ATOM     21  C   UNL     1      -1.615 -15.550  12.837  0.00  0.00    +0.065 A 
ATOM     23  C   UNL     1      -0.562 -16.884  11.573  0.00  0.00    +0.197 A 
ATOM     31  H   UNL     1      -1.580 -16.340   9.777  0.00  0.00    +0.167 HD
ENDROOT
BRANCH  16  22
ATOM      1  O   UNL     1      -2.753 -12.058  14.987  0.00  0.00    -0.336 OA
ATOM      7  N   UNL     1      -4.686 -12.979  15.644  0.00  0.00    -0.190 NA
ATOM      8  N   UNL     1      -3.208 -11.283  16.062  0.00  0.00    -0.056 NA
ATOM     22  C   UNL     1      -3.682 -13.033  14.807  0.00  0.00    +0.245 A 
ATOM     24  C   UNL     1      -4.352 -11.889  16.395  0.00  0.00    +0.202 A 
BRANCH  24  25
ATOM     25  C   UNL     1      -5.184 -11.431  17.469  0.00  0.00    +0.025 A 
ATOM     26  C   UNL     1      -6.400 -10.806  17.195  0.00  0.00    +0.044 A 
ATOM     27  C   UNL     1      -4.776 -11.612  18.791  0.00  0.00    +0.012 A 
ATOM     28  C   UNL     1      -7.208 -10.362  18.241  0.00  0.00    +0.127 A 
ATOM     29  C   UNL     1      -5.584 -11.168  19.838  0.00  0.00    +0.003 A 
ATOM     30  C   UNL     1      -6.800 -10.543  19.563  0.00  0.00    +0.033 A 
BRANCH  28   9
ATOM      2  O   UNL     1      -9.489 -10.156  18.511  0.00  0.00    -0.126 OA
ATOM      3  O   UNL     1      -8.463  -8.747  17.175  0.00  0.00    -0.126 OA
ATOM      9  N   UNL     1      -8.447  -9.725  17.963  0.00  0.00    +0.056 N 
ENDBRANCH  28   9
ENDBRANCH  24  25
ENDBRANCH  16  22
BRANCH   4  11
ATOM     11  C   UNL     1      -4.636 -12.656  12.026  0.00  0.00    +0.089 C 
BRANCH  11  10
ATOM     10  C   UNL     1      -4.337 -11.186  11.733  0.00  0.00    +0.003 C 
ATOM     12  C   UNL     1      -2.955 -11.034  11.084  0.00  0.00    +0.005 C 
ATOM     13  C   UNL     1      -5.428 -10.577  10.843  0.00  0.00    +0.005 C 
ATOM     14  C   UNL     1      -2.654  -9.578  10.733  0.00  0.00    +0.000 C 
ATOM     15  C   UNL     1      -5.124  -9.123  10.493  0.00  0.00    +0.000 C 
ATOM     17  C   UNL     1      -3.745  -8.974   9.855  0.00  0.00    +0.000 C 
ENDBRANCH  11  10
ENDBRANCH   4  11
TORSDOF 5
ENDMDL
MODEL 6
REMARK VINA RESULT:      -6.8     30.980     33.431
REMARK  Name = 26744980
REMARK  5 active torsions:
REMARK  status: ('A' for Active; 'I' for Inactive)
REMARK    1  A    between atoms: N_4  and  C_11
REMARK    2  A    between atoms: N_9  and  C_28
REMARK    3  A    between atoms: C_10  and  C_11
REMARK    4  A    between atoms: C_16  and  C_22
REMARK    5  A    between atoms: C_24  and  C_25
REMARK                            x       y       z     vdW  Elec       q    Type
REMARK                         _______ _______ _______ _____ _____    ______ ____
ROOT
ATOM      4  N   UNL     1     -15.809   3.478  30.506  0.00  0.00    -0.285 NA
ATOM      5  N   UNL     1     -15.067   0.115  29.021  0.00  0.00    -0.347 N 
ATOM      6  N   UNL     1     -13.426   0.033  30.538  0.00  0.00    -0.240 NA
ATOM     16  C   UNL     1     -15.252   3.118  31.855  0.00  0.00    +0.152 C 
ATOM     18  C   UNL     1     -16.237   2.276  29.732  0.00  0.00    +0.140 C 
ATOM     19  C   UNL     1     -13.993   2.186  31.754  0.00  0.00    +0.085 C 
ATOM     20  C   UNL     1     -15.207   1.221  29.803  0.00  0.00    +0.053 A 
ATOM     21  C   UNL     1     -14.197   1.145  30.727  0.00  0.00    +0.065 A 
ATOM     23  C   UNL     1     -13.978  -0.570  29.503  0.00  0.00    +0.197 A 
ATOM     31  H   UNL     1     -15.649  -0.156  28.240  0.00  0.00    +0.167 HD
ENDROOT
BRANCH  16  22
ATOM      1  O   UNL     1     -15.573   4.495  33.861  0.00  0.00    -0.336 OA
ATOM      7  N   UNL     1     -13.959   5.238  32.497  0.00  0.00    -0.190 NA
ATOM      8  N   UNL     1     -15.055   5.649  34.463  0.00  0.00    -0.056 NA
ATOM     22  C   UNL     1     -14.872   4.325  32.709  0.00  0.00    +0.245 A 
ATOM     24  C   UNL     1     -14.108   6.028  33.600  0.00  0.00    +0.202 A 
BRANCH  24  25
ATOM     25  C   UNL     1     -13.294   7.190  33.808  0.00  0.00    +0.025 A 
ATOM     26  C   UNL     1     -12.734   7.856  32.719  0.00  0.00    +0.044 A 
ATOM     27  C   UNL     1     -13.062   7.654  35.103  0.00  0.00    +0.012 A 
ATOM     28  C   UNL     1     -11.943   8.987  32.923  0.00  0.00    +0.127 A 
ATOM     29  C   UNL     1     -12.270   8.784  35.308  0.00  0.00    +0.003 A 
ATOM     30  C   UNL     1     -11.711   9.451  34.218  0.00  0.00    +0.033 A 
BRANCH  28   9
ATOM      2  O   UNL     1     -10.557  10.596  32.024  0.00  0.00    -0.126 OA
ATOM      3  O   UNL     1     -11.699   9.316  30.654  0.00  0.00    -0.126 OA
ATOM      9  N   UNL     1     -11.372   9.666  31.814  0.00  0.00    +0.056 N 
ENDBRANCH  28   9
ENDBRANCH  24  25
ENDBRANCH  16  22
BRANCH   4  11
ATOM     11  C   UNL     1     -16.955   4.392  30.601  0.00  0.00    +0.089 C 
BRANCH  11  10
ATOM     10  C   UNL     1     -16.685   5.696  29.851  0.00  0.00    +0.003 C 
ATOM     12  C   UNL     1     -17.708   5.896  28.726  0.00  0.00    +0.005 C 
ATOM     13  C   UNL     1     -16.695   6.888  30.817  0.00  0.00    +0.005 C 
ATOM     14  C   UNL     1     -17.492   7.219  27.994  0.00  0.00    +0.000 C 
ATOM     15  C   UNL     1     -16.480   8.210  30.083  0.00  0.00    +0.000 C 
ATOM     17  C   UNL     1     -17.494   8.401  28.958  0.00  0.00    +0.000 C 
ENDBRANCH  11  10
ENDBRANCH   4  11
TORSDOF 5
ENDMDL
MODEL 7
REMARK VINA RESULT:      -6.8      4.577      8.251
REMARK  Name = 26744980
REMARK  5 active torsions:
REMARK  status: ('A' for Active; 'I' for Inactive)
REMARK    1  A    between atoms: N_4  and  C_11
REMARK    2  A    between atoms: N_9  and  C_28
REMARK    3  A    between atoms: C_10  and  C_11
REMARK    4  A    between atoms: C_16  and  C_22
REMARK    5  A    between atoms: C_24  and  C_25
REMARK                            x       y       z     vdW  Elec       q    Type
REMARK                         _______ _______ _______ _____ _____    ______ ____
ROOT
ATOM      4  N   UNL     1      20.524   5.956  22.640  0.00  0.00    -0.285 NA
ATOM      5  N   UNL     1      23.621   3.888  23.086  0.00  0.00    -0.347 N 
ATOM      6  N   UNL     1      22.963   2.866  21.210  0.00  0.00    -0.240 NA
ATOM     16  C   UNL     1      20.503   5.786  21.147  0.00  0.00    +0.152 C 
ATOM     18  C   UNL     1      21.889   5.767  23.212  0.00  0.00    +0.140 C 
ATOM     19  C   UNL     1      20.976   4.358  20.699  0.00  0.00    +0.085 C 
ATOM     20  C   UNL     1      22.530   4.569  22.636  0.00  0.00    +0.053 A 
ATOM     21  C   UNL     1      22.150   3.929  21.485  0.00  0.00    +0.065 A 
ATOM     23  C   UNL     1      23.842   2.869  22.192  0.00  0.00    +0.197 A 
ATOM     31  H   UNL     1      24.166   4.091  23.913  0.00  0.00    +0.167 HD
ENDROOT
BRANCH  16  22
ATOM      1  O   UNL     1      18.756   5.190  19.530  0.00  0.00    -0.336 OA
ATOM      7  N   UNL     1      18.267   6.985  20.777  0.00  0.00    -0.190 NA
ATOM      8  N   UNL     1      17.492   5.624  19.110  0.00  0.00    -0.056 NA
ATOM     22  C   UNL     1      19.139   6.046  20.514  0.00  0.00    +0.245 A 
ATOM     24  C   UNL     1      17.272   6.685  19.892  0.00  0.00    +0.202 A 
BRANCH  24  25
ATOM     25  C   UNL     1      16.073   7.467  19.814  0.00  0.00    +0.025 A 
ATOM     26  C   UNL     1      14.886   6.884  19.371  0.00  0.00    +0.044 A 
ATOM     27  C   UNL     1      16.093   8.812  20.182  0.00  0.00    +0.012 A 
ATOM     28  C   UNL     1      13.719   7.644  19.297  0.00  0.00    +0.127 A 
ATOM     29  C   UNL     1      14.927   9.574  20.107  0.00  0.00    +0.003 A 
ATOM     30  C   UNL     1      13.740   8.990  19.665  0.00  0.00    +0.033 A 
BRANCH  28   9
ATOM      2  O   UNL     1      12.164   7.209  17.650  0.00  0.00    -0.126 OA
ATOM      3  O   UNL     1      11.820   6.386  19.657  0.00  0.00    -0.126 OA
ATOM      9  N   UNL     1      12.510   7.052  18.845  0.00  0.00    +0.056 N 
ENDBRANCH  28   9
ENDBRANCH  24  25
ENDBRANCH  16  22
BRANCH   4  11
ATOM     11  C   UNL     1      20.032   7.276  23.059  0.00  0.00    +0.089 C 
BRANCH  11  10
ATOM     10  C   UNL     1      21.141   8.325  22.994  0.00  0.00    +0.003 C 
ATOM     12  C   UNL     1      20.949   9.240  21.778  0.00  0.00    +0.005 C 
ATOM     13  C   UNL     1      21.190   9.142  24.291  0.00  0.00    +0.005 C 
ATOM     14  C   UNL     1      22.016  10.332  21.720  0.00  0.00    +0.000 C 
ATOM     15  C   UNL     1      22.257  10.233  24.230  0.00  0.00    +0.000 C 
ATOM     17  C   UNL     1      22.068  11.137  23.014  0.00  0.00    +0.000 C 
ENDBRANCH  11  10
ENDBRANCH   4  11
TORSDOF 5
ENDMDL
MODEL 8
REMARK VINA RESULT:      -6.6     26.536     28.586
REMARK  Name = 26744980
REMARK  5 active torsions:
REMARK  status: ('A' for Active; 'I' for Inactive)
REMARK    1  A    between atoms: N_4  and  C_11
REMARK    2  A    between atoms: N_9  and  C_28
REMARK    3  A    between atoms: C_10  and  C_11
REMARK    4  A    between atoms: C_16  and  C_22
REMARK    5  A    between atoms: C_24  and  C_25
REMARK                            x       y       z     vdW  Elec       q    Type
REMARK                         _______ _______ _______ _____ _____    ______ ____
ROOT
ATOM      4  N   UNL     1     -11.912   8.157  19.576  0.00  0.00    -0.285 NA
ATOM      5  N   UNL     1     -10.725   7.739  16.043  0.00  0.00    -0.347 N 
ATOM      6  N   UNL     1     -10.867   9.968  15.946  0.00  0.00    -0.240 NA
ATOM     16  C   UNL     1     -11.340   9.541  19.711  0.00  0.00    +0.152 C 
ATOM     18  C   UNL     1     -11.217   7.358  18.525  0.00  0.00    +0.140 C 
ATOM     19  C   UNL     1     -11.451  10.368  18.382  0.00  0.00    +0.085 C 
ATOM     20  C   UNL     1     -11.034   8.162  17.300  0.00  0.00    +0.053 A 
ATOM     21  C   UNL     1     -11.109   9.528  17.216  0.00  0.00    +0.065 A 
ATOM     23  C   UNL     1     -10.635   8.864  15.261  0.00  0.00    +0.197 A 
ATOM     31  H   UNL     1     -10.584   6.784  15.740  0.00  0.00    +0.167 HD
ENDROOT
BRANCH  16  22
ATOM      1  O   UNL     1     -13.104  11.049  20.509  0.00  0.00    -0.336 OA
ATOM      7  N   UNL     1     -11.586  10.519  22.068  0.00  0.00    -0.190 NA
ATOM      8  N   UNL     1     -13.494  11.720  21.675  0.00  0.00    -0.056 NA
ATOM     22  C   UNL     1     -11.974  10.365  20.828  0.00  0.00    +0.245 A 
ATOM     24  C   UNL     1     -12.550  11.358  22.549  0.00  0.00    +0.202 A 
BRANCH  24  25
ATOM     25  C   UNL     1     -12.540  11.815  23.908  0.00  0.00    +0.025 A 
ATOM     26  C   UNL     1     -11.832  11.107  24.879  0.00  0.00    +0.044 A 
ATOM     27  C   UNL     1     -13.240  12.970  24.259  0.00  0.00    +0.012 A 
ATOM     28  C   UNL     1     -11.822  11.553  26.200  0.00  0.00    +0.127 A 
ATOM     29  C   UNL     1     -13.231  13.416  25.581  0.00  0.00    +0.003 A 
ATOM     30  C   UNL     1     -12.522  12.708  26.551  0.00  0.00    +0.033 A 
BRANCH  28   9
ATOM      2  O   UNL     1     -10.234  10.004  26.827  0.00  0.00    -0.126 OA
ATOM      3  O   UNL     1     -11.355  11.047  28.401  0.00  0.00    -0.126 OA
ATOM      9  N   UNL     1     -11.102  10.833  27.190  0.00  0.00    +0.056 N 
ENDBRANCH  28   9
ENDBRANCH  24  25
ENDBRANCH  16  22
BRANCH   4  11
ATOM     11  C   UNL     1     -11.855   7.403  20.835  0.00  0.00    +0.089 C 
BRANCH  11  10
ATOM     10  C   UNL     1     -13.215   6.796  21.178  0.00  0.00    +0.003 C 
ATOM     12  C   UNL     1     -13.042   5.494  21.970  0.00  0.00    +0.005 C 
ATOM     13  C   UNL     1     -14.075   7.800  21.957  0.00  0.00    +0.005 C 
ATOM     14  C   UNL     1     -14.389   4.895  22.370  0.00  0.00    +0.000 C 
ATOM     15  C   UNL     1     -15.420   7.198  22.357  0.00  0.00    +0.000 C 
ATOM     17  C   UNL     1     -15.245   5.898  23.138  0.00  0.00    +0.000 C 
ENDBRANCH  11  10
ENDBRANCH   4  11
TORSDOF 5
ENDMDL
MODEL 9
REMARK VINA RESULT:      -6.6     32.281     34.044
REMARK  Name = 26744980
REMARK  5 active torsions:
REMARK  status: ('A' for Active; 'I' for Inactive)
REMARK    1  A    between atoms: N_4  and  C_11
REMARK    2  A    between atoms: N_9  and  C_28
REMARK    3  A    between atoms: C_10  and  C_11
REMARK    4  A    between atoms: C_16  and  C_22
REMARK    5  A    between atoms: C_24  and  C_25
REMARK                            x       y       z     vdW  Elec       q    Type
REMARK                         _______ _______ _______ _____ _____    ______ ____
ROOT
ATOM      4  N   UNL     1     -15.812   3.449  30.581  0.00  0.00    -0.285 NA
ATOM      5  N   UNL     1     -15.029   0.157  28.964  0.00  0.00    -0.347 N 
ATOM      6  N   UNL     1     -13.486  -0.034  30.571  0.00  0.00    -0.240 NA
ATOM     16  C   UNL     1     -15.344   3.009  31.939  0.00  0.00    +0.152 C 
ATOM     18  C   UNL     1     -16.209   2.298  29.718  0.00  0.00    +0.140 C 
ATOM     19  C   UNL     1     -14.094   2.061  31.865  0.00  0.00    +0.085 C 
ATOM     20  C   UNL     1     -15.201   1.222  29.795  0.00  0.00    +0.053 A 
ATOM     21  C   UNL     1     -14.251   1.080  30.773  0.00  0.00    +0.065 A 
ATOM     23  C   UNL     1     -13.982  -0.572  29.473  0.00  0.00    +0.197 A 
ATOM     31  H   UNL     1     -15.566  -0.062  28.136  0.00  0.00    +0.167 HD
ENDROOT
BRANCH  16  22
ATOM      1  O   UNL     1     -15.762   4.277  33.998  0.00  0.00    -0.336 OA
ATOM      7  N   UNL     1     -14.068   5.072  32.768  0.00  0.00    -0.190 NA
ATOM      8  N   UNL     1     -15.266   5.389  34.691  0.00  0.00    -0.056 NA
ATOM     22  C   UNL     1     -15.000   4.161  32.879  0.00  0.00    +0.245 A 
ATOM     24  C   UNL     1     -14.269   5.803  33.904  0.00  0.00    +0.202 A 
BRANCH  24  25
ATOM     25  C   UNL     1     -13.456   6.940  34.221  0.00  0.00    +0.025 A 
ATOM     26  C   UNL     1     -13.092   7.193  35.543  0.00  0.00    +0.044 A 
ATOM     27  C   UNL     1     -13.028   7.795  33.205  0.00  0.00    +0.012 A 
ATOM     28  C   UNL     1     -12.300   8.299  35.850  0.00  0.00    +0.127 A 
ATOM     29  C   UNL     1     -12.236   8.903  33.512  0.00  0.00    +0.003 A 
ATOM     30  C   UNL     1     -11.872   9.154  34.834  0.00  0.00    +0.033 A 
BRANCH  28   9
ATOM      2  O   UNL     1     -10.903   8.006  37.662  0.00  0.00    -0.126 OA
ATOM      3  O   UNL     1     -12.640   9.331  37.885  0.00  0.00    -0.126 OA
ATOM      9  N   UNL     1     -11.929   8.558  37.197  0.00  0.00    +0.056 N 
ENDBRANCH  28   9
ENDBRANCH  24  25
ENDBRANCH  16  22
BRANCH   4  11
ATOM     11  C   UNL     1     -16.949   4.377  30.656  0.00  0.00    +0.089 C 
BRANCH  11  10
ATOM     10  C   UNL     1     -16.591   5.738  30.060  0.00  0.00    +0.003 C 
ATOM     12  C   UNL     1     -17.507   6.069  28.876  0.00  0.00    +0.005 C 
ATOM     13  C   UNL     1     -16.664   6.834  31.131  0.00  0.00    +0.005 C 
ATOM     14  C   UNL     1     -17.204   7.449  28.296  0.00  0.00    +0.000 C 
ATOM     15  C   UNL     1     -16.362   8.213  30.548  0.00  0.00    +0.000 C 
ATOM     17  C   UNL     1     -17.270   8.535  29.365  0.00  0.00    +0.000 C 
ENDBRANCH  11  10
ENDBRANCH   4  11
TORSDOF 5
ENDMDL
MODEL 10
REMARK VINA RESULT:      -6.6     27.561     29.774
REMARK  Name = 26744980
REMARK  5 active torsions:
REMARK  status: ('A' for Active; 'I' for Inactive)
REMARK    1  A    between atoms: N_4  and  C_11
REMARK    2  A    between atoms: N_9  and  C_28
REMARK    3  A    between atoms: C_10  and  C_11
REMARK    4  A    between atoms: C_16  and  C_22
REMARK    5  A    between atoms: C_24  and  C_25
REMARK                            x       y       z     vdW  Elec       q    Type
REMARK                         _______ _______ _______ _____ _____    ______ ____
ROOT
ATOM      4  N   UNL     1      -3.732 -11.956  11.743  0.00  0.00    -0.285 NA
ATOM      5  N   UNL     1      -5.156 -10.617   8.543  0.00  0.00    -0.347 N 
ATOM      6  N   UNL     1      -6.011  -9.005   9.835  0.00  0.00    -0.240 NA
ATOM     16  C   UNL     1      -3.686 -10.608  12.406  0.00  0.00    +0.152 C 
ATOM     18  C   UNL     1      -3.715 -11.857  10.255  0.00  0.00    +0.140 C 
ATOM     19  C   UNL     1      -4.906  -9.703  12.009  0.00  0.00    +0.085 C 
ATOM     20  C   UNL     1      -4.659 -10.819   9.794  0.00  0.00    +0.053 A 
ATOM     21  C   UNL     1      -5.191  -9.818  10.565  0.00  0.00    +0.065 A 
ATOM     23  C   UNL     1      -5.968  -9.512   8.618  0.00  0.00    +0.197 A 
ATOM     31  H   UNL     1      -4.966 -11.167   7.716  0.00  0.00    +0.167 HD
ENDROOT
BRANCH  16  22
ATOM      1  O   UNL     1      -2.420 -10.407  14.498  0.00  0.00    -0.336 OA
ATOM      7  N   UNL     1      -4.576 -10.941  14.787  0.00  0.00    -0.190 NA
ATOM      8  N   UNL     1      -2.610 -10.522  15.881  0.00  0.00    -0.056 NA
ATOM     22  C   UNL     1      -3.626 -10.669  13.930  0.00  0.00    +0.245 A 
ATOM     24  C   UNL     1      -3.906 -10.838  15.972  0.00  0.00    +0.202 A 
BRANCH  24  25
ATOM     25  C   UNL     1      -4.561 -11.058  17.229  0.00  0.00    +0.025 A 
ATOM     26  C   UNL     1      -5.898 -10.699  17.392  0.00  0.00    +0.044 A 
ATOM     27  C   UNL     1      -3.858 -11.633  18.288  0.00  0.00    +0.012 A 
ATOM     28  C   UNL     1      -6.534 -10.914  18.615  0.00  0.00    +0.127 A 
ATOM     29  C   UNL     1      -4.494 -11.847  19.512  0.00  0.00    +0.003 A 
ATOM     30  C   UNL     1      -5.832 -11.488  19.674  0.00  0.00    +0.033 A 
BRANCH  28   9
ATOM      2  O   UNL     1      -8.453  -9.855  17.899  0.00  0.00    -0.126 OA
ATOM      3  O   UNL     1      -8.505 -10.930  19.813  0.00  0.00    -0.126 OA
ATOM      9  N   UNL     1      -7.896 -10.548  18.783  0.00  0.00    +0.056 N 
ENDBRANCH  28   9
ENDBRANCH  24  25
ENDBRANCH  16  22
BRANCH   4  11
ATOM     11  C   UNL     1      -2.618 -12.820  12.157  0.00  0.00    +0.089 C 
BRANCH  11  10
ATOM     10  C   UNL     1      -3.128 -14.115  12.788  0.00  0.00    +0.003 C 
ATOM     12  C   UNL     1      -2.477 -14.342  14.159  0.00  0.00    +0.005 C 
ATOM     13  C   UNL     1      -4.657 -14.095  12.906  0.00  0.00    +0.005 C 
ATOM     14  C   UNL     1      -3.010 -15.604  14.834  0.00  0.00    +0.000 C 
ATOM     15  C   UNL     1      -5.187 -15.357  13.583  0.00  0.00    +0.000 C 
ATOM     17  C   UNL     1      -4.532 -15.584  14.942  0.00  0.00    +0.000 C 
ENDBRANCH  11  10
ENDBRANCH   4  11
TORSDOF 5
ENDMDL
