MODEL 1
REMARK VINA RESULT:      -6.8      0.000      0.000
REMARK  Name = 11941637
REMARK  8 active torsions:
REMARK  status: ('A' for Active; 'I' for Inactive)
REMARK    1  A    between atoms: N_4  and  C_11
REMARK    2  A    between atoms: N_5  and  C_12
REMARK    3  A    between atoms: N_7  and  C_24
REMARK    4  A    between atoms: C_17  and  C_18
REMARK    5  A    between atoms: C_17  and  C_20
REMARK    6  A    between atoms: C_17  and  C_21
REMARK    7  A    between atoms: C_17  and  C_22
REMARK    8  A    between atoms: C_24  and  C_25
REMARK                            x       y       z     vdW  Elec       q    Type
REMARK                         _______ _______ _______ _____ _____    ______ ____
ROOT
ATOM      1  O   UNL     1      -5.884 -11.733  19.177  0.00  0.00    -0.370 OA
ATOM      2  O   UNL     1      -7.097 -11.725  16.303  0.00  0.00    -0.370 OA
ATOM      9  C   UNL     1      -5.933 -11.113  16.880  0.00  0.00    +0.171 C 
ATOM     10  C   UNL     1      -6.300 -10.684  18.287  0.00  0.00    +0.171 C 
ATOM     11  C   UNL     1      -4.844 -12.141  17.079  0.00  0.00    +0.130 C 
ATOM     12  C   UNL     1      -7.809 -10.587  18.260  0.00  0.00    +0.131 C 
ATOM     13  C   UNL     1      -5.203 -12.748  18.424  0.00  0.00    +0.185 C 
ATOM     14  C   UNL     1      -8.184 -11.645  17.238  0.00  0.00    +0.185 C 
ENDROOT
BRANCH  11   4
ATOM      4  N   UNL     1      -3.555 -11.490  17.152  0.00  0.00    -0.306 N 
ATOM      6  N   UNL     1      -3.452 -11.192  14.827  0.00  0.00    -0.219 NA
ATOM      8  N   UNL     1      -1.667 -10.427  16.253  0.00  0.00    -0.223 NA
ATOM     15  C   UNL     1      -2.871 -11.022  16.044  0.00  0.00    +0.216 A 
ATOM     18  C   UNL     1      -2.758 -10.724  13.769  0.00  0.00    +0.052 A 
ATOM     19  C   UNL     1      -1.529 -10.104  13.872  0.00  0.00    +0.043 A 
ATOM     23  C   UNL     1      -1.026  -9.983  15.151  0.00  0.00    +0.116 A 
ATOM     26  H   UNL     1      -3.137 -11.312  18.058  0.00  0.00    +0.149 HD
BRANCH  18  17
ATOM     17  C   UNL     1      -3.381 -10.902  12.425  0.00  0.00    +0.005 C 
ATOM     20  C   UNL     1      -4.899 -10.546  12.453  0.00  0.00    +0.017 C 
ATOM     21  C   UNL     1      -3.251 -12.377  11.934  0.00  0.00    +0.017 C 
ATOM     22  C   UNL     1      -2.770 -10.027  11.281  0.00  0.00    +0.017 C 
ENDBRANCH  18  17
ENDBRANCH  11   4
BRANCH  12   5
ATOM      3  O   UNL     1     -10.509  -9.743  17.693  0.00  0.00    -0.253 OA
ATOM      5  N   UNL     1      -8.240  -9.276  17.838  0.00  0.00    -0.292 N 
ATOM      7  N   UNL     1      -9.707  -7.625  17.194  0.00  0.00    -0.300 N 
ATOM     16  C   UNL     1      -9.572  -8.955  17.585  0.00  0.00    +0.300 C 
ATOM     27  H   UNL     1      -7.549  -8.533  17.784  0.00  0.00    +0.151 HD
ATOM     28  H   UNL     1      -8.876  -7.045  17.131  0.00  0.00    +0.150 HD
BRANCH   7  24
ATOM     24  C   UNL     1     -10.982  -7.030  16.870  0.00  0.00    +0.102 C 
ATOM     25  C   UNL     1     -10.877  -6.103  15.677  0.00  0.00    +0.024 C 
ENDBRANCH   7  24
ENDBRANCH  12   5
TORSDOF 4
ENDMDL
MODEL 2
REMARK VINA RESULT:      -6.4     26.240     29.035
REMARK  Name = 11941637
REMARK  8 active torsions:
REMARK  status: ('A' for Active; 'I' for Inactive)
REMARK    1  A    between atoms: N_4  and  C_11
REMARK    2  A    between atoms: N_5  and  C_12
REMARK    3  A    between atoms: N_7  and  C_24
REMARK    4  A    between atoms: C_17  and  C_18
REMARK    5  A    between atoms: C_17  and  C_20
REMARK    6  A    between atoms: C_17  and  C_21
REMARK    7  A    between atoms: C_17  and  C_22
REMARK    8  A    between atoms: C_24  and  C_25
REMARK                            x       y       z     vdW  Elec       q    Type
REMARK                         _______ _______ _______ _____ _____    ______ ____
ROOT
ATOM      1  O   UNL     1      10.569   7.936  20.554  0.00  0.00    -0.370 OA
ATOM      2  O   UNL     1      13.570   8.731  20.867  0.00  0.00    -0.370 OA
ATOM      9  C   UNL     1      12.337   9.407  21.164  0.00  0.00    +0.171 C 
ATOM     10  C   UNL     1      11.350   9.043  20.073  0.00  0.00    +0.171 C 
ATOM     11  C   UNL     1      11.721   8.846  22.423  0.00  0.00    +0.130 C 
ATOM     12  C   UNL     1      12.222   8.606  18.918  0.00  0.00    +0.131 C 
ATOM     13  C   UNL     1      10.948   7.644  21.907  0.00  0.00    +0.185 C 
ATOM     14  C   UNL     1      13.431   8.021  19.627  0.00  0.00    +0.185 C 
ENDROOT
BRANCH  11   4
ATOM      4  N   UNL     1      10.815   9.812  23.004  0.00  0.00    -0.306 N 
ATOM      6  N   UNL     1      12.565  11.019  23.996  0.00  0.00    -0.219 NA
ATOM      8  N   UNL     1      10.274  11.717  24.262  0.00  0.00    -0.223 NA
ATOM     15  C   UNL     1      11.231  10.881  23.777  0.00  0.00    +0.216 A 
ATOM     18  C   UNL     1      12.935  12.073  24.753  0.00  0.00    +0.052 A 
ATOM     19  C   UNL     1      12.045  12.980  25.292  0.00  0.00    +0.043 A 
ATOM     23  C   UNL     1      10.714  12.749  25.012  0.00  0.00    +0.116 A 
ATOM     26  H   UNL     1       9.823   9.748  22.805  0.00  0.00    +0.149 HD
BRANCH  18  17
ATOM     17  C   UNL     1      14.396  12.240  25.003  0.00  0.00    +0.005 C 
ATOM     20  C   UNL     1      14.776  13.746  25.152  0.00  0.00    +0.017 C 
ATOM     21  C   UNL     1      15.241  11.654  23.831  0.00  0.00    +0.017 C 
ATOM     22  C   UNL     1      14.939  11.544  26.296  0.00  0.00    +0.017 C 
ENDBRANCH  18  17
ENDBRANCH  11   4
BRANCH  12   5
ATOM      3  O   UNL     1      13.244   8.515  16.220  0.00  0.00    -0.253 OA
ATOM      5  N   UNL     1      12.593   9.728  18.090  0.00  0.00    -0.292 N 
ATOM      7  N   UNL     1      13.359  10.832  16.222  0.00  0.00    -0.300 N 
ATOM     16  C   UNL     1      13.081   9.592  16.792  0.00  0.00    +0.300 C 
ATOM     27  H   UNL     1      12.432  10.666  18.446  0.00  0.00    +0.151 HD
ATOM     28  H   UNL     1      13.194  11.671  16.770  0.00  0.00    +0.150 HD
BRANCH   7  24
ATOM     24  C   UNL     1      13.877  10.979  14.883  0.00  0.00    +0.102 C 
ATOM     25  C   UNL     1      14.220  12.422  14.575  0.00  0.00    +0.024 C 
ENDBRANCH   7  24
ENDBRANCH  12   5
TORSDOF 4
ENDMDL
MODEL 3
REMARK VINA RESULT:      -6.3      1.499      2.046
REMARK  Name = 11941637
REMARK  8 active torsions:
REMARK  status: ('A' for Active; 'I' for Inactive)
REMARK    1  A    between atoms: N_4  and  C_11
REMARK    2  A    between atoms: N_5  and  C_12
REMARK    3  A    between atoms: N_7  and  C_24
REMARK    4  A    between atoms: C_17  and  C_18
REMARK    5  A    between atoms: C_17  and  C_20
REMARK    6  A    between atoms: C_17  and  C_21
REMARK    7  A    between atoms: C_17  and  C_22
REMARK    8  A    between atoms: C_24  and  C_25
REMARK                            x       y       z     vdW  Elec       q    Type
REMARK                         _______ _______ _______ _____ _____    ______ ____
ROOT
ATOM      1  O   UNL     1      -6.809 -10.360  18.897  0.00  0.00    -0.370 OA
ATOM      2  O   UNL     1      -7.763 -11.285  16.074  0.00  0.00    -0.370 OA
ATOM      9  C   UNL     1      -6.611 -10.560  16.534  0.00  0.00    +0.171 C 
ATOM     10  C   UNL     1      -7.067  -9.662  17.667  0.00  0.00    +0.171 C 
ATOM     11  C   UNL     1      -5.624 -11.501  17.183  0.00  0.00    +0.130 C 
ATOM     12  C   UNL     1      -8.556  -9.519  17.448  0.00  0.00    +0.131 C 
ATOM     13  C   UNL     1      -6.143 -11.598  18.607  0.00  0.00    +0.185 C 
ATOM     14  C   UNL     1      -8.918 -10.847  16.806  0.00  0.00    +0.185 C 
ENDROOT
BRANCH  11   4
ATOM      4  N   UNL     1      -4.301 -10.917  17.171  0.00  0.00    -0.306 N 
ATOM      6  N   UNL     1      -3.633 -12.197  15.322  0.00  0.00    -0.219 NA
ATOM      8  N   UNL     1      -2.120 -10.631  16.354  0.00  0.00    -0.223 NA
ATOM     15  C   UNL     1      -3.322 -11.259  16.255  0.00  0.00    +0.216 A 
ATOM     18  C   UNL     1      -2.656 -12.505  14.444  0.00  0.00    +0.052 A 
ATOM     19  C   UNL     1      -1.402 -11.928  14.458  0.00  0.00    +0.043 A 
ATOM     23  C   UNL     1      -1.188 -10.989  15.446  0.00  0.00    +0.116 A 
ATOM     26  H   UNL     1      -4.075 -10.180  17.829  0.00  0.00    +0.149 HD
BRANCH  18  17
ATOM     17  C   UNL     1      -2.979 -13.534  13.413  0.00  0.00    +0.005 C 
ATOM     20  C   UNL     1      -1.922 -14.681  13.406  0.00  0.00    +0.017 C 
ATOM     21  C   UNL     1      -3.008 -12.911  11.983  0.00  0.00    +0.017 C 
ATOM     22  C   UNL     1      -4.363 -14.244  13.585  0.00  0.00    +0.017 C 
ENDBRANCH  18  17
ENDBRANCH  11   4
BRANCH  12   5
ATOM      3  O   UNL     1     -10.940  -7.894  17.431  0.00  0.00    -0.253 OA
ATOM      5  N   UNL     1      -8.850  -8.414  16.566  0.00  0.00    -0.292 N 
ATOM      7  N   UNL     1     -10.057  -6.675  15.666  0.00  0.00    -0.300 N 
ATOM     16  C   UNL     1     -10.033  -7.681  16.629  0.00  0.00    +0.300 C 
ATOM     27  H   UNL     1      -8.134  -8.116  15.910  0.00  0.00    +0.151 HD
ATOM     28  H   UNL     1      -9.261  -6.573  15.043  0.00  0.00    +0.150 HD
BRANCH   7  24
ATOM     24  C   UNL     1     -11.168  -5.767  15.511  0.00  0.00    +0.102 C 
ATOM     25  C   UNL     1     -12.130  -6.244  14.443  0.00  0.00    +0.024 C 
ENDBRANCH   7  24
ENDBRANCH  12   5
TORSDOF 4
ENDMDL
MODEL 4
REMARK VINA RESULT:      -6.3     18.875     20.856
REMARK  Name = 11941637
REMARK  8 active torsions:
REMARK  status: ('A' for Active; 'I' for Inactive)
REMARK    1  A    between atoms: N_4  and  C_11
REMARK    2  A    between atoms: N_5  and  C_12
REMARK    3  A    between atoms: N_7  and  C_24
REMARK    4  A    between atoms: C_17  and  C_18
REMARK    5  A    between atoms: C_17  and  C_20
REMARK    6  A    between atoms: C_17  and  C_21
REMARK    7  A    between atoms: C_17  and  C_22
REMARK    8  A    between atoms: C_24  and  C_25
REMARK                            x       y       z     vdW  Elec       q    Type
REMARK                         _______ _______ _______ _____ _____    ______ ____
ROOT
ATOM      1  O   UNL     1     -16.360   2.068  24.485  0.00  0.00    -0.370 OA
ATOM      2  O   UNL     1     -17.108   4.858  25.664  0.00  0.00    -0.370 OA
ATOM      9  C   UNL     1     -15.959   4.366  24.955  0.00  0.00    +0.171 C 
ATOM     10  C   UNL     1     -15.715   2.945  25.424  0.00  0.00    +0.171 C 
ATOM     11  C   UNL     1     -16.272   4.222  23.485  0.00  0.00    +0.130 C 
ATOM     12  C   UNL     1     -16.407   2.876  26.766  0.00  0.00    +0.131 C 
ATOM     13  C   UNL     1     -16.915   2.848  23.415  0.00  0.00    +0.185 C 
ATOM     14  C   UNL     1     -17.554   3.856  26.591  0.00  0.00    +0.185 C 
ENDROOT
BRANCH  11   4
ATOM      4  N   UNL     1     -15.049   4.242  22.713  0.00  0.00    -0.306 N 
ATOM      6  N   UNL     1     -15.004   6.587  22.641  0.00  0.00    -0.219 NA
ATOM      8  N   UNL     1     -13.277   5.283  21.580  0.00  0.00    -0.223 NA
ATOM     15  C   UNL     1     -14.425   5.405  22.299  0.00  0.00    +0.216 A 
ATOM     18  C   UNL     1     -14.369   7.700  22.222  0.00  0.00    +0.052 A 
ATOM     19  C   UNL     1     -13.200   7.686  21.488  0.00  0.00    +0.043 A 
ATOM     23  C   UNL     1     -12.695   6.437  21.192  0.00  0.00    +0.116 A 
ATOM     26  H   UNL     1     -14.581   3.369  22.497  0.00  0.00    +0.149 HD
BRANCH  18  17
ATOM     17  C   UNL     1     -14.990   9.007  22.588  0.00  0.00    +0.005 C 
ATOM     20  C   UNL     1     -13.932   9.995  23.165  0.00  0.00    +0.017 C 
ATOM     21  C   UNL     1     -16.100   8.820  23.669  0.00  0.00    +0.017 C 
ATOM     22  C   UNL     1     -15.680   9.774  21.412  0.00  0.00    +0.017 C 
ENDBRANCH  18  17
ENDBRANCH  11   4
BRANCH  12   5
ATOM      3  O   UNL     1     -15.501   1.278  28.992  0.00  0.00    -0.253 OA
ATOM      5  N   UNL     1     -15.524   3.289  27.831  0.00  0.00    -0.292 N 
ATOM      7  N   UNL     1     -14.283   3.098  29.758  0.00  0.00    -0.300 N 
ATOM     16  C   UNL     1     -15.137   2.447  28.871  0.00  0.00    +0.300 C 
ATOM     27  H   UNL     1     -15.114   4.217  27.786  0.00  0.00    +0.151 HD
ATOM     28  H   UNL     1     -14.036   4.067  29.580  0.00  0.00    +0.150 HD
BRANCH   7  24
ATOM     24  C   UNL     1     -13.733   2.456  30.928  0.00  0.00    +0.102 C 
ATOM     25  C   UNL     1     -13.345   3.467  31.987  0.00  0.00    +0.024 C 
ENDBRANCH   7  24
ENDBRANCH  12   5
TORSDOF 4
ENDMDL
MODEL 5
REMARK VINA RESULT:      -6.2     24.497     27.498
REMARK  Name = 11941637
REMARK  8 active torsions:
REMARK  status: ('A' for Active; 'I' for Inactive)
REMARK    1  A    between atoms: N_4  and  C_11
REMARK    2  A    between atoms: N_5  and  C_12
REMARK    3  A    between atoms: N_7  and  C_24
REMARK    4  A    between atoms: C_17  and  C_18
REMARK    5  A    between atoms: C_17  and  C_20
REMARK    6  A    between atoms: C_17  and  C_21
REMARK    7  A    between atoms: C_17  and  C_22
REMARK    8  A    between atoms: C_24  and  C_25
REMARK                            x       y       z     vdW  Elec       q    Type
REMARK                         _______ _______ _______ _____ _____    ______ ____
ROOT
ATOM      1  O   UNL     1      11.900   9.280   5.271  0.00  0.00    -0.370 OA
ATOM      2  O   UNL     1      13.989   6.998   4.870  0.00  0.00    -0.370 OA
ATOM      9  C   UNL     1      12.656   7.209   4.376  0.00  0.00    +0.171 C 
ATOM     10  C   UNL     1      11.861   7.860   5.490  0.00  0.00    +0.171 C 
ATOM     11  C   UNL     1      12.663   8.242   3.274  0.00  0.00    +0.130 C 
ATOM     12  C   UNL     1      12.624   7.502   6.745  0.00  0.00    +0.131 C 
ATOM     13  C   UNL     1      12.595   9.549   4.044  0.00  0.00    +0.185 C 
ATOM     14  C   UNL     1      14.054   7.416   6.242  0.00  0.00    +0.185 C 
ENDROOT
BRANCH  11   4
ATOM      4  N   UNL     1      11.490   8.089   2.444  0.00  0.00    -0.306 N 
ATOM      6  N   UNL     1      12.339   6.162   1.409  0.00  0.00    -0.219 NA
ATOM      8  N   UNL     1      10.175   7.036   0.810  0.00  0.00    -0.223 NA
ATOM     15  C   UNL     1      11.330   7.065   1.527  0.00  0.00    +0.216 A 
ATOM     18  C   UNL     1      12.150   5.176   0.507  0.00  0.00    +0.052 A 
ATOM     19  C   UNL     1      11.015   5.056  -0.270  0.00  0.00    +0.043 A 
ATOM     23  C   UNL     1      10.052   6.024  -0.075  0.00  0.00    +0.116 A 
ATOM     26  H   UNL     1      10.709   8.726   2.559  0.00  0.00    +0.149 HD
BRANCH  18  17
ATOM     17  C   UNL     1      13.248   4.176   0.365  0.00  0.00    +0.005 C 
ATOM     20  C   UNL     1      13.048   3.294  -0.905  0.00  0.00    +0.017 C 
ATOM     21  C   UNL     1      13.306   3.222   1.598  0.00  0.00    +0.017 C 
ATOM     22  C   UNL     1      14.688   4.775   0.233  0.00  0.00    +0.017 C 
ENDBRANCH  18  17
ENDBRANCH  11   4
BRANCH  12   5
ATOM      3  O   UNL     1      10.026   6.891   7.842  0.00  0.00    -0.253 OA
ATOM      5  N   UNL     1      12.182   6.237   7.282  0.00  0.00    -0.292 N 
ATOM      7  N   UNL     1      10.743   4.722   8.245  0.00  0.00    -0.300 N 
ATOM     16  C   UNL     1      10.903   6.030   7.794  0.00  0.00    +0.300 C 
ATOM     27  H   UNL     1      12.811   5.442   7.227  0.00  0.00    +0.151 HD
ATOM     28  H   UNL     1      11.523   4.078   8.167  0.00  0.00    +0.150 HD
BRANCH   7  24
ATOM     24  C   UNL     1       9.512   4.239   8.824  0.00  0.00    +0.102 C 
ATOM     25  C   UNL     1       9.413   4.592  10.294  0.00  0.00    +0.024 C 
ENDBRANCH   7  24
ENDBRANCH  12   5
TORSDOF 4
ENDMDL
MODEL 6
REMARK VINA RESULT:      -6.2      4.339      7.533
REMARK  Name = 11941637
REMARK  8 active torsions:
REMARK  status: ('A' for Active; 'I' for Inactive)
REMARK    1  A    between atoms: N_4  and  C_11
REMARK    2  A    between atoms: N_5  and  C_12
REMARK    3  A    between atoms: N_7  and  C_24
REMARK    4  A    between atoms: C_17  and  C_18
REMARK    5  A    between atoms: C_17  and  C_20
REMARK    6  A    between atoms: C_17  and  C_21
REMARK    7  A    between atoms: C_17  and  C_22
REMARK    8  A    between atoms: C_24  and  C_25
REMARK                            x       y       z     vdW  Elec       q    Type
REMARK                         _______ _______ _______ _____ _____    ______ ____
ROOT
ATOM      1  O   UNL     1     -11.040  -5.891  16.295  0.00  0.00    -0.370 OA
ATOM      2  O   UNL     1     -12.563  -8.178  14.819  0.00  0.00    -0.370 OA
ATOM      9  C   UNL     1     -11.178  -7.800  14.882  0.00  0.00    +0.171 C 
ATOM     10  C   UNL     1     -11.126  -6.286  14.916  0.00  0.00    +0.171 C 
ATOM     11  C   UNL     1     -10.580  -8.221  16.204  0.00  0.00    +0.130 C 
ATOM     12  C   UNL     1     -12.453  -5.858  14.331  0.00  0.00    +0.131 C 
ATOM     13  C   UNL     1     -10.947  -7.064  17.117  0.00  0.00    +0.185 C 
ATOM     14  C   UNL     1     -13.372  -6.994  14.746  0.00  0.00    +0.185 C 
ENDROOT
BRANCH  11   4
ATOM      4  N   UNL     1      -9.143  -8.328  16.085  0.00  0.00    -0.306 N 
ATOM      6  N   UNL     1      -9.047 -10.149  17.562  0.00  0.00    -0.219 NA
ATOM      8  N   UNL     1      -7.044  -9.269  16.550  0.00  0.00    -0.223 NA
ATOM     15  C   UNL     1      -8.389  -9.277  16.752  0.00  0.00    +0.216 A 
ATOM     18  C   UNL     1      -8.281 -11.061  18.196  0.00  0.00    +0.052 A 
ATOM     19  C   UNL     1      -6.910 -11.139  18.060  0.00  0.00    +0.043 A 
ATOM     23  C   UNL     1      -6.340 -10.207  17.217  0.00  0.00    +0.116 A 
ATOM     26  H   UNL     1      -8.648  -7.716  15.445  0.00  0.00    +0.149 HD
BRANCH  18  17
ATOM     17  C   UNL     1      -8.987 -12.026  19.089  0.00  0.00    +0.005 C 
ATOM     20  C   UNL     1     -10.001 -11.296  20.022  0.00  0.00    +0.017 C 
ATOM     21  C   UNL     1      -7.979 -12.795  19.997  0.00  0.00    +0.017 C 
ATOM     22  C   UNL     1      -9.817 -13.133  18.357  0.00  0.00    +0.017 C 
ENDBRANCH  18  17
ENDBRANCH  11   4
BRANCH  12   5
ATOM      3  O   UNL     1     -12.350  -3.426  12.781  0.00  0.00    -0.253 OA
ATOM      5  N   UNL     1     -12.378  -5.745  12.894  0.00  0.00    -0.292 N 
ATOM      7  N   UNL     1     -12.262  -4.703  10.846  0.00  0.00    -0.300 N 
ATOM     16  C   UNL     1     -12.332  -4.523  12.225  0.00  0.00    +0.300 C 
ATOM     27  H   UNL     1     -12.290  -6.595  12.345  0.00  0.00    +0.151 HD
ATOM     28  H   UNL     1     -12.252  -5.647  10.474  0.00  0.00    +0.150 HD
BRANCH   7  24
ATOM     24  C   UNL     1     -12.204  -3.600   9.916  0.00  0.00    +0.102 C 
ATOM     25  C   UNL     1     -10.899  -3.589   9.147  0.00  0.00    +0.024 C 
ENDBRANCH   7  24
ENDBRANCH  12   5
TORSDOF 4
ENDMDL
MODEL 7
REMARK VINA RESULT:      -6.1     25.887     29.573
REMARK  Name = 11941637
REMARK  8 active torsions:
REMARK  status: ('A' for Active; 'I' for Inactive)
REMARK    1  A    between atoms: N_4  and  C_11
REMARK    2  A    between atoms: N_5  and  C_12
REMARK    3  A    between atoms: N_7  and  C_24
REMARK    4  A    between atoms: C_17  and  C_18
REMARK    5  A    between atoms: C_17  and  C_20
REMARK    6  A    between atoms: C_17  and  C_21
REMARK    7  A    between atoms: C_17  and  C_22
REMARK    8  A    between atoms: C_24  and  C_25
REMARK                            x       y       z     vdW  Elec       q    Type
REMARK                         _______ _______ _______ _____ _____    ______ ____
ROOT
ATOM      1  O   UNL     1      13.231   6.527   0.119  0.00  0.00    -0.370 OA
ATOM      2  O   UNL     1      13.433   3.570   1.093  0.00  0.00    -0.370 OA
ATOM      9  C   UNL     1      13.916   4.815   1.623  0.00  0.00    +0.171 C 
ATOM     10  C   UNL     1      14.339   5.672   0.447  0.00  0.00    +0.171 C 
ATOM     11  C   UNL     1      12.784   5.589   2.257  0.00  0.00    +0.130 C 
ATOM     12  C   UNL     1      14.580   4.677  -0.666  0.00  0.00    +0.131 C 
ATOM     13  C   UNL     1      12.177   6.319   1.071  0.00  0.00    +0.185 C 
ATOM     14  C   UNL     1      13.590   3.574  -0.334  0.00  0.00    +0.185 C 
ENDROOT
BRANCH  11   4
ATOM      4  N   UNL     1      13.308   6.538   3.214  0.00  0.00    -0.306 N 
ATOM      6  N   UNL     1      11.521   6.197   4.695  0.00  0.00    -0.219 NA
ATOM      8  N   UNL     1      13.288   7.748   5.224  0.00  0.00    -0.223 NA
ATOM     15  C   UNL     1      12.687   6.837   4.413  0.00  0.00    +0.216 A 
ATOM     18  C   UNL     1      10.943   6.511   5.873  0.00  0.00    +0.052 A 
ATOM     19  C   UNL     1      11.469   7.421   6.767  0.00  0.00    +0.043 A 
ATOM     23  C   UNL     1      12.655   8.015   6.386  0.00  0.00    +0.116 A 
ATOM     26  H   UNL     1      14.203   6.982   3.038  0.00  0.00    +0.149 HD
BRANCH  18  17
ATOM     17  C   UNL     1       9.661   5.819   6.198  0.00  0.00    +0.005 C 
ATOM     20  C   UNL     1       9.364   5.867   7.728  0.00  0.00    +0.017 C 
ATOM     21  C   UNL     1       9.707   4.318   5.774  0.00  0.00    +0.017 C 
ATOM     22  C   UNL     1       8.387   6.408   5.507  0.00  0.00    +0.017 C 
ENDBRANCH  18  17
ENDBRANCH  11   4
BRANCH  12   5
ATOM      3  O   UNL     1      16.626   5.130  -2.650  0.00  0.00    -0.253 OA
ATOM      5  N   UNL     1      15.937   4.186  -0.643  0.00  0.00    -0.292 N 
ATOM      7  N   UNL     1      18.093   3.862  -1.376  0.00  0.00    -0.300 N 
ATOM     16  C   UNL     1      16.863   4.455  -1.649  0.00  0.00    +0.300 C 
ATOM     27  H   UNL     1      16.253   3.674   0.175  0.00  0.00    +0.151 HD
ATOM     28  H   UNL     1      18.198   3.320  -0.524  0.00  0.00    +0.150 HD
BRANCH   7  24
ATOM     24  C   UNL     1      19.231   3.981  -2.257  0.00  0.00    +0.102 C 
ATOM     25  C   UNL     1      20.328   3.006  -1.883  0.00  0.00    +0.024 C 
ENDBRANCH   7  24
ENDBRANCH  12   5
TORSDOF 4
ENDMDL
MODEL 8
REMARK VINA RESULT:      -6.0     18.784     20.304
REMARK  Name = 11941637
REMARK  8 active torsions:
REMARK  status: ('A' for Active; 'I' for Inactive)
REMARK    1  A    between atoms: N_4  and  C_11
REMARK    2  A    between atoms: N_5  and  C_12
REMARK    3  A    between atoms: N_7  and  C_24
REMARK    4  A    between atoms: C_17  and  C_18
REMARK    5  A    between atoms: C_17  and  C_20
REMARK    6  A    between atoms: C_17  and  C_21
REMARK    7  A    between atoms: C_17  and  C_22
REMARK    8  A    between atoms: C_24  and  C_25
REMARK                            x       y       z     vdW  Elec       q    Type
REMARK                         _______ _______ _______ _____ _____    ______ ____
ROOT
ATOM      1  O   UNL     1     -16.467   1.145  25.479  0.00  0.00    -0.370 OA
ATOM      2  O   UNL     1     -18.027   3.506  26.792  0.00  0.00    -0.370 OA
ATOM      9  C   UNL     1     -16.656   3.332  26.398  0.00  0.00    +0.171 C 
ATOM     10  C   UNL     1     -16.283   1.893  26.693  0.00  0.00    +0.171 C 
ATOM     11  C   UNL     1     -16.524   3.449  24.898  0.00  0.00    +0.130 C 
ATOM     12  C   UNL     1     -17.288   1.457  27.734  0.00  0.00    +0.131 C 
ATOM     13  C   UNL     1     -16.848   2.042  24.425  0.00  0.00    +0.185 C 
ATOM     14  C   UNL     1     -18.509   2.285  27.373  0.00  0.00    +0.185 C 
ENDROOT
BRANCH  11   4
ATOM      4  N   UNL     1     -15.164   3.794  24.547  0.00  0.00    -0.306 N 
ATOM      6  N   UNL     1     -15.842   4.978  22.638  0.00  0.00    -0.219 NA
ATOM      8  N   UNL     1     -13.510   4.801  23.221  0.00  0.00    -0.223 NA
ATOM     15  C   UNL     1     -14.829   4.547  23.435  0.00  0.00    +0.216 A 
ATOM     18  C   UNL     1     -15.479   5.710  21.564  0.00  0.00    +0.052 A 
ATOM     19  C   UNL     1     -14.171   6.024  21.257  0.00  0.00    +0.043 A 
ATOM     23  C   UNL     1     -13.219   5.537  22.128  0.00  0.00    +0.116 A 
ATOM     26  H   UNL     1     -14.406   3.522  25.162  0.00  0.00    +0.149 HD
BRANCH  18  17
ATOM     17  C   UNL     1     -16.579   6.191  20.677  0.00  0.00    +0.005 C 
ATOM     20  C   UNL     1     -17.344   4.998  20.026  0.00  0.00    +0.017 C 
ATOM     21  C   UNL     1     -16.024   7.081  19.523  0.00  0.00    +0.017 C 
ATOM     22  C   UNL     1     -17.677   7.057  21.379  0.00  0.00    +0.017 C 
ENDBRANCH  18  17
ENDBRANCH  11   4
BRANCH  12   5
ATOM      3  O   UNL     1     -15.383  -0.043  29.299  0.00  0.00    -0.253 OA
ATOM      5  N   UNL     1     -16.824   1.761  29.067  0.00  0.00    -0.292 N 
ATOM      7  N   UNL     1     -15.628   1.499  31.014  0.00  0.00    -0.300 N 
ATOM     16  C   UNL     1     -15.898   0.978  29.751  0.00  0.00    +0.300 C 
ATOM     27  H   UNL     1     -17.140   2.623  29.504  0.00  0.00    +0.151 HD
ATOM     28  H   UNL     1     -16.102   2.348  31.306  0.00  0.00    +0.150 HD
BRANCH   7  24
ATOM     24  C   UNL     1     -14.703   0.881  31.934  0.00  0.00    +0.102 C 
ATOM     25  C   UNL     1     -14.713   1.572  33.281  0.00  0.00    +0.024 C 
ENDBRANCH   7  24
ENDBRANCH  12   5
TORSDOF 4
ENDMDL
MODEL 9
REMARK VINA RESULT:      -6.0     21.067     24.497
REMARK  Name = 11941637
REMARK  8 active torsions:
REMARK  status: ('A' for Active; 'I' for Inactive)
REMARK    1  A    between atoms: N_4  and  C_11
REMARK    2  A    between atoms: N_5  and  C_12
REMARK    3  A    between atoms: N_7  and  C_24
REMARK    4  A    between atoms: C_17  and  C_18
REMARK    5  A    between atoms: C_17  and  C_20
REMARK    6  A    between atoms: C_17  and  C_21
REMARK    7  A    between atoms: C_17  and  C_22
REMARK    8  A    between atoms: C_24  and  C_25
REMARK                            x       y       z     vdW  Elec       q    Type
REMARK                         _______ _______ _______ _____ _____    ______ ____
ROOT
ATOM      1  O   UNL     1     -15.079   5.749  34.708  0.00  0.00    -0.370 OA
ATOM      2  O   UNL     1     -15.281   6.827  31.788  0.00  0.00    -0.370 OA
ATOM      9  C   UNL     1     -14.665   5.665  32.366  0.00  0.00    +0.171 C 
ATOM     10  C   UNL     1     -14.098   6.078  33.710  0.00  0.00    +0.171 C 
ATOM     11  C   UNL     1     -15.713   4.633  32.708  0.00  0.00    +0.130 C 
ATOM     12  C   UNL     1     -13.945   7.578  33.600  0.00  0.00    +0.131 C 
ATOM     13  C   UNL     1     -16.183   5.079  34.082  0.00  0.00    +0.185 C 
ATOM     14  C   UNL     1     -15.075   7.951  32.657  0.00  0.00    +0.185 C 
ENDROOT
BRANCH  11   4
ATOM      4  N   UNL     1     -15.109   3.321  32.788  0.00  0.00    -0.306 N 
ATOM      6  N   UNL     1     -15.883   2.716  30.657  0.00  0.00    -0.219 NA
ATOM      8  N   UNL     1     -14.576   1.184  31.981  0.00  0.00    -0.223 NA
ATOM     15  C   UNL     1     -15.192   2.379  31.778  0.00  0.00    +0.216 A 
ATOM     18  C   UNL     1     -15.943   1.774  29.693  0.00  0.00    +0.052 A 
ATOM     19  C   UNL     1     -15.353   0.530  29.798  0.00  0.00    +0.043 A 
ATOM     23  C   UNL     1     -14.677   0.288  30.976  0.00  0.00    +0.116 A 
ATOM     26  H   UNL     1     -14.548   3.079  33.597  0.00  0.00    +0.149 HD
BRANCH  18  17
ATOM     17  C   UNL     1     -16.698   2.126  28.455  0.00  0.00    +0.005 C 
ATOM     20  C   UNL     1     -16.680   0.954  27.428  0.00  0.00    +0.017 C 
ATOM     21  C   UNL     1     -16.082   3.377  27.755  0.00  0.00    +0.017 C 
ATOM     22  C   UNL     1     -18.210   2.471  28.668  0.00  0.00    +0.017 C 
ENDBRANCH  18  17
ENDBRANCH  11   4
BRANCH  12   5
ATOM      3  O   UNL     1     -12.412   9.961  34.144  0.00  0.00    -0.253 OA
ATOM      5  N   UNL     1     -12.661   7.933  33.044  0.00  0.00    -0.292 N 
ATOM      7  N   UNL     1     -10.775   9.200  32.687  0.00  0.00    -0.300 N 
ATOM     16  C   UNL     1     -11.989   9.110  33.364  0.00  0.00    +0.300 C 
ATOM     27  H   UNL     1     -12.195   7.263  32.439  0.00  0.00    +0.151 HD
ATOM     28  H   UNL     1     -10.506   8.449  32.060  0.00  0.00    +0.150 HD
BRANCH   7  24
ATOM     24  C   UNL     1      -9.878  10.321  32.836  0.00  0.00    +0.102 C 
ATOM     25  C   UNL     1      -8.969  10.150  34.035  0.00  0.00    +0.024 C 
ENDBRANCH   7  24
ENDBRANCH  12   5
TORSDOF 4
ENDMDL
MODEL 10
REMARK VINA RESULT:      -5.9      4.892      7.696
REMARK  Name = 11941637
REMARK  8 active torsions:
REMARK  status: ('A' for Active; 'I' for Inactive)
REMARK    1  A    between atoms: N_4  and  C_11
REMARK    2  A    between atoms: N_5  and  C_12
REMARK    3  A    between atoms: N_7  and  C_24
REMARK    4  A    between atoms: C_17  and  C_18
REMARK    5  A    between atoms: C_17  and  C_20
REMARK    6  A    between atoms: C_17  and  C_21
REMARK    7  A    between atoms: C_17  and  C_22
REMARK    8  A    between atoms: C_24  and  C_25
REMARK                            x       y       z     vdW  Elec       q    Type
REMARK                         _______ _______ _______ _____ _____    ______ ____
ROOT
ATOM      1  O   UNL     1      -6.334 -11.093  10.718  0.00  0.00    -0.370 OA
ATOM      2  O   UNL     1      -4.572  -8.518  10.759  0.00  0.00    -0.370 OA
ATOM      9  C   UNL     1      -5.888  -8.818  11.254  0.00  0.00    +0.171 C 
ATOM     10  C   UNL     1      -6.544  -9.749  10.253  0.00  0.00    +0.171 C 
ATOM     11  C   UNL     1      -5.798  -9.637  12.519  0.00  0.00    +0.130 C 
ATOM     12  C   UNL     1      -5.777  -9.512   8.972  0.00  0.00    +0.131 C 
ATOM     13  C   UNL     1      -5.665 -11.054  11.988  0.00  0.00    +0.185 C 
ATOM     14  C   UNL     1      -4.393  -9.152   9.483  0.00  0.00    +0.185 C 
ENDROOT
BRANCH  11   4
ATOM      4  N   UNL     1      -7.018  -9.502  13.284  0.00  0.00    -0.306 N 
ATOM      6  N   UNL     1      -6.031 -10.390  15.219  0.00  0.00    -0.219 NA
ATOM      8  N   UNL     1      -8.337  -9.689  15.216  0.00  0.00    -0.223 NA
ATOM     15  C   UNL     1      -7.132  -9.871  14.613  0.00  0.00    +0.216 A 
ATOM     18  C   UNL     1      -6.178 -10.738  16.514  0.00  0.00    +0.052 A 
ATOM     19  C   UNL     1      -7.357 -10.595  17.218  0.00  0.00    +0.043 A 
ATOM     23  C   UNL     1      -8.414 -10.060  16.511  0.00  0.00    +0.116 A 
ATOM     26  H   UNL     1      -7.829  -9.069  12.857  0.00  0.00    +0.149 HD
BRANCH  18  17
ATOM     17  C   UNL     1      -4.980 -11.310  17.196  0.00  0.00    +0.005 C 
ATOM     20  C   UNL     1      -3.664 -10.670  16.658  0.00  0.00    +0.017 C 
ATOM     21  C   UNL     1      -4.882 -12.850  16.968  0.00  0.00    +0.017 C 
ATOM     22  C   UNL     1      -4.935 -11.115  18.748  0.00  0.00    +0.017 C 
ENDBRANCH  18  17
ENDBRANCH  11   4
BRANCH  12   5
ATOM      3  O   UNL     1      -7.978  -9.667   7.113  0.00  0.00    -0.253 OA
ATOM      5  N   UNL     1      -6.353  -8.428   8.212  0.00  0.00    -0.292 N 
ATOM      7  N   UNL     1      -7.775  -7.388   6.733  0.00  0.00    -0.300 N 
ATOM     16  C   UNL     1      -7.420  -8.594   7.332  0.00  0.00    +0.300 C 
ATOM     27  H   UNL     1      -6.005  -7.487   8.373  0.00  0.00    +0.151 HD
ATOM     28  H   UNL     1      -7.256  -6.549   6.975  0.00  0.00    +0.150 HD
BRANCH   7  24
ATOM     24  C   UNL     1      -8.851  -7.276   5.778  0.00  0.00    +0.102 C 
ATOM     25  C   UNL     1     -10.160  -6.925   6.454  0.00  0.00    +0.024 C 
ENDBRANCH   7  24
ENDBRANCH  12   5
TORSDOF 4
ENDMDL
