MODEL 1
REMARK VINA RESULT:      -6.5      0.000      0.000
REMARK  Name = 28962043
REMARK  10 active torsions:
REMARK  status: ('A' for Active; 'I' for Inactive)
REMARK    1  A    between atoms: S_1  and  N_10
REMARK    2  A    between atoms: S_1  and  C_24
REMARK    3  A    between atoms: O_3  and  C_14
REMARK    4  A    between atoms: O_4  and  C_21
REMARK    5  A    between atoms: O_7  and  C_32
REMARK    6  A    between atoms: O_7  and  C_33
REMARK    7  A    between atoms: N_8  and  C_12
REMARK    8  A    between atoms: N_10  and  C_18
REMARK    9  A    between atoms: C_13  and  C_18
REMARK   10  A    between atoms: C_15  and  C_21
REMARK                            x       y       z     vdW  Elec       q    Type
REMARK                         _______ _______ _______ _____ _____    ______ ____
ROOT
ATOM      2  O   UNL     1     -18.375   2.967  24.048  0.00  0.00    -0.366 OA
ATOM     12  C   UNL     1     -17.758   2.721  26.334  0.00  0.00    +0.118 C 
ATOM     13  C   UNL     1     -17.919   3.729  25.189  0.00  0.00    +0.154 C 
ATOM     14  C   UNL     1     -17.505   1.410  25.605  0.00  0.00    +0.165 C 
ATOM     15  C   UNL     1     -18.431   1.573  24.406  0.00  0.00    +0.174 C 
ENDROOT
BRANCH  12   8
ATOM      8  N   UNL     1     -16.782   3.060  27.355  0.00  0.00    -0.292 NA
ATOM      9  N   UNL     1     -15.810   3.418  30.017  0.00  0.00    -0.313 N 
ATOM     11  N   UNL     1     -14.526   4.786  31.460  0.00  0.00    -0.240 NA
ATOM     16  C   UNL     1     -17.263   4.177  28.177  0.00  0.00    +0.104 C 
ATOM     17  C   UNL     1     -16.503   1.898  28.207  0.00  0.00    +0.104 C 
ATOM     19  C   UNL     1     -16.220   4.582  29.220  0.00  0.00    +0.122 C 
ATOM     20  C   UNL     1     -15.433   2.225  29.253  0.00  0.00    +0.122 C 
ATOM     22  C   UNL     1     -15.234   3.650  31.272  0.00  0.00    +0.121 A 
ATOM     23  C   UNL     1     -15.428   2.686  32.247  0.00  0.00    +0.043 A 
ATOM     25  C   UNL     1     -14.860   2.901  33.498  0.00  0.00    +0.005 A 
ATOM     26  C   UNL     1     -13.989   4.962  32.688  0.00  0.00    +0.113 A 
ATOM     29  C   UNL     1     -14.126   4.058  33.731  0.00  0.00    +0.020 A 
ENDBRANCH  12   8
BRANCH  14   3
ATOM      3  O   UNL     1     -16.153   1.306  25.176  0.00  0.00    -0.388 OA
ATOM     34  H   UNL     1     -15.683   0.747  25.818  0.00  0.00    +0.210 HD
ENDBRANCH  14   3
BRANCH  13  18
ATOM     18  C   UNL     1     -16.665   4.480  24.758  0.00  0.00    +0.139 C 
BRANCH  18  10
ATOM     10  N   UNL     1     -16.293   4.066  23.393  0.00  0.00    -0.187 NA
ATOM     35  H   UNL     1     -15.488   3.430  23.322  0.00  0.00    +0.148 HD
BRANCH  10   1
ATOM      1  S   UNL     1     -16.647   5.075  22.067  0.00  0.00    +0.058 S 
ATOM      5  O   UNL     1     -17.479   6.176  22.513  0.00  0.00    -0.153 OA
ATOM      6  O   UNL     1     -17.061   4.253  20.946  0.00  0.00    -0.153 OA
BRANCH   1  24
ATOM     24  C   UNL     1     -15.051   5.723  21.671  0.00  0.00    +0.105 A 
ATOM     27  C   UNL     1     -14.939   6.848  20.855  0.00  0.00    +0.032 A 
ATOM     28  C   UNL     1     -13.905   5.109  22.173  0.00  0.00    +0.032 A 
ATOM     30  C   UNL     1     -13.680   7.359  20.541  0.00  0.00    +0.047 A 
ATOM     31  C   UNL     1     -12.644   5.619  21.860  0.00  0.00    +0.047 A 
ATOM     32  C   UNL     1     -12.533   6.744  21.043  0.00  0.00    +0.120 A 
BRANCH  32   7
ATOM      7  O   UNL     1     -11.304   7.243  20.736  0.00  0.00    -0.495 OA
ATOM     33  C   UNL     1     -11.241   8.229  19.706  0.00  0.00    +0.277 C 
ENDBRANCH  32   7
ENDBRANCH   1  24
ENDBRANCH  10   1
ENDBRANCH  18  10
ENDBRANCH  13  18
BRANCH  15  21
ATOM     21  C   UNL     1     -18.083   0.731  23.192  0.00  0.00    +0.190 C 
BRANCH  21   4
ATOM      4  O   UNL     1     -17.273   1.500  22.317  0.00  0.00    -0.392 OA
ATOM     36  H   UNL     1     -17.738   2.340  22.161  0.00  0.00    +0.210 HD
ENDBRANCH  21   4
ENDBRANCH  15  21
TORSDOF 9
ENDMDL
MODEL 2
REMARK VINA RESULT:      -6.3     16.189     19.239
REMARK  Name = 28962043
REMARK  10 active torsions:
REMARK  status: ('A' for Active; 'I' for Inactive)
REMARK    1  A    between atoms: S_1  and  N_10
REMARK    2  A    between atoms: S_1  and  C_24
REMARK    3  A    between atoms: O_3  and  C_14
REMARK    4  A    between atoms: O_4  and  C_21
REMARK    5  A    between atoms: O_7  and  C_32
REMARK    6  A    between atoms: O_7  and  C_33
REMARK    7  A    between atoms: N_8  and  C_12
REMARK    8  A    between atoms: N_10  and  C_18
REMARK    9  A    between atoms: C_13  and  C_18
REMARK   10  A    between atoms: C_15  and  C_21
REMARK                            x       y       z     vdW  Elec       q    Type
REMARK                         _______ _______ _______ _____ _____    ______ ____
ROOT
ATOM      2  O   UNL     1      -9.978 -11.518  17.421  0.00  0.00    -0.366 OA
ATOM     12  C   UNL     1     -11.248  -9.695  16.567  0.00  0.00    +0.118 C 
ATOM     13  C   UNL     1     -10.318 -10.852  16.182  0.00  0.00    +0.154 C 
ATOM     14  C   UNL     1     -10.849  -9.395  18.004  0.00  0.00    +0.165 C 
ATOM     15  C   UNL     1     -10.578 -10.804  18.519  0.00  0.00    +0.174 C 
ENDROOT
BRANCH  12   8
ATOM      8  N   UNL     1     -11.249  -8.549  15.673  0.00  0.00    -0.292 NA
ATOM      9  N   UNL     1     -12.416  -6.492  14.071  0.00  0.00    -0.313 N 
ATOM     11  N   UNL     1     -12.292  -5.297  12.032  0.00  0.00    -0.240 NA
ATOM     16  C   UNL     1     -11.917  -8.882  14.409  0.00  0.00    +0.104 C 
ATOM     17  C   UNL     1     -11.916  -7.404  16.304  0.00  0.00    +0.104 C 
ATOM     19  C   UNL     1     -11.875  -7.701  13.438  0.00  0.00    +0.122 C 
ATOM     20  C   UNL     1     -11.875  -6.172  15.396  0.00  0.00    +0.122 C 
ATOM     22  C   UNL     1     -12.873  -5.462  13.240  0.00  0.00    +0.121 A 
ATOM     23  C   UNL     1     -13.904  -4.670  13.720  0.00  0.00    +0.043 A 
ATOM     25  C   UNL     1     -14.367  -3.642  12.908  0.00  0.00    +0.005 A 
ATOM     26  C   UNL     1     -12.768  -4.288  11.269  0.00  0.00    +0.113 A 
ATOM     29  C   UNL     1     -13.794  -3.441  11.657  0.00  0.00    +0.020 A 
ENDBRANCH  12   8
BRANCH  14   3
ATOM      3  O   UNL     1      -9.666  -8.610  18.063  0.00  0.00    -0.388 OA
ATOM     34  H   UNL     1      -9.839  -7.863  18.662  0.00  0.00    +0.210 HD
ENDBRANCH  14   3
BRANCH  13  18
ATOM     18  C   UNL     1      -9.009 -10.479  15.497  0.00  0.00    +0.139 C 
BRANCH  18  10
ATOM     10  N   UNL     1      -7.917 -11.303  16.048  0.00  0.00    -0.187 NA
ATOM     35  H   UNL     1      -8.122 -12.305  16.152  0.00  0.00    +0.148 HD
BRANCH  10   1
ATOM      1  S   UNL     1      -6.752 -10.604  17.074  0.00  0.00    +0.058 S 
ATOM      5  O   UNL     1      -6.522 -11.482  18.205  0.00  0.00    -0.153 OA
ATOM      6  O   UNL     1      -7.088  -9.209  17.289  0.00  0.00    -0.153 OA
BRANCH   1  24
ATOM     24  C   UNL     1      -5.308 -10.636  16.055  0.00  0.00    +0.105 A 
ATOM     27  C   UNL     1      -5.434 -10.592  14.667  0.00  0.00    +0.032 A 
ATOM     28  C   UNL     1      -4.044 -10.707  16.640  0.00  0.00    +0.032 A 
ATOM     30  C   UNL     1      -4.294 -10.618  13.863  0.00  0.00    +0.047 A 
ATOM     31  C   UNL     1      -2.904 -10.733  15.836  0.00  0.00    +0.047 A 
ATOM     32  C   UNL     1      -3.030 -10.689  14.448  0.00  0.00    +0.120 A 
BRANCH  32   7
ATOM      7  O   UNL     1      -1.918 -10.716  13.663  0.00  0.00    -0.495 OA
ATOM     33  C   UNL     1      -1.906 -11.650  12.584  0.00  0.00    +0.277 C 
ENDBRANCH  32   7
ENDBRANCH   1  24
ENDBRANCH  10   1
ENDBRANCH  18  10
ENDBRANCH  13  18
BRANCH  15  21
ATOM     21  C   UNL     1      -9.668 -10.893  19.730  0.00  0.00    +0.190 C 
BRANCH  21   4
ATOM      4  O   UNL     1     -10.147 -10.007  20.730  0.00  0.00    -0.392 OA
ATOM     36  H   UNL     1      -9.793 -10.318  21.581  0.00  0.00    +0.210 HD
ENDBRANCH  21   4
ENDBRANCH  15  21
TORSDOF 9
ENDMDL
MODEL 3
REMARK VINA RESULT:      -6.2     31.120     36.470
REMARK  Name = 28962043
REMARK  10 active torsions:
REMARK  status: ('A' for Active; 'I' for Inactive)
REMARK    1  A    between atoms: S_1  and  N_10
REMARK    2  A    between atoms: S_1  and  C_24
REMARK    3  A    between atoms: O_3  and  C_14
REMARK    4  A    between atoms: O_4  and  C_21
REMARK    5  A    between atoms: O_7  and  C_32
REMARK    6  A    between atoms: O_7  and  C_33
REMARK    7  A    between atoms: N_8  and  C_12
REMARK    8  A    between atoms: N_10  and  C_18
REMARK    9  A    between atoms: C_13  and  C_18
REMARK   10  A    between atoms: C_15  and  C_21
REMARK                            x       y       z     vdW  Elec       q    Type
REMARK                         _______ _______ _______ _____ _____    ______ ____
ROOT
ATOM      2  O   UNL     1       9.066   5.817   6.663  0.00  0.00    -0.366 OA
ATOM     12  C   UNL     1      11.069   7.071   6.382  0.00  0.00    +0.118 C 
ATOM     13  C   UNL     1      10.030   6.206   5.658  0.00  0.00    +0.154 C 
ATOM     14  C   UNL     1      10.987   6.578   7.819  0.00  0.00    +0.165 C 
ATOM     15  C   UNL     1       9.489   6.325   7.943  0.00  0.00    +0.174 C 
ENDROOT
BRANCH  12   8
ATOM      8  N   UNL     1      12.404   7.086   5.808  0.00  0.00    -0.292 NA
ATOM      9  N   UNL     1      14.956   8.199   5.171  0.00  0.00    -0.313 N 
ATOM     11  N   UNL     1      16.632   8.420   3.514  0.00  0.00    -0.240 NA
ATOM     16  C   UNL     1      12.520   8.149   4.801  0.00  0.00    +0.104 C 
ATOM     17  C   UNL     1      13.413   7.279   6.856  0.00  0.00    +0.104 C 
ATOM     19  C   UNL     1      13.903   8.138   4.149  0.00  0.00    +0.122 C 
ATOM     20  C   UNL     1      14.828   7.241   6.272  0.00  0.00    +0.122 C 
ATOM     22  C   UNL     1      16.224   8.646   4.782  0.00  0.00    +0.121 A 
ATOM     23  C   UNL     1      16.988   9.297   5.738  0.00  0.00    +0.043 A 
ATOM     25  C   UNL     1      18.251   9.745   5.368  0.00  0.00    +0.005 A 
ATOM     26  C   UNL     1      17.865   8.870   3.190  0.00  0.00    +0.113 A 
ATOM     29  C   UNL     1      18.705   9.532   4.071  0.00  0.00    +0.020 A 
ENDBRANCH  12   8
BRANCH  14   3
ATOM      3  O   UNL     1      11.710   5.368   7.996  0.00  0.00    -0.388 OA
ATOM     34  H   UNL     1      12.286   5.253   7.221  0.00  0.00    +0.210 HD
ENDBRANCH  14   3
BRANCH  13  18
ATOM     18  C   UNL     1      10.541   4.928   5.004  0.00  0.00    +0.139 C 
BRANCH  18  10
ATOM     10  N   UNL     1      11.319   5.272   3.800  0.00  0.00    -0.187 NA
ATOM     35  H   UNL     1      11.543   6.268   3.682  0.00  0.00    +0.148 HD
BRANCH  10   1
ATOM      1  S   UNL     1      11.219   4.293   2.410  0.00  0.00    +0.058 S 
ATOM      5  O   UNL     1      10.198   4.821   1.525  0.00  0.00    -0.153 OA
ATOM      6  O   UNL     1      11.187   2.901   2.813  0.00  0.00    -0.153 OA
BRANCH   1  24
ATOM     24  C   UNL     1      12.793   4.576   1.657  0.00  0.00    +0.105 A 
ATOM     27  C   UNL     1      13.096   5.830   1.126  0.00  0.00    +0.032 A 
ATOM     28  C   UNL     1      13.730   3.546   1.592  0.00  0.00    +0.032 A 
ATOM     30  C   UNL     1      14.338   6.053   0.530  0.00  0.00    +0.047 A 
ATOM     31  C   UNL     1      14.972   3.768   0.996  0.00  0.00    +0.047 A 
ATOM     32  C   UNL     1      15.275   5.022   0.465  0.00  0.00    +0.120 A 
BRANCH  32   7
ATOM      7  O   UNL     1      16.486   5.240  -0.116  0.00  0.00    -0.495 OA
ATOM     33  C   UNL     1      16.832   4.413  -1.227  0.00  0.00    +0.277 C 
ENDBRANCH  32   7
ENDBRANCH   1  24
ENDBRANCH  10   1
ENDBRANCH  18  10
ENDBRANCH  13  18
BRANCH  15  21
ATOM     21  C   UNL     1       9.080   5.348   9.030  0.00  0.00    +0.190 C 
BRANCH  21   4
ATOM      4  O   UNL     1       9.446   4.037   8.630  0.00  0.00    -0.392 OA
ATOM     36  H   UNL     1      10.338   3.870   8.980  0.00  0.00    +0.210 HD
ENDBRANCH  21   4
ENDBRANCH  15  21
TORSDOF 9
ENDMDL
MODEL 4
REMARK VINA RESULT:      -6.1     19.395     21.851
REMARK  Name = 28962043
REMARK  10 active torsions:
REMARK  status: ('A' for Active; 'I' for Inactive)
REMARK    1  A    between atoms: S_1  and  N_10
REMARK    2  A    between atoms: S_1  and  C_24
REMARK    3  A    between atoms: O_3  and  C_14
REMARK    4  A    between atoms: O_4  and  C_21
REMARK    5  A    between atoms: O_7  and  C_32
REMARK    6  A    between atoms: O_7  and  C_33
REMARK    7  A    between atoms: N_8  and  C_12
REMARK    8  A    between atoms: N_10  and  C_18
REMARK    9  A    between atoms: C_13  and  C_18
REMARK   10  A    between atoms: C_15  and  C_21
REMARK                            x       y       z     vdW  Elec       q    Type
REMARK                         _______ _______ _______ _____ _____    ______ ____
ROOT
ATOM      2  O   UNL     1      -8.125 -10.119   7.309  0.00  0.00    -0.366 OA
ATOM     12  C   UNL     1      -6.702 -10.586   9.159  0.00  0.00    +0.118 C 
ATOM     13  C   UNL     1      -8.137 -10.230   8.751  0.00  0.00    +0.154 C 
ATOM     14  C   UNL     1      -5.869 -10.018   8.020  0.00  0.00    +0.165 C 
ATOM     15  C   UNL     1      -6.779 -10.312   6.833  0.00  0.00    +0.174 C 
ENDROOT
BRANCH  12   8
ATOM      8  N   UNL     1      -6.293 -10.173  10.491  0.00  0.00    -0.292 NA
ATOM      9  N   UNL     1      -5.245 -10.529  13.124  0.00  0.00    -0.313 N 
ATOM     11  N   UNL     1      -5.464  -9.949  15.408  0.00  0.00    -0.240 NA
ATOM     16  C   UNL     1      -7.076 -10.879  11.513  0.00  0.00    +0.104 C 
ATOM     17  C   UNL     1      -4.862 -10.430  10.693  0.00  0.00    +0.104 C 
ATOM     19  C   UNL     1      -6.694 -10.411  12.918  0.00  0.00    +0.122 C 
ATOM     20  C   UNL     1      -4.405  -9.948  12.072  0.00  0.00    +0.122 C 
ATOM     22  C   UNL     1      -4.770 -10.586  14.440  0.00  0.00    +0.121 A 
ATOM     23  C   UNL     1      -3.603 -11.300  14.663  0.00  0.00    +0.043 A 
ATOM     25  C   UNL     1      -3.118 -11.364  15.964  0.00  0.00    +0.005 A 
ATOM     26  C   UNL     1      -4.963 -10.034  16.661  0.00  0.00    +0.113 A 
ATOM     29  C   UNL     1      -3.805 -10.722  16.988  0.00  0.00    +0.020 A 
ENDBRANCH  12   8
BRANCH  14   3
ATOM      3  O   UNL     1      -5.679  -8.616   8.163  0.00  0.00    -0.388 OA
ATOM     34  H   UNL     1      -5.495  -8.438   9.101  0.00  0.00    +0.210 HD
ENDBRANCH  14   3
BRANCH  13  18
ATOM     18  C   UNL     1      -8.700  -8.924   9.299  0.00  0.00    +0.139 C 
BRANCH  18  10
ATOM     10  N   UNL     1      -9.534  -8.280   8.268  0.00  0.00    -0.187 NA
ATOM     35  H   UNL     1     -10.004  -8.916   7.612  0.00  0.00    +0.148 HD
BRANCH  10   1
ATOM      1  S   UNL     1      -9.180  -6.697   7.749  0.00  0.00    +0.058 S 
ATOM      5  O   UNL     1      -9.616  -6.536   6.374  0.00  0.00    -0.153 OA
ATOM      6  O   UNL     1      -7.819  -6.369   8.126  0.00  0.00    -0.153 OA
BRANCH   1  24
ATOM     24  C   UNL     1     -10.248  -5.734   8.775  0.00  0.00    +0.105 A 
ATOM     27  C   UNL     1     -11.203  -6.364   9.573  0.00  0.00    +0.032 A 
ATOM     28  C   UNL     1     -10.137  -4.344   8.787  0.00  0.00    +0.032 A 
ATOM     30  C   UNL     1     -12.047  -5.604  10.383  0.00  0.00    +0.047 A 
ATOM     31  C   UNL     1     -10.981  -3.583   9.597  0.00  0.00    +0.047 A 
ATOM     32  C   UNL     1     -11.936  -4.213  10.394  0.00  0.00    +0.120 A 
BRANCH  32   7
ATOM      7  O   UNL     1     -12.760  -3.472  11.184  0.00  0.00    -0.495 OA
ATOM     33  C   UNL     1     -14.071  -3.206  10.687  0.00  0.00    +0.277 C 
ENDBRANCH  32   7
ENDBRANCH   1  24
ENDBRANCH  10   1
ENDBRANCH  18  10
ENDBRANCH  13  18
BRANCH  15  21
ATOM     21  C   UNL     1      -6.553  -9.448   5.607  0.00  0.00    +0.190 C 
BRANCH  21   4
ATOM      4  O   UNL     1      -7.131  -8.172   5.832  0.00  0.00    -0.392 OA
ATOM     36  H   UNL     1      -8.037  -8.202   5.479  0.00  0.00    +0.210 HD
ENDBRANCH  21   4
ENDBRANCH  15  21
TORSDOF 9
ENDMDL
MODEL 5
REMARK VINA RESULT:      -6.1     13.616     16.961
REMARK  Name = 28962043
REMARK  10 active torsions:
REMARK  status: ('A' for Active; 'I' for Inactive)
REMARK    1  A    between atoms: S_1  and  N_10
REMARK    2  A    between atoms: S_1  and  C_24
REMARK    3  A    between atoms: O_3  and  C_14
REMARK    4  A    between atoms: O_4  and  C_21
REMARK    5  A    between atoms: O_7  and  C_32
REMARK    6  A    between atoms: O_7  and  C_33
REMARK    7  A    between atoms: N_8  and  C_12
REMARK    8  A    between atoms: N_10  and  C_18
REMARK    9  A    between atoms: C_13  and  C_18
REMARK   10  A    between atoms: C_15  and  C_21
REMARK                            x       y       z     vdW  Elec       q    Type
REMARK                         _______ _______ _______ _____ _____    ______ ____
ROOT
ATOM      2  O   UNL     1      -4.220  14.229  33.604  0.00  0.00    -0.366 OA
ATOM     12  C   UNL     1      -6.308  13.111  33.835  0.00  0.00    +0.118 C 
ATOM     13  C   UNL     1      -5.000  13.465  34.552  0.00  0.00    +0.154 C 
ATOM     14  C   UNL     1      -5.911  13.129  32.366  0.00  0.00    +0.165 C 
ATOM     15  C   UNL     1      -4.933  14.298  32.354  0.00  0.00    +0.174 C 
ENDROOT
BRANCH  12   8
ATOM      8  N   UNL     1      -6.977  11.900  34.280  0.00  0.00    -0.292 NA
ATOM      9  N   UNL     1      -9.152  10.338  35.276  0.00  0.00    -0.313 N 
ATOM     11  N   UNL     1      -9.794   8.598  36.746  0.00  0.00    -0.240 NA
ATOM     16  C   UNL     1      -7.410  12.035  35.677  0.00  0.00    +0.104 C 
ATOM     17  C   UNL     1      -8.134  11.607  33.426  0.00  0.00    +0.104 C 
ATOM     19  C   UNL     1      -8.065  10.746  36.176  0.00  0.00    +0.122 C 
ATOM     20  C   UNL     1      -8.815  10.303  33.849  0.00  0.00    +0.122 C 
ATOM     22  C   UNL     1     -10.135   9.479  35.779  0.00  0.00    +0.121 A 
ATOM     23  C   UNL     1     -11.408   9.589  35.244  0.00  0.00    +0.043 A 
ATOM     25  C   UNL     1     -12.395   8.741  35.732  0.00  0.00    +0.005 A 
ATOM     26  C   UNL     1     -10.780   7.790  37.197  0.00  0.00    +0.113 A 
ATOM     29  C   UNL     1     -12.084   7.822  36.728  0.00  0.00    +0.020 A 
ENDBRANCH  12   8
BRANCH  14   3
ATOM      3  O   UNL     1      -5.252  11.927  31.991  0.00  0.00    -0.388 OA
ATOM     34  H   UNL     1      -5.787  11.501  31.299  0.00  0.00    +0.210 HD
ENDBRANCH  14   3
BRANCH  13  18
ATOM     18  C   UNL     1      -4.134  12.298  35.011  0.00  0.00    +0.139 C 
BRANCH  18  10
ATOM     10  N   UNL     1      -2.844  12.337  34.300  0.00  0.00    -0.187 NA
ATOM     35  H   UNL     1      -2.760  11.706  33.492  0.00  0.00    +0.148 HD
BRANCH  10   1
ATOM      1  S   UNL     1      -1.425  12.789  35.125  0.00  0.00    +0.058 S 
ATOM      5  O   UNL     1      -0.758  11.600  35.618  0.00  0.00    -0.153 OA
ATOM      6  O   UNL     1      -1.733  13.881  36.030  0.00  0.00    -0.153 OA
BRANCH   1  24
ATOM     24  C   UNL     1      -0.446  13.463  33.817  0.00  0.00    +0.105 A 
ATOM     27  C   UNL     1      -0.659  14.774  33.391  0.00  0.00    +0.032 A 
ATOM     28  C   UNL     1       0.538  12.683  33.211  0.00  0.00    +0.032 A 
ATOM     30  C   UNL     1       0.113  15.305  32.358  0.00  0.00    +0.047 A 
ATOM     31  C   UNL     1       1.311  13.214  32.178  0.00  0.00    +0.047 A 
ATOM     32  C   UNL     1       1.098  14.524  31.752  0.00  0.00    +0.120 A 
BRANCH  32   7
ATOM      7  O   UNL     1       1.851  15.043  30.743  0.00  0.00    -0.495 OA
ATOM     33  C   UNL     1       2.477  14.116  29.857  0.00  0.00    +0.277 C 
ENDBRANCH  32   7
ENDBRANCH   1  24
ENDBRANCH  10   1
ENDBRANCH  18  10
ENDBRANCH  13  18
BRANCH  15  21
ATOM     21  C   UNL     1      -3.937  14.304  31.209  0.00  0.00    +0.190 C 
BRANCH  21   4
ATOM      4  O   UNL     1      -3.016  13.241  31.396  0.00  0.00    -0.392 OA
ATOM     36  H   UNL     1      -2.124  13.615  31.299  0.00  0.00    +0.210 HD
ENDBRANCH  21   4
ENDBRANCH  15  21
TORSDOF 9
ENDMDL
MODEL 6
REMARK VINA RESULT:      -6.1     17.200     20.227
REMARK  Name = 28962043
REMARK  10 active torsions:
REMARK  status: ('A' for Active; 'I' for Inactive)
REMARK    1  A    between atoms: S_1  and  N_10
REMARK    2  A    between atoms: S_1  and  C_24
REMARK    3  A    between atoms: O_3  and  C_14
REMARK    4  A    between atoms: O_4  and  C_21
REMARK    5  A    between atoms: O_7  and  C_32
REMARK    6  A    between atoms: O_7  and  C_33
REMARK    7  A    between atoms: N_8  and  C_12
REMARK    8  A    between atoms: N_10  and  C_18
REMARK    9  A    between atoms: C_13  and  C_18
REMARK   10  A    between atoms: C_15  and  C_21
REMARK                            x       y       z     vdW  Elec       q    Type
REMARK                         _______ _______ _______ _____ _____    ______ ____
ROOT
ATOM      2  O   UNL     1      -7.785 -11.030  19.666  0.00  0.00    -0.366 OA
ATOM     12  C   UNL     1      -6.384 -11.627  17.837  0.00  0.00    +0.118 C 
ATOM     13  C   UNL     1      -7.085 -10.457  18.538  0.00  0.00    +0.154 C 
ATOM     14  C   UNL     1      -7.247 -12.822  18.216  0.00  0.00    +0.165 C 
ATOM     15  C   UNL     1      -7.612 -12.460  19.651  0.00  0.00    +0.174 C 
ENDROOT
BRANCH  12   8
ATOM      8  N   UNL     1      -6.138 -11.468  16.414  0.00  0.00    -0.292 NA
ATOM      9  N   UNL     1      -4.657 -10.709  14.092  0.00  0.00    -0.313 N 
ATOM     11  N   UNL     1      -4.764  -9.729  11.941  0.00  0.00    -0.240 NA
ATOM     16  C   UNL     1      -5.961 -10.050  16.077  0.00  0.00    +0.104 C 
ATOM     17  C   UNL     1      -4.951 -12.230  16.008  0.00  0.00    +0.104 C 
ATOM     19  C   UNL     1      -5.758  -9.864  14.572  0.00  0.00    +0.122 C 
ATOM     20  C   UNL     1      -4.713 -12.117  14.500  0.00  0.00    +0.122 C 
ATOM     22  C   UNL     1      -4.035 -10.359  12.888  0.00  0.00    +0.121 A 
ATOM     23  C   UNL     1      -2.697 -10.689  12.745  0.00  0.00    +0.043 A 
ATOM     25  C   UNL     1      -2.067 -10.349  11.554  0.00  0.00    +0.005 A 
ATOM     26  C   UNL     1      -4.118  -9.413  10.796  0.00  0.00    +0.113 A 
ATOM     29  C   UNL     1      -2.783  -9.699  10.556  0.00  0.00    +0.020 A 
ENDBRANCH  12   8
BRANCH  14   3
ATOM      3  O   UNL     1      -8.416 -12.896  17.411  0.00  0.00    -0.388 OA
ATOM     34  H   UNL     1      -8.751 -11.991  17.294  0.00  0.00    +0.210 HD
ENDBRANCH  14   3
BRANCH  13  18
ATOM     18  C   UNL     1      -8.110  -9.683  17.717  0.00  0.00    +0.139 C 
BRANCH  18  10
ATOM     10  N   UNL     1      -9.320  -9.461  18.530  0.00  0.00    -0.187 NA
ATOM     35  H   UNL     1      -9.179  -9.453  19.549  0.00  0.00    +0.148 HD
BRANCH  10   1
ATOM      1  S   UNL     1     -10.849  -9.908  17.927  0.00  0.00    +0.058 S 
ATOM      5  O   UNL     1     -11.824  -9.840  18.999  0.00  0.00    -0.153 OA
ATOM      6  O   UNL     1     -10.711 -11.119  17.141  0.00  0.00    -0.153 OA
BRANCH   1  24
ATOM     24  C   UNL     1     -11.188  -8.593  16.796  0.00  0.00    +0.105 A 
ATOM     27  C   UNL     1     -11.888  -8.852  15.617  0.00  0.00    +0.032 A 
ATOM     28  C   UNL     1     -10.756  -7.299  17.081  0.00  0.00    +0.032 A 
ATOM     30  C   UNL     1     -12.155  -7.815  14.723  0.00  0.00    +0.047 A 
ATOM     31  C   UNL     1     -11.023  -6.261  16.187  0.00  0.00    +0.047 A 
ATOM     32  C   UNL     1     -11.722  -6.520  15.009  0.00  0.00    +0.120 A 
BRANCH  32   7
ATOM      7  O   UNL     1     -11.983  -5.508  14.136  0.00  0.00    -0.495 OA
ATOM     33  C   UNL     1     -12.632  -5.855  12.914  0.00  0.00    +0.277 C 
ENDBRANCH  32   7
ENDBRANCH   1  24
ENDBRANCH  10   1
ENDBRANCH  18  10
ENDBRANCH  13  18
BRANCH  15  21
ATOM     21  C   UNL     1      -8.866 -13.122  20.192  0.00  0.00    +0.190 C 
BRANCH  21   4
ATOM      4  O   UNL     1      -9.971 -12.259  19.974  0.00  0.00    -0.392 OA
ATOM     36  H   UNL     1     -10.633 -12.464  20.656  0.00  0.00    +0.210 HD
ENDBRANCH  21   4
ENDBRANCH  15  21
TORSDOF 9
ENDMDL
MODEL 7
REMARK VINA RESULT:      -6.0      1.970      2.771
REMARK  Name = 28962043
REMARK  10 active torsions:
REMARK  status: ('A' for Active; 'I' for Inactive)
REMARK    1  A    between atoms: S_1  and  N_10
REMARK    2  A    between atoms: S_1  and  C_24
REMARK    3  A    between atoms: O_3  and  C_14
REMARK    4  A    between atoms: O_4  and  C_21
REMARK    5  A    between atoms: O_7  and  C_32
REMARK    6  A    between atoms: O_7  and  C_33
REMARK    7  A    between atoms: N_8  and  C_12
REMARK    8  A    between atoms: N_10  and  C_18
REMARK    9  A    between atoms: C_13  and  C_18
REMARK   10  A    between atoms: C_15  and  C_21
REMARK                            x       y       z     vdW  Elec       q    Type
REMARK                         _______ _______ _______ _____ _____    ______ ____
ROOT
ATOM      2  O   UNL     1     -18.355   4.762  22.528  0.00  0.00    -0.366 OA
ATOM     12  C   UNL     1     -17.958   3.422  24.455  0.00  0.00    +0.118 C 
ATOM     13  C   UNL     1     -17.744   4.810  23.838  0.00  0.00    +0.154 C 
ATOM     14  C   UNL     1     -18.083   2.520  23.236  0.00  0.00    +0.165 C 
ATOM     15  C   UNL     1     -18.854   3.432  22.290  0.00  0.00    +0.174 C 
ENDROOT
BRANCH  12   8
ATOM      8  N   UNL     1     -16.977   2.999  25.440  0.00  0.00    -0.292 NA
ATOM      9  N   UNL     1     -16.076   1.969  27.946  0.00  0.00    -0.313 N 
ATOM     11  N   UNL     1     -14.477   2.169  29.680  0.00  0.00    -0.240 NA
ATOM     16  C   UNL     1     -17.090   3.809  26.659  0.00  0.00    +0.104 C 
ATOM     17  C   UNL     1     -17.153   1.579  25.765  0.00  0.00    +0.104 C 
ATOM     19  C   UNL     1     -16.024   3.412  27.683  0.00  0.00    +0.122 C 
ATOM     20  C   UNL     1     -16.090   1.106  26.760  0.00  0.00    +0.122 C 
ATOM     22  C   UNL     1     -15.518   1.498  29.141  0.00  0.00    +0.121 A 
ATOM     23  C   UNL     1     -16.077   0.358  29.696  0.00  0.00    +0.043 A 
ATOM     25  C   UNL     1     -15.533  -0.122  30.882  0.00  0.00    +0.005 A 
ATOM     26  C   UNL     1     -13.973   1.674  30.832  0.00  0.00    +0.113 A 
ATOM     29  C   UNL     1     -14.461   0.542  31.467  0.00  0.00    +0.020 A 
ENDBRANCH  12   8
BRANCH  14   3
ATOM      3  O   UNL     1     -16.810   2.202  22.691  0.00  0.00    -0.388 OA
ATOM     34  H   UNL     1     -16.919   2.096  21.730  0.00  0.00    +0.210 HD
ENDBRANCH  14   3
BRANCH  13  18
ATOM     18  C   UNL     1     -16.300   5.258  23.646  0.00  0.00    +0.139 C 
BRANCH  18  10
ATOM     10  N   UNL     1     -16.130   5.786  22.280  0.00  0.00    -0.187 NA
ATOM     35  H   UNL     1     -15.788   5.114  21.581  0.00  0.00    +0.148 HD
BRANCH  10   1
ATOM      1  S   UNL     1     -15.813   7.441  22.037  0.00  0.00    +0.058 S 
ATOM      5  O   UNL     1     -15.439   8.048  23.300  0.00  0.00    -0.153 OA
ATOM      6  O   UNL     1     -16.881   8.014  21.240  0.00  0.00    -0.153 OA
BRANCH   1  24
ATOM     24  C   UNL     1     -14.375   7.386  21.011  0.00  0.00    +0.105 A 
ATOM     27  C   UNL     1     -13.177   6.882  21.517  0.00  0.00    +0.032 A 
ATOM     28  C   UNL     1     -14.438   7.847  19.697  0.00  0.00    +0.032 A 
ATOM     30  C   UNL     1     -12.042   6.839  20.708  0.00  0.00    +0.047 A 
ATOM     31  C   UNL     1     -13.303   7.805  18.887  0.00  0.00    +0.047 A 
ATOM     32  C   UNL     1     -12.105   7.301  19.393  0.00  0.00    +0.120 A 
BRANCH  32   7
ATOM      7  O   UNL     1     -10.996   7.260  18.604  0.00  0.00    -0.495 OA
ATOM     33  C   UNL     1     -10.952   8.162  17.498  0.00  0.00    +0.277 C 
ENDBRANCH  32   7
ENDBRANCH   1  24
ENDBRANCH  10   1
ENDBRANCH  18  10
ENDBRANCH  13  18
BRANCH  15  21
ATOM     21  C   UNL     1     -18.721   3.105  20.814  0.00  0.00    +0.190 C 
BRANCH  21   4
ATOM      4  O   UNL     1     -17.612   3.814  20.285  0.00  0.00    -0.392 OA
ATOM     36  H   UNL     1     -16.958   3.897  21.000  0.00  0.00    +0.210 HD
ENDBRANCH  21   4
ENDBRANCH  15  21
TORSDOF 9
ENDMDL
MODEL 8
REMARK VINA RESULT:      -5.9     30.400     36.054
REMARK  Name = 28962043
REMARK  10 active torsions:
REMARK  status: ('A' for Active; 'I' for Inactive)
REMARK    1  A    between atoms: S_1  and  N_10
REMARK    2  A    between atoms: S_1  and  C_24
REMARK    3  A    between atoms: O_3  and  C_14
REMARK    4  A    between atoms: O_4  and  C_21
REMARK    5  A    between atoms: O_7  and  C_32
REMARK    6  A    between atoms: O_7  and  C_33
REMARK    7  A    between atoms: N_8  and  C_12
REMARK    8  A    between atoms: N_10  and  C_18
REMARK    9  A    between atoms: C_13  and  C_18
REMARK   10  A    between atoms: C_15  and  C_21
REMARK                            x       y       z     vdW  Elec       q    Type
REMARK                         _______ _______ _______ _____ _____    ______ ____
ROOT
ATOM      2  O   UNL     1      13.124   9.533   4.409  0.00  0.00    -0.366 OA
ATOM     12  C   UNL     1      13.233   7.800   2.781  0.00  0.00    +0.118 C 
ATOM     13  C   UNL     1      12.515   9.098   3.172  0.00  0.00    +0.154 C 
ATOM     14  C   UNL     1      13.720   7.261   4.118  0.00  0.00    +0.165 C 
ATOM     15  C   UNL     1      14.101   8.558   4.821  0.00  0.00    +0.174 C 
ENDROOT
BRANCH  12   8
ATOM      8  N   UNL     1      12.469   6.861   1.977  0.00  0.00    -0.292 NA
ATOM      9  N   UNL     1      11.997   5.077  -0.203  0.00  0.00    -0.313 N 
ATOM     11  N   UNL     1      10.430   4.331  -1.813  0.00  0.00    -0.240 NA
ATOM     16  C   UNL     1      12.279   7.383   0.618  0.00  0.00    +0.104 C 
ATOM     17  C   UNL     1      13.146   5.560   1.922  0.00  0.00    +0.104 C 
ATOM     19  C   UNL     1      11.428   6.430  -0.223  0.00  0.00    +0.122 C 
ATOM     20  C   UNL     1      12.324   4.545   1.123  0.00  0.00    +0.122 C 
ATOM     22  C   UNL     1      11.645   4.200  -1.236  0.00  0.00    +0.121 A 
ATOM     23  C   UNL     1      12.578   3.242  -1.600  0.00  0.00    +0.043 A 
ATOM     25  C   UNL     1      12.242   2.363  -2.623  0.00  0.00    +0.005 A 
ATOM     26  C   UNL     1      10.138   3.460  -2.804  0.00  0.00    +0.113 A 
ATOM     29  C   UNL     1      11.001   2.467  -3.242  0.00  0.00    +0.020 A 
ENDBRANCH  12   8
BRANCH  14   3
ATOM      3  O   UNL     1      12.678   6.601   4.824  0.00  0.00    -0.388 OA
ATOM     34  H   UNL     1      12.062   7.282   5.143  0.00  0.00    +0.210 HD
ENDBRANCH  14   3
BRANCH  13  18
ATOM     18  C   UNL     1      11.014   9.002   3.418  0.00  0.00    +0.139 C 
BRANCH  18  10
ATOM     10  N   UNL     1      10.743   9.170   4.857  0.00  0.00    -0.187 NA
ATOM     35  H   UNL     1      11.514   8.919   5.489  0.00  0.00    +0.148 HD
BRANCH  10   1
ATOM      1  S   UNL     1       9.148   9.070   5.444  0.00  0.00    +0.058 S 
ATOM      5  O   UNL     1       8.253   8.756   4.347  0.00  0.00    -0.153 OA
ATOM      6  O   UNL     1       8.885  10.214   6.295  0.00  0.00    -0.153 OA
BRANCH   1  24
ATOM     24  C   UNL     1       9.239   7.653   6.497  0.00  0.00    +0.105 A 
ATOM     27  C   UNL     1       9.583   6.411   5.964  0.00  0.00    +0.032 A 
ATOM     28  C   UNL     1       8.966   7.777   7.858  0.00  0.00    +0.032 A 
ATOM     30  C   UNL     1       9.654   5.292   6.794  0.00  0.00    +0.047 A 
ATOM     31  C   UNL     1       9.037   6.659   8.689  0.00  0.00    +0.047 A 
ATOM     32  C   UNL     1       9.381   5.416   8.157  0.00  0.00    +0.120 A 
BRANCH  32   7
ATOM      7  O   UNL     1       9.449   4.324   8.966  0.00  0.00    -0.495 OA
ATOM     33  C   UNL     1       8.957   4.470  10.297  0.00  0.00    +0.277 C 
ENDBRANCH  32   7
ENDBRANCH   1  24
ENDBRANCH  10   1
ENDBRANCH  18  10
ENDBRANCH  13  18
BRANCH  15  21
ATOM     21  C   UNL     1      14.135   8.493   6.337  0.00  0.00    +0.190 C 
BRANCH  21   4
ATOM      4  O   UNL     1      12.831   8.748   6.836  0.00  0.00    -0.392 OA
ATOM     36  H   UNL     1      12.861   8.610   7.798  0.00  0.00    +0.210 HD
ENDBRANCH  21   4
ENDBRANCH  15  21
TORSDOF 9
ENDMDL
MODEL 9
REMARK VINA RESULT:      -5.8     31.584     34.756
REMARK  Name = 28962043
REMARK  10 active torsions:
REMARK  status: ('A' for Active; 'I' for Inactive)
REMARK    1  A    between atoms: S_1  and  N_10
REMARK    2  A    between atoms: S_1  and  C_24
REMARK    3  A    between atoms: O_3  and  C_14
REMARK    4  A    between atoms: O_4  and  C_21
REMARK    5  A    between atoms: O_7  and  C_32
REMARK    6  A    between atoms: O_7  and  C_33
REMARK    7  A    between atoms: N_8  and  C_12
REMARK    8  A    between atoms: N_10  and  C_18
REMARK    9  A    between atoms: C_13  and  C_18
REMARK   10  A    between atoms: C_15  and  C_21
REMARK                            x       y       z     vdW  Elec       q    Type
REMARK                         _______ _______ _______ _____ _____    ______ ____
ROOT
ATOM      2  O   UNL     1       9.852   7.725   6.155  0.00  0.00    -0.366 OA
ATOM     12  C   UNL     1      10.703   6.547   4.271  0.00  0.00    +0.118 C 
ATOM     13  C   UNL     1       9.740   7.654   4.715  0.00  0.00    +0.154 C 
ATOM     14  C   UNL     1      10.791   5.654   5.499  0.00  0.00    +0.165 C 
ATOM     15  C   UNL     1      10.755   6.699   6.609  0.00  0.00    +0.174 C 
ENDROOT
BRANCH  12   8
ATOM      8  N   UNL     1      10.368   5.864   3.033  0.00  0.00    -0.292 NA
ATOM      9  N   UNL     1      10.877   4.724   0.464  0.00  0.00    -0.313 N 
ATOM     11  N   UNL     1      10.075   4.451  -1.746  0.00  0.00    -0.240 NA
ATOM     16  C   UNL     1      10.642   6.728   1.878  0.00  0.00    +0.104 C 
ATOM     17  C   UNL     1      11.128   4.614   2.912  0.00  0.00    +0.104 C 
ATOM     19  C   UNL     1      10.240   6.043   0.571  0.00  0.00    +0.122 C 
ATOM     20  C   UNL     1      10.743   3.857   1.638  0.00  0.00    +0.122 C 
ATOM     22  C   UNL     1      11.002   4.155  -0.809  0.00  0.00    +0.121 A 
ATOM     23  C   UNL     1      12.082   3.314  -1.025  0.00  0.00    +0.043 A 
ATOM     25  C   UNL     1      12.219   2.740  -2.284  0.00  0.00    +0.005 A 
ATOM     26  C   UNL     1      10.240   3.876  -2.958  0.00  0.00    +0.113 A 
ATOM     29  C   UNL     1      11.285   3.021  -3.275  0.00  0.00    +0.020 A 
ENDBRANCH  12   8
BRANCH  14   3
ATOM      3  O   UNL     1       9.667   4.789   5.597  0.00  0.00    -0.388 OA
ATOM     34  H   UNL     1       9.519   4.603   6.540  0.00  0.00    +0.210 HD
ENDBRANCH  14   3
BRANCH  13  18
ATOM     18  C   UNL     1       8.265   7.451   4.388  0.00  0.00    +0.139 C 
BRANCH  18  10
ATOM     10  N   UNL     1       7.904   8.280   3.223  0.00  0.00    -0.187 NA
ATOM     35  H   UNL     1       8.369   8.036   2.339  0.00  0.00    +0.148 HD
BRANCH  10   1
ATOM      1  S   UNL     1       7.378   9.884   3.446  0.00  0.00    +0.058 S 
ATOM      5  O   UNL     1       8.387  10.793   2.939  0.00  0.00    -0.153 OA
ATOM      6  O   UNL     1       6.874  10.032   4.798  0.00  0.00    -0.153 OA
BRANCH   1  24
ATOM     24  C   UNL     1       5.982   9.959   2.364  0.00  0.00    +0.105 A 
ATOM     27  C   UNL     1       6.107   9.550   1.037  0.00  0.00    +0.032 A 
ATOM     28  C   UNL     1       4.758  10.429   2.837  0.00  0.00    +0.032 A 
ATOM     30  C   UNL     1       5.007   9.610   0.182  0.00  0.00    +0.047 A 
ATOM     31  C   UNL     1       3.656  10.489   1.983  0.00  0.00    +0.047 A 
ATOM     32  C   UNL     1       3.781  10.080   0.655  0.00  0.00    +0.120 A 
BRANCH  32   7
ATOM      7  O   UNL     1       2.708  10.140  -0.179  0.00  0.00    -0.495 OA
ATOM     33  C   UNL     1       1.437  10.402   0.415  0.00  0.00    +0.277 C 
ENDBRANCH  32   7
ENDBRANCH   1  24
ENDBRANCH  10   1
ENDBRANCH  18  10
ENDBRANCH  13  18
BRANCH  15  21
ATOM     21  C   UNL     1      10.300   6.195   7.966  0.00  0.00    +0.190 C 
BRANCH  21   4
ATOM      4  O   UNL     1      10.947   4.963   8.239  0.00  0.00    -0.392 OA
ATOM     36  H   UNL     1      11.361   4.667   7.410  0.00  0.00    +0.210 HD
ENDBRANCH  21   4
ENDBRANCH  15  21
TORSDOF 9
ENDMDL
MODEL 10
REMARK VINA RESULT:      -5.7     13.059     17.127
REMARK  Name = 28962043
REMARK  10 active torsions:
REMARK  status: ('A' for Active; 'I' for Inactive)
REMARK    1  A    between atoms: S_1  and  N_10
REMARK    2  A    between atoms: S_1  and  C_24
REMARK    3  A    between atoms: O_3  and  C_14
REMARK    4  A    between atoms: O_4  and  C_21
REMARK    5  A    between atoms: O_7  and  C_32
REMARK    6  A    between atoms: O_7  and  C_33
REMARK    7  A    between atoms: N_8  and  C_12
REMARK    8  A    between atoms: N_10  and  C_18
REMARK    9  A    between atoms: C_13  and  C_18
REMARK   10  A    between atoms: C_15  and  C_21
REMARK                            x       y       z     vdW  Elec       q    Type
REMARK                         _______ _______ _______ _____ _____    ______ ____
ROOT
ATOM      2  O   UNL     1      -4.698  14.299  33.340  0.00  0.00    -0.366 OA
ATOM     12  C   UNL     1      -6.728  13.071  33.534  0.00  0.00    +0.118 C 
ATOM     13  C   UNL     1      -5.498  13.573  34.301  0.00  0.00    +0.154 C 
ATOM     14  C   UNL     1      -6.226  12.984  32.100  0.00  0.00    +0.165 C 
ATOM     15  C   UNL     1      -5.321  14.209  32.045  0.00  0.00    +0.174 C 
ENDROOT
BRANCH  12   8
ATOM      8  N   UNL     1      -7.355  11.864  34.045  0.00  0.00    -0.292 NA
ATOM      9  N   UNL     1      -9.490  10.269  35.072  0.00  0.00    -0.313 N 
ATOM     11  N   UNL     1     -10.108   8.612  36.645  0.00  0.00    -0.240 NA
ATOM     16  C   UNL     1      -7.853  12.080  35.409  0.00  0.00    +0.104 C 
ATOM     17  C   UNL     1      -8.458  11.447  33.171  0.00  0.00    +0.104 C 
ATOM     19  C   UNL     1      -8.464  10.799  35.980  0.00  0.00    +0.122 C 
ATOM     20  C   UNL     1      -9.091  10.144  33.667  0.00  0.00    +0.122 C 
ATOM     22  C   UNL     1     -10.450   9.399  35.602  0.00  0.00    +0.121 A 
ATOM     23  C   UNL     1     -11.703   9.402  35.011  0.00  0.00    +0.043 A 
ATOM     25  C   UNL     1     -12.667   8.542  35.524  0.00  0.00    +0.005 A 
ATOM     26  C   UNL     1     -11.070   7.790  37.119  0.00  0.00    +0.113 A 
ATOM     29  C   UNL     1     -12.353   7.718  36.599  0.00  0.00    +0.020 A 
ENDBRANCH  12   8
BRANCH  14   3
ATOM      3  O   UNL     1      -5.471  11.799  31.883  0.00  0.00    -0.388 OA
ATOM     34  H   UNL     1      -4.534  12.053  31.835  0.00  0.00    +0.210 HD
ENDBRANCH  14   3
BRANCH  13  18
ATOM     18  C   UNL     1      -4.601  12.510  34.925  0.00  0.00    +0.139 C 
BRANCH  18  10
ATOM     10  N   UNL     1      -3.288  12.524  34.253  0.00  0.00    -0.187 NA
ATOM     35  H   UNL     1      -3.145  11.799  33.538  0.00  0.00    +0.148 HD
BRANCH  10   1
ATOM      1  S   UNL     1      -1.925  13.154  35.055  0.00  0.00    +0.058 S 
ATOM      5  O   UNL     1      -2.334  14.259  35.899  0.00  0.00    -0.153 OA
ATOM      6  O   UNL     1      -0.851  13.327  34.095  0.00  0.00    -0.153 OA
BRANCH   1  24
ATOM     24  C   UNL     1      -1.468  11.806  36.103  0.00  0.00    +0.105 A 
ATOM     27  C   UNL     1      -1.951  11.746  37.410  0.00  0.00    +0.032 A 
ATOM     28  C   UNL     1      -0.624  10.805  35.624  0.00  0.00    +0.032 A 
ATOM     30  C   UNL     1      -1.590  10.683  38.238  0.00  0.00    +0.047 A 
ATOM     31  C   UNL     1      -0.263   9.741  36.452  0.00  0.00    +0.047 A 
ATOM     32  C   UNL     1      -0.746   9.681  37.759  0.00  0.00    +0.120 A 
BRANCH  32   7
ATOM      7  O   UNL     1      -0.394   8.644  38.567  0.00  0.00    -0.495 OA
ATOM     33  C   UNL     1      -0.923   7.359  38.244  0.00  0.00    +0.277 C 
ENDBRANCH  32   7
ENDBRANCH   1  24
ENDBRANCH  10   1
ENDBRANCH  18  10
ENDBRANCH  13  18
BRANCH  15  21
ATOM     21  C   UNL     1      -4.246  14.179  30.973  0.00  0.00    +0.190 C 
BRANCH  21   4
ATOM      4  O   UNL     1      -3.215  13.295  31.383  0.00  0.00    -0.392 OA
ATOM     36  H   UNL     1      -3.295  12.491  30.843  0.00  0.00    +0.210 HD
ENDBRANCH  21   4
ENDBRANCH  15  21
TORSDOF 9
ENDMDL
