MODEL 1
REMARK VINA RESULT:      -7.2      0.000      0.000
REMARK  Name = 11912239
REMARK  8 active torsions:
REMARK  status: ('A' for Active; 'I' for Inactive)
REMARK    1  A    between atoms: O_4  and  C_24
REMARK    2  A    between atoms: N_6  and  C_13
REMARK    3  A    between atoms: N_7  and  C_16
REMARK    4  A    between atoms: C_10  and  C_17
REMARK    5  A    between atoms: C_10  and  C_21
REMARK    6  A    between atoms: C_17  and  C_23
REMARK    7  A    between atoms: C_21  and  C_24
REMARK    8  A    between atoms: C_26  and  C_29
REMARK                            x       y       z     vdW  Elec       q    Type
REMARK                         _______ _______ _______ _____ _____    ______ ____
ROOT
ATOM      1  O   UNL     1     -12.216  -7.902  14.365  0.00  0.00    -0.370 OA
ATOM      2  O   UNL     1     -11.016  -6.262  16.732  0.00  0.00    -0.370 OA
ATOM     11  C   UNL     1     -10.902  -6.156  15.303  0.00  0.00    +0.171 C 
ATOM     12  C   UNL     1     -10.872  -7.566  14.748  0.00  0.00    +0.171 C 
ATOM     13  C   UNL     1     -12.160  -5.557  14.719  0.00  0.00    +0.130 C 
ATOM     16  C   UNL     1     -10.433  -8.415  15.917  0.00  0.00    +0.130 C 
ATOM     20  C   UNL     1     -13.067  -6.768  14.587  0.00  0.00    +0.185 C 
ATOM     22  C   UNL     1     -10.974  -7.646  17.109  0.00  0.00    +0.185 C 
ENDROOT
BRANCH  16   7
ATOM      7  N   UNL     1      -8.988  -8.473  15.972  0.00  0.00    -0.306 N 
ATOM      8  N   UNL     1      -9.022 -10.130  17.598  0.00  0.00    -0.214 NA
ATOM      9  N   UNL     1      -6.944  -9.263  16.740  0.00  0.00    -0.223 NA
ATOM     25  C   UNL     1      -8.287  -9.325  16.806  0.00  0.00    +0.216 A 
ATOM     26  C   UNL     1      -8.307 -10.947  18.398  0.00  0.00    +0.076 A 
ATOM     27  C   UNL     1      -6.293 -10.107  17.566  0.00  0.00    +0.116 A 
ATOM     28  C   UNL     1      -6.928 -10.980  18.426  0.00  0.00    +0.048 A 
ATOM     36  H   UNL     1      -8.442  -7.903  15.336  0.00  0.00    +0.149 HD
BRANCH  26  29
ATOM     29  C   UNL     1      -9.091 -11.812  19.248  0.00  0.00    +0.001 A 
ATOM     30  C   UNL     1     -10.379 -11.434  19.629  0.00  0.00    +0.010 A 
ATOM     31  C   UNL     1      -8.563 -13.026  19.688  0.00  0.00    +0.010 A 
ATOM     32  C   UNL     1     -11.137 -12.269  20.450  0.00  0.00    +0.001 A 
ATOM     33  C   UNL     1      -9.321 -13.860  20.507  0.00  0.00    +0.001 A 
ATOM     34  C   UNL     1     -10.608 -13.483  20.889  0.00  0.00    +0.000 A 
ENDBRANCH  26  29
ENDBRANCH  16   7
BRANCH  13   6
ATOM      3  O   UNL     1     -13.729  -3.516  13.393  0.00  0.00    -0.276 OA
ATOM      6  N   UNL     1     -11.902  -4.954  13.433  0.00  0.00    -0.308 N 
ATOM     23  C   UNL     1     -12.715  -3.976  12.874  0.00  0.00    +0.214 C 
ATOM     35  H   UNL     1     -11.066  -5.248  12.937  0.00  0.00    +0.149 HD
BRANCH  23  17
ATOM     17  C   UNL     1     -12.199  -3.527  11.520  0.00  0.00    +0.103 C 
BRANCH  17  10
ATOM     10  C   UNL     1     -13.117  -3.948  10.370  0.00  0.00    -0.011 C 
ATOM     14  C   UNL     1     -13.699  -5.350  10.599  0.00  0.00    +0.008 C 
ATOM     15  C   UNL     1     -14.388  -3.089  10.318  0.00  0.00    +0.008 C 
ATOM     18  C   UNL     1     -14.971  -5.394   9.754  0.00  0.00    +0.001 C 
ATOM     19  C   UNL     1     -15.413  -3.942   9.574  0.00  0.00    +0.001 C 
BRANCH  10  21
ATOM     21  C   UNL     1     -12.339  -3.876   9.047  0.00  0.00    +0.127 C 
BRANCH  21  24
ATOM      5  O   UNL     1     -10.670  -5.615   9.416  0.00  0.00    -0.251 OA
ATOM     24  C   UNL     1     -10.959  -4.449   9.194  0.00  0.00    +0.305 C 
BRANCH  24   4
ATOM      4  O   UNL     1     -10.042  -3.459   9.038  0.00  0.00    -0.481 OA
ATOM     37  H   UNL     1      -9.666  -3.450   8.132  0.00  0.00    +0.295 HD
ENDBRANCH  24   4
ENDBRANCH  21  24
ENDBRANCH  10  21
ENDBRANCH  17  10
ENDBRANCH  23  17
ENDBRANCH  13   6
TORSDOF 8
ENDMDL
MODEL 2
REMARK VINA RESULT:      -7.1      7.330     12.084
REMARK  Name = 11912239
REMARK  8 active torsions:
REMARK  status: ('A' for Active; 'I' for Inactive)
REMARK    1  A    between atoms: O_4  and  C_24
REMARK    2  A    between atoms: N_6  and  C_13
REMARK    3  A    between atoms: N_7  and  C_16
REMARK    4  A    between atoms: C_10  and  C_17
REMARK    5  A    between atoms: C_10  and  C_21
REMARK    6  A    between atoms: C_17  and  C_23
REMARK    7  A    between atoms: C_21  and  C_24
REMARK    8  A    between atoms: C_26  and  C_29
REMARK                            x       y       z     vdW  Elec       q    Type
REMARK                         _______ _______ _______ _____ _____    ______ ____
ROOT
ATOM      1  O   UNL     1      -2.793 -12.957  12.689  0.00  0.00    -0.370 OA
ATOM      2  O   UNL     1      -1.852 -10.022  13.173  0.00  0.00    -0.370 OA
ATOM     11  C   UNL     1      -2.879 -10.836  13.763  0.00  0.00    +0.171 C 
ATOM     12  C   UNL     1      -3.468 -11.689  12.656  0.00  0.00    +0.171 C 
ATOM     13  C   UNL     1      -2.272 -11.839  14.716  0.00  0.00    +0.130 C 
ATOM     16  C   UNL     1      -3.121 -10.943  11.389  0.00  0.00    +0.130 C 
ATOM     20  C   UNL     1      -1.867 -12.969  13.786  0.00  0.00    +0.185 C 
ATOM     22  C   UNL     1      -1.821 -10.250  11.757  0.00  0.00    +0.185 C 
ENDROOT
BRANCH  16   7
ATOM      7  N   UNL     1      -4.144  -9.963  11.095  0.00  0.00    -0.306 N 
ATOM      8  N   UNL     1      -4.410 -10.754   8.928  0.00  0.00    -0.214 NA
ATOM      9  N   UNL     1      -5.718  -8.906   9.754  0.00  0.00    -0.223 NA
ATOM     25  C   UNL     1      -4.786  -9.870   9.873  0.00  0.00    +0.216 A 
ATOM     26  C   UNL     1      -5.055 -10.634   7.749  0.00  0.00    +0.076 A 
ATOM     27  C   UNL     1      -6.324  -8.844   8.550  0.00  0.00    +0.116 A 
ATOM     28  C   UNL     1      -6.030  -9.690   7.500  0.00  0.00    +0.048 A 
ATOM     36  H   UNL     1      -4.459  -9.336  11.827  0.00  0.00    +0.149 HD
BRANCH  26  29
ATOM     29  C   UNL     1      -4.657 -11.581   6.734  0.00  0.00    +0.001 A 
ATOM     30  C   UNL     1      -4.999 -11.357   5.400  0.00  0.00    +0.010 A 
ATOM     31  C   UNL     1      -3.930 -12.718   7.086  0.00  0.00    +0.010 A 
ATOM     32  C   UNL     1      -4.614 -12.271   4.419  0.00  0.00    +0.001 A 
ATOM     33  C   UNL     1      -3.545 -13.631   6.106  0.00  0.00    +0.001 A 
ATOM     34  C   UNL     1      -3.886 -13.408   4.772  0.00  0.00    +0.000 A 
ENDBRANCH  26  29
ENDBRANCH  16   7
BRANCH  13   6
ATOM      3  O   UNL     1      -3.518 -10.260  16.798  0.00  0.00    -0.276 OA
ATOM      6  N   UNL     1      -3.239 -12.285  15.690  0.00  0.00    -0.308 N 
ATOM     23  C   UNL     1      -3.786 -11.450  16.657  0.00  0.00    +0.214 C 
ATOM     35  H   UNL     1      -3.549 -13.251  15.635  0.00  0.00    +0.149 HD
BRANCH  23  17
ATOM     17  C   UNL     1      -4.774 -12.189  17.539  0.00  0.00    +0.103 C 
BRANCH  17  10
ATOM     10  C   UNL     1      -6.215 -11.716  17.333  0.00  0.00    -0.011 C 
ATOM     14  C   UNL     1      -6.528 -11.495  15.846  0.00  0.00    +0.008 C 
ATOM     15  C   UNL     1      -7.227 -12.809  17.704  0.00  0.00    +0.008 C 
ATOM     18  C   UNL     1      -8.048 -11.609  15.741  0.00  0.00    +0.001 C 
ATOM     19  C   UNL     1      -8.496 -12.453  16.933  0.00  0.00    +0.001 C 
BRANCH  10  21
ATOM     21  C   UNL     1      -6.450 -10.436  18.149  0.00  0.00    +0.127 C 
BRANCH  21  24
ATOM      5  O   UNL     1      -5.994 -11.214  20.415  0.00  0.00    -0.251 OA
ATOM     24  C   UNL     1      -6.761 -10.752  19.584  0.00  0.00    +0.305 C 
BRANCH  24   4
ATOM      4  O   UNL     1      -8.058 -10.442  19.842  0.00  0.00    -0.481 OA
ATOM     37  H   UNL     1      -8.544 -11.202  20.229  0.00  0.00    +0.295 HD
ENDBRANCH  24   4
ENDBRANCH  21  24
ENDBRANCH  10  21
ENDBRANCH  17  10
ENDBRANCH  23  17
ENDBRANCH  13   6
TORSDOF 8
ENDMDL
MODEL 3
REMARK VINA RESULT:      -7.1     31.509     35.265
REMARK  Name = 11912239
REMARK  8 active torsions:
REMARK  status: ('A' for Active; 'I' for Inactive)
REMARK    1  A    between atoms: O_4  and  C_24
REMARK    2  A    between atoms: N_6  and  C_13
REMARK    3  A    between atoms: N_7  and  C_16
REMARK    4  A    between atoms: C_10  and  C_17
REMARK    5  A    between atoms: C_10  and  C_21
REMARK    6  A    between atoms: C_17  and  C_23
REMARK    7  A    between atoms: C_21  and  C_24
REMARK    8  A    between atoms: C_26  and  C_29
REMARK                            x       y       z     vdW  Elec       q    Type
REMARK                         _______ _______ _______ _____ _____    ______ ____
ROOT
ATOM      1  O   UNL     1      20.151   6.663  20.403  0.00  0.00    -0.370 OA
ATOM      2  O   UNL     1      19.700   8.697  22.725  0.00  0.00    -0.370 OA
ATOM     11  C   UNL     1      19.877   7.271  22.686  0.00  0.00    +0.171 C 
ATOM     12  C   UNL     1      19.167   6.763  21.446  0.00  0.00    +0.171 C 
ATOM     13  C   UNL     1      21.329   6.929  22.445  0.00  0.00    +0.130 C 
ATOM     16  C   UNL     1      18.168   7.848  21.121  0.00  0.00    +0.130 C 
ATOM     20  C   UNL     1      21.437   7.015  20.933  0.00  0.00    +0.185 C 
ATOM     22  C   UNL     1      18.855   9.099  21.638  0.00  0.00    +0.185 C 
ENDROOT
BRANCH  16   7
ATOM      7  N   UNL     1      16.935   7.619  21.845  0.00  0.00    -0.306 N 
ATOM      8  N   UNL     1      15.641   8.341  20.059  0.00  0.00    -0.214 NA
ATOM      9  N   UNL     1      14.629   7.597  22.114  0.00  0.00    -0.223 NA
ATOM     25  C   UNL     1      15.681   7.863  21.317  0.00  0.00    +0.216 A 
ATOM     26  C   UNL     1      14.402   8.568  19.575  0.00  0.00    +0.076 A 
ATOM     27  C   UNL     1      13.422   7.846  21.567  0.00  0.00    +0.116 A 
ATOM     28  C   UNL     1      13.245   8.337  20.290  0.00  0.00    +0.048 A 
ATOM     36  H   UNL     1      16.971   7.208  22.772  0.00  0.00    +0.149 HD
BRANCH  26  29
ATOM     29  C   UNL     1      14.356   9.081  18.226  0.00  0.00    +0.001 A 
ATOM     30  C   UNL     1      14.627  10.428  17.982  0.00  0.00    +0.010 A 
ATOM     31  C   UNL     1      14.040   8.230  17.166  0.00  0.00    +0.010 A 
ATOM     32  C   UNL     1      14.582  10.923  16.679  0.00  0.00    +0.001 A 
ATOM     33  C   UNL     1      13.996   8.726  15.864  0.00  0.00    +0.001 A 
ATOM     34  C   UNL     1      14.267  10.072  15.619  0.00  0.00    +0.000 A 
ENDBRANCH  26  29
ENDBRANCH  16   7
BRANCH  13   6
ATOM      3  O   UNL     1      23.740   6.061  23.792  0.00  0.00    -0.276 OA
ATOM      6  N   UNL     1      21.637   5.600  22.917  0.00  0.00    -0.308 N 
ATOM     23  C   UNL     1      22.826   5.275  23.556  0.00  0.00    +0.214 C 
ATOM     35  H   UNL     1      20.927   4.883  22.795  0.00  0.00    +0.149 HD
BRANCH  23  17
ATOM     17  C   UNL     1      22.872   3.809  23.942  0.00  0.00    +0.103 C 
BRANCH  17  10
ATOM     10  C   UNL     1      23.848   3.004  23.080  0.00  0.00    -0.011 C 
ATOM     14  C   UNL     1      25.288   3.123  23.598  0.00  0.00    +0.008 C 
ATOM     15  C   UNL     1      23.598   1.495  23.203  0.00  0.00    +0.008 C 
ATOM     18  C   UNL     1      26.006   1.885  23.063  0.00  0.00    +0.001 C 
ATOM     19  C   UNL     1      24.920   0.840  22.809  0.00  0.00    +0.001 C 
BRANCH  10  21
ATOM     21  C   UNL     1      23.740   3.472  21.620  0.00  0.00    +0.127 C 
BRANCH  21  24
ATOM      5  O   UNL     1      21.376   3.206  21.086  0.00  0.00    -0.251 OA
ATOM     24  C   UNL     1      22.542   2.873  20.942  0.00  0.00    +0.305 C 
BRANCH  24   4
ATOM      4  O   UNL     1      22.946   1.875  20.114  0.00  0.00    -0.481 OA
ATOM     37  H   UNL     1      22.186   1.426  19.686  0.00  0.00    +0.295 HD
ENDBRANCH  24   4
ENDBRANCH  21  24
ENDBRANCH  10  21
ENDBRANCH  17  10
ENDBRANCH  23  17
ENDBRANCH  13   6
TORSDOF 8
ENDMDL
MODEL 4
REMARK VINA RESULT:      -7.1      7.898     12.748
REMARK  Name = 11912239
REMARK  8 active torsions:
REMARK  status: ('A' for Active; 'I' for Inactive)
REMARK    1  A    between atoms: O_4  and  C_24
REMARK    2  A    between atoms: N_6  and  C_13
REMARK    3  A    between atoms: N_7  and  C_16
REMARK    4  A    between atoms: C_10  and  C_17
REMARK    5  A    between atoms: C_10  and  C_21
REMARK    6  A    between atoms: C_17  and  C_23
REMARK    7  A    between atoms: C_21  and  C_24
REMARK    8  A    between atoms: C_26  and  C_29
REMARK                            x       y       z     vdW  Elec       q    Type
REMARK                         _______ _______ _______ _____ _____    ______ ____
ROOT
ATOM      1  O   UNL     1      -3.136 -11.843  10.822  0.00  0.00    -0.370 OA
ATOM      2  O   UNL     1      -3.894  -8.817  10.896  0.00  0.00    -0.370 OA
ATOM     11  C   UNL     1      -4.393  -9.974  11.589  0.00  0.00    +0.171 C 
ATOM     12  C   UNL     1      -4.366 -11.131  10.609  0.00  0.00    +0.171 C 
ATOM     13  C   UNL     1      -3.429 -10.391  12.676  0.00  0.00    +0.130 C 
ATOM     16  C   UNL     1      -4.359 -10.468   9.252  0.00  0.00    +0.130 C 
ATOM     20  C   UNL     1      -2.426 -11.240  11.914  0.00  0.00    +0.185 C 
ATOM     22  C   UNL     1      -3.640  -9.159   9.526  0.00  0.00    +0.185 C 
ENDROOT
BRANCH  16   7
ATOM      7  N   UNL     1      -5.716 -10.212   8.819  0.00  0.00    -0.306 N 
ATOM      8  N   UNL     1      -5.307 -11.088   6.708  0.00  0.00    -0.214 NA
ATOM      9  N   UNL     1      -7.476 -10.224   7.304  0.00  0.00    -0.223 NA
ATOM     25  C   UNL     1      -6.187 -10.521   7.556  0.00  0.00    +0.216 A 
ATOM     26  C   UNL     1      -5.799 -11.377   5.486  0.00  0.00    +0.076 A 
ATOM     27  C   UNL     1      -7.902 -10.539   6.064  0.00  0.00    +0.116 A 
ATOM     28  C   UNL     1      -7.100 -11.122   5.103  0.00  0.00    +0.048 A 
ATOM     36  H   UNL     1      -6.387  -9.834   9.479  0.00  0.00    +0.149 HD
BRANCH  26  29
ATOM     29  C   UNL     1      -4.859 -11.986   4.575  0.00  0.00    +0.001 A 
ATOM     30  C   UNL     1      -3.548 -12.229   4.986  0.00  0.00    +0.010 A 
ATOM     31  C   UNL     1      -5.261 -12.331   3.284  0.00  0.00    +0.010 A 
ATOM     32  C   UNL     1      -2.639 -12.817   4.106  0.00  0.00    +0.001 A 
ATOM     33  C   UNL     1      -4.352 -12.919   2.406  0.00  0.00    +0.001 A 
ATOM     34  C   UNL     1      -3.042 -13.163   2.816  0.00  0.00    +0.000 A 
ENDBRANCH  26  29
ENDBRANCH  16   7
BRANCH  13   6
ATOM      3  O   UNL     1      -2.468 -10.968  15.345  0.00  0.00    -0.276 OA
ATOM      6  N   UNL     1      -4.097 -11.160  13.698  0.00  0.00    -0.308 N 
ATOM     23  C   UNL     1      -3.556 -11.386  14.957  0.00  0.00    +0.214 C 
ATOM     35  H   UNL     1      -5.021 -11.524  13.482  0.00  0.00    +0.149 HD
BRANCH  23  17
ATOM     17  C   UNL     1      -4.480 -12.223  15.821  0.00  0.00    +0.103 C 
BRANCH  17  10
ATOM     10  C   UNL     1      -4.961 -11.474  17.066  0.00  0.00    -0.011 C 
ATOM     14  C   UNL     1      -6.327 -11.988  17.540  0.00  0.00    +0.008 C 
ATOM     15  C   UNL     1      -4.076 -11.774  18.284  0.00  0.00    +0.008 C 
ATOM     18  C   UNL     1      -6.401 -11.612  19.019  0.00  0.00    +0.001 C 
ATOM     19  C   UNL     1      -4.955 -11.475  19.496  0.00  0.00    +0.001 C 
BRANCH  10  21
ATOM     21  C   UNL     1      -5.006  -9.968  16.765  0.00  0.00    +0.127 C 
BRANCH  21  24
ATOM      5  O   UNL     1      -7.304  -9.176  16.952  0.00  0.00    -0.251 OA
ATOM     24  C   UNL     1      -6.360  -9.549  16.272  0.00  0.00    +0.305 C 
BRANCH  24   4
ATOM      4  O   UNL     1      -6.396  -9.644  14.918  0.00  0.00    -0.481 OA
ATOM     37  H   UNL     1      -7.253 -10.000  14.599  0.00  0.00    +0.295 HD
ENDBRANCH  24   4
ENDBRANCH  21  24
ENDBRANCH  10  21
ENDBRANCH  17  10
ENDBRANCH  23  17
ENDBRANCH  13   6
TORSDOF 8
ENDMDL
MODEL 5
REMARK VINA RESULT:      -6.9      8.116     12.751
REMARK  Name = 11912239
REMARK  8 active torsions:
REMARK  status: ('A' for Active; 'I' for Inactive)
REMARK    1  A    between atoms: O_4  and  C_24
REMARK    2  A    between atoms: N_6  and  C_13
REMARK    3  A    between atoms: N_7  and  C_16
REMARK    4  A    between atoms: C_10  and  C_17
REMARK    5  A    between atoms: C_10  and  C_21
REMARK    6  A    between atoms: C_17  and  C_23
REMARK    7  A    between atoms: C_21  and  C_24
REMARK    8  A    between atoms: C_26  and  C_29
REMARK                            x       y       z     vdW  Elec       q    Type
REMARK                         _______ _______ _______ _____ _____    ______ ____
ROOT
ATOM      1  O   UNL     1      -3.320 -11.826  10.812  0.00  0.00    -0.370 OA
ATOM      2  O   UNL     1      -3.989  -8.778  10.773  0.00  0.00    -0.370 OA
ATOM     11  C   UNL     1      -4.536  -9.897  11.491  0.00  0.00    +0.171 C 
ATOM     12  C   UNL     1      -4.524 -11.086  10.549  0.00  0.00    +0.171 C 
ATOM     13  C   UNL     1      -3.608 -10.306  12.611  0.00  0.00    +0.130 C 
ATOM     16  C   UNL     1      -4.469 -10.467   9.173  0.00  0.00    +0.130 C 
ATOM     20  C   UNL     1      -2.616 -11.209  11.900  0.00  0.00    +0.185 C 
ATOM     22  C   UNL     1      -3.717  -9.172   9.420  0.00  0.00    +0.185 C 
ENDROOT
BRANCH  16   7
ATOM      7  N   UNL     1      -5.808 -10.186   8.702  0.00  0.00    -0.306 N 
ATOM      8  N   UNL     1      -5.358 -11.074   6.604  0.00  0.00    -0.214 NA
ATOM      9  N   UNL     1      -7.525 -10.167   7.139  0.00  0.00    -0.223 NA
ATOM     25  C   UNL     1      -6.250 -10.489   7.426  0.00  0.00    +0.216 A 
ATOM     26  C   UNL     1      -5.821 -11.354   5.369  0.00  0.00    +0.076 A 
ATOM     27  C   UNL     1      -7.923 -10.476   5.888  0.00  0.00    +0.116 A 
ATOM     28  C   UNL     1      -7.106 -11.076   4.950  0.00  0.00    +0.048 A 
ATOM     36  H   UNL     1      -6.489  -9.795   9.343  0.00  0.00    +0.149 HD
BRANCH  26  29
ATOM     29  C   UNL     1      -4.868 -11.983   4.485  0.00  0.00    +0.001 A 
ATOM     30  C   UNL     1      -5.265 -12.394   3.212  0.00  0.00    +0.010 A 
ATOM     31  C   UNL     1      -3.552 -12.178   4.902  0.00  0.00    +0.010 A 
ATOM     32  C   UNL     1      -4.344 -13.001   2.357  0.00  0.00    +0.001 A 
ATOM     33  C   UNL     1      -2.632 -12.785   4.048  0.00  0.00    +0.001 A 
ATOM     34  C   UNL     1      -3.028 -13.196   2.775  0.00  0.00    +0.000 A 
ENDBRANCH  26  29
ENDBRANCH  16   7
BRANCH  13   6
ATOM      3  O   UNL     1      -2.888 -10.530  15.407  0.00  0.00    -0.276 OA
ATOM      6  N   UNL     1      -4.320 -11.022  13.643  0.00  0.00    -0.308 N 
ATOM     23  C   UNL     1      -3.897 -11.074  14.965  0.00  0.00    +0.214 C 
ATOM     35  H   UNL     1      -5.188 -11.482  13.381  0.00  0.00    +0.149 HD
BRANCH  23  17
ATOM     17  C   UNL     1      -4.841 -11.895  15.823  0.00  0.00    +0.103 C 
BRANCH  17  10
ATOM     10  C   UNL     1      -5.680 -11.030  16.767  0.00  0.00    -0.011 C 
ATOM     14  C   UNL     1      -6.178  -9.755  16.072  0.00  0.00    +0.008 C 
ATOM     15  C   UNL     1      -7.001 -11.717  17.139  0.00  0.00    +0.008 C 
ATOM     18  C   UNL     1      -7.407  -9.323  16.870  0.00  0.00    +0.001 C 
ATOM     19  C   UNL     1      -7.935 -10.584  17.555  0.00  0.00    +0.001 C 
BRANCH  10  21
ATOM     21  C   UNL     1      -4.852 -10.697  18.018  0.00  0.00    +0.127 C 
BRANCH  21  24
ATOM      5  O   UNL     1      -4.528 -12.923  18.957  0.00  0.00    -0.251 OA
ATOM     24  C   UNL     1      -4.073 -11.889  18.491  0.00  0.00    +0.305 C 
BRANCH  24   4
ATOM      4  O   UNL     1      -2.746 -11.655  18.323  0.00  0.00    -0.481 OA
ATOM     37  H   UNL     1      -2.230 -11.886  19.126  0.00  0.00    +0.295 HD
ENDBRANCH  24   4
ENDBRANCH  21  24
ENDBRANCH  10  21
ENDBRANCH  17  10
ENDBRANCH  23  17
ENDBRANCH  13   6
TORSDOF 8
ENDMDL
MODEL 6
REMARK VINA RESULT:      -6.8      4.523      8.082
REMARK  Name = 11912239
REMARK  8 active torsions:
REMARK  status: ('A' for Active; 'I' for Inactive)
REMARK    1  A    between atoms: O_4  and  C_24
REMARK    2  A    between atoms: N_6  and  C_13
REMARK    3  A    between atoms: N_7  and  C_16
REMARK    4  A    between atoms: C_10  and  C_17
REMARK    5  A    between atoms: C_10  and  C_21
REMARK    6  A    between atoms: C_17  and  C_23
REMARK    7  A    between atoms: C_21  and  C_24
REMARK    8  A    between atoms: C_26  and  C_29
REMARK                            x       y       z     vdW  Elec       q    Type
REMARK                         _______ _______ _______ _____ _____    ______ ____
ROOT
ATOM      1  O   UNL     1      -7.116 -12.112  15.791  0.00  0.00    -0.370 OA
ATOM      2  O   UNL     1      -6.065 -12.277  18.724  0.00  0.00    -0.370 OA
ATOM     11  C   UNL     1      -6.531 -11.192  17.905  0.00  0.00    +0.171 C 
ATOM     12  C   UNL     1      -6.047 -11.455  16.492  0.00  0.00    +0.171 C 
ATOM     13  C   UNL     1      -8.038 -11.229  17.790  0.00  0.00    +0.130 C 
ATOM     16  C   UNL     1      -4.879 -12.395  16.670  0.00  0.00    +0.130 C 
ATOM     20  C   UNL     1      -8.254 -12.217  16.658  0.00  0.00    +0.185 C 
ATOM     22  C   UNL     1      -5.252 -13.153  17.931  0.00  0.00    +0.185 C 
ENDROOT
BRANCH  16   7
ATOM      7  N   UNL     1      -3.663 -11.641  16.880  0.00  0.00    -0.306 N 
ATOM      8  N   UNL     1      -3.348 -11.333  14.600  0.00  0.00    -0.214 NA
ATOM      9  N   UNL     1      -1.798 -10.431  16.209  0.00  0.00    -0.223 NA
ATOM     25  C   UNL     1      -2.903 -11.112  15.852  0.00  0.00    +0.216 A 
ATOM     26  C   UNL     1      -2.584 -10.804  13.623  0.00  0.00    +0.076 A 
ATOM     27  C   UNL     1      -1.081  -9.929  15.182  0.00  0.00    +0.116 A 
ATOM     28  C   UNL     1      -1.429 -10.086  13.855  0.00  0.00    +0.048 A 
ATOM     36  H   UNL     1      -3.363 -11.433  17.826  0.00  0.00    +0.149 HD
BRANCH  26  29
ATOM     29  C   UNL     1      -3.058 -11.038  12.279  0.00  0.00    +0.001 A 
ATOM     30  C   UNL     1      -3.343 -12.337  11.857  0.00  0.00    +0.010 A 
ATOM     31  C   UNL     1      -3.233  -9.966  11.403  0.00  0.00    +0.010 A 
ATOM     32  C   UNL     1      -3.802 -12.563  10.559  0.00  0.00    +0.001 A 
ATOM     33  C   UNL     1      -3.691 -10.193  10.107  0.00  0.00    +0.001 A 
ATOM     34  C   UNL     1      -3.977 -11.491   9.684  0.00  0.00    +0.000 A 
ENDBRANCH  26  29
ENDBRANCH  16   7
BRANCH  13   6
ATOM      3  O   UNL     1     -10.502 -10.045  18.743  0.00  0.00    -0.276 OA
ATOM      6  N   UNL     1      -8.568  -9.928  17.458  0.00  0.00    -0.308 N 
ATOM     23  C   UNL     1      -9.765  -9.442  17.967  0.00  0.00    +0.214 C 
ATOM     35  H   UNL     1      -8.013  -9.339  16.844  0.00  0.00    +0.149 HD
BRANCH  23  17
ATOM     17  C   UNL     1     -10.068  -8.049  17.447  0.00  0.00    +0.103 C 
BRANCH  17  10
ATOM     10  C   UNL     1     -11.320  -8.009  16.567  0.00  0.00    -0.011 C 
ATOM     14  C   UNL     1     -11.072  -8.672  15.204  0.00  0.00    +0.008 C 
ATOM     15  C   UNL     1     -12.442  -8.886  17.139  0.00  0.00    +0.008 C 
ATOM     18  C   UNL     1     -12.457  -9.078  14.704  0.00  0.00    +0.001 C 
ATOM     19  C   UNL     1     -13.337  -9.215  15.947  0.00  0.00    +0.001 C 
BRANCH  10  21
ATOM     21  C   UNL     1     -11.778  -6.551  16.403  0.00  0.00    +0.127 C 
BRANCH  21  24
ATOM      5  O   UNL     1     -11.687  -5.623  14.150  0.00  0.00    -0.251 OA
ATOM     24  C   UNL     1     -11.140  -5.910  15.204  0.00  0.00    +0.305 C 
BRANCH  24   4
ATOM      4  O   UNL     1      -9.826  -5.682  15.462  0.00  0.00    -0.481 OA
ATOM     37  H   UNL     1      -9.430  -6.401  16.000  0.00  0.00    +0.295 HD
ENDBRANCH  24   4
ENDBRANCH  21  24
ENDBRANCH  10  21
ENDBRANCH  17  10
ENDBRANCH  23  17
ENDBRANCH  13   6
TORSDOF 8
ENDMDL
MODEL 7
REMARK VINA RESULT:      -6.8      8.352     10.235
REMARK  Name = 11912239
REMARK  8 active torsions:
REMARK  status: ('A' for Active; 'I' for Inactive)
REMARK    1  A    between atoms: O_4  and  C_24
REMARK    2  A    between atoms: N_6  and  C_13
REMARK    3  A    between atoms: N_7  and  C_16
REMARK    4  A    between atoms: C_10  and  C_17
REMARK    5  A    between atoms: C_10  and  C_21
REMARK    6  A    between atoms: C_17  and  C_23
REMARK    7  A    between atoms: C_21  and  C_24
REMARK    8  A    between atoms: C_26  and  C_29
REMARK                            x       y       z     vdW  Elec       q    Type
REMARK                         _______ _______ _______ _____ _____    ______ ____
ROOT
ATOM      1  O   UNL     1      -6.627 -10.824  10.121  0.00  0.00    -0.370 OA
ATOM      2  O   UNL     1      -4.329  -8.882   9.295  0.00  0.00    -0.370 OA
ATOM     11  C   UNL     1      -4.619 -10.254   8.980  0.00  0.00    +0.171 C 
ATOM     12  C   UNL     1      -5.195 -10.891  10.230  0.00  0.00    +0.171 C 
ATOM     13  C   UNL     1      -5.744 -10.336   7.974  0.00  0.00    +0.130 C 
ATOM     16  C   UNL     1      -4.713 -10.004  11.353  0.00  0.00    +0.130 C 
ATOM     20  C   UNL     1      -6.977 -10.245   8.856  0.00  0.00    +0.185 C 
ATOM     22  C   UNL     1      -4.607  -8.646  10.682  0.00  0.00    +0.185 C 
ENDROOT
BRANCH  16   7
ATOM      7  N   UNL     1      -3.410 -10.441  11.805  0.00  0.00    -0.306 N 
ATOM      8  N   UNL     1      -4.079 -10.447  14.028  0.00  0.00    -0.214 NA
ATOM      9  N   UNL     1      -1.839 -11.070  13.396  0.00  0.00    -0.223 NA
ATOM     25  C   UNL     1      -3.095 -10.662  13.134  0.00  0.00    +0.216 A 
ATOM     26  C   UNL     1      -3.738 -10.672  15.314  0.00  0.00    +0.076 A 
ATOM     27  C   UNL     1      -1.567 -11.277  14.701  0.00  0.00    +0.116 A 
ATOM     28  C   UNL     1      -2.486 -11.091  15.714  0.00  0.00    +0.048 A 
ATOM     36  H   UNL     1      -2.691 -10.653  11.122  0.00  0.00    +0.149 HD
BRANCH  26  29
ATOM     29  C   UNL     1      -4.791 -10.442  16.276  0.00  0.00    +0.001 A 
ATOM     30  C   UNL     1      -4.647 -10.897  17.587  0.00  0.00    +0.010 A 
ATOM     31  C   UNL     1      -5.950  -9.767  15.895  0.00  0.00    +0.010 A 
ATOM     32  C   UNL     1      -5.663 -10.676  18.517  0.00  0.00    +0.001 A 
ATOM     33  C   UNL     1      -6.965  -9.546  16.825  0.00  0.00    +0.001 A 
ATOM     34  C   UNL     1      -6.823 -10.000  18.136  0.00  0.00    +0.000 A 
ENDBRANCH  26  29
ENDBRANCH  16   7
BRANCH  13   6
ATOM      3  O   UNL     1      -6.397 -10.768   5.187  0.00  0.00    -0.276 OA
ATOM      6  N   UNL     1      -5.708 -11.585   7.252  0.00  0.00    -0.308 N 
ATOM     23  C   UNL     1      -6.040 -11.697   5.908  0.00  0.00    +0.214 C 
ATOM     35  H   UNL     1      -5.394 -12.409   7.756  0.00  0.00    +0.149 HD
BRANCH  23  17
ATOM     17  C   UNL     1      -5.908 -13.126   5.416  0.00  0.00    +0.103 C 
BRANCH  17  10
ATOM     10  C   UNL     1      -4.617 -13.361   4.629  0.00  0.00    -0.011 C 
ATOM     14  C   UNL     1      -4.877 -13.397   3.116  0.00  0.00    +0.008 C 
ATOM     15  C   UNL     1      -3.656 -12.170   4.750  0.00  0.00    +0.008 C 
ATOM     18  C   UNL     1      -3.535 -13.052   2.475  0.00  0.00    +0.001 C 
ATOM     19  C   UNL     1      -2.751 -12.264   3.525  0.00  0.00    +0.001 C 
BRANCH  10  21
ATOM     21  C   UNL     1      -3.959 -14.663   5.113  0.00  0.00    +0.127 C 
BRANCH  21  24
ATOM      5  O   UNL     1      -3.747 -14.232   7.503  0.00  0.00    -0.251 OA
ATOM     24  C   UNL     1      -3.240 -14.460   6.415  0.00  0.00    +0.305 C 
BRANCH  24   4
ATOM      4  O   UNL     1      -1.902 -14.571   6.212  0.00  0.00    -0.481 OA
ATOM     37  H   UNL     1      -1.685 -15.313   5.607  0.00  0.00    +0.295 HD
ENDBRANCH  24   4
ENDBRANCH  21  24
ENDBRANCH  10  21
ENDBRANCH  17  10
ENDBRANCH  23  17
ENDBRANCH  13   6
TORSDOF 8
ENDMDL
MODEL 8
REMARK VINA RESULT:      -6.7     21.565     23.665
REMARK  Name = 11912239
REMARK  8 active torsions:
REMARK  status: ('A' for Active; 'I' for Inactive)
REMARK    1  A    between atoms: O_4  and  C_24
REMARK    2  A    between atoms: N_6  and  C_13
REMARK    3  A    between atoms: N_7  and  C_16
REMARK    4  A    between atoms: C_10  and  C_17
REMARK    5  A    between atoms: C_10  and  C_21
REMARK    6  A    between atoms: C_17  and  C_23
REMARK    7  A    between atoms: C_21  and  C_24
REMARK    8  A    between atoms: C_26  and  C_29
REMARK                            x       y       z     vdW  Elec       q    Type
REMARK                         _______ _______ _______ _____ _____    ______ ____
ROOT
ATOM      1  O   UNL     1     -13.596   6.333  34.239  0.00  0.00    -0.370 OA
ATOM      2  O   UNL     1     -15.607   8.189  32.740  0.00  0.00    -0.370 OA
ATOM     11  C   UNL     1     -14.697   7.165  32.302  0.00  0.00    +0.171 C 
ATOM     12  C   UNL     1     -13.452   7.272  33.161  0.00  0.00    +0.171 C 
ATOM     13  C   UNL     1     -15.251   5.797  32.627  0.00  0.00    +0.130 C 
ATOM     16  C   UNL     1     -13.487   8.686  33.689  0.00  0.00    +0.130 C 
ATOM     20  C   UNL     1     -14.821   5.605  34.070  0.00  0.00    +0.185 C 
ATOM     22  C   UNL     1     -14.975   8.980  33.757  0.00  0.00    +0.185 C 
ENDROOT
BRANCH  16   7
ATOM      7  N   UNL     1     -12.843   9.582  32.752  0.00  0.00    -0.306 N 
ATOM      8  N   UNL     1     -10.886   9.632  34.000  0.00  0.00    -0.214 NA
ATOM      9  N   UNL     1     -11.091  10.875  31.946  0.00  0.00    -0.223 NA
ATOM     25  C   UNL     1     -11.551  10.050  32.906  0.00  0.00    +0.216 A 
ATOM     26  C   UNL     1      -9.629  10.108  34.119  0.00  0.00    +0.076 A 
ATOM     27  C   UNL     1      -9.828  11.313  32.128  0.00  0.00    +0.116 A 
ATOM     28  C   UNL     1      -9.042  10.960  33.206  0.00  0.00    +0.048 A 
ATOM     36  H   UNL     1     -13.330   9.849  31.904  0.00  0.00    +0.149 HD
BRANCH  26  29
ATOM     29  C   UNL     1      -8.913   9.661  35.290  0.00  0.00    +0.001 A 
ATOM     30  C   UNL     1      -7.572  10.006  35.461  0.00  0.00    +0.010 A 
ATOM     31  C   UNL     1      -9.561   8.886  36.252  0.00  0.00    +0.010 A 
ATOM     32  C   UNL     1      -6.879   9.574  36.592  0.00  0.00    +0.001 A 
ATOM     33  C   UNL     1      -8.869   8.455  37.383  0.00  0.00    +0.001 A 
ATOM     34  C   UNL     1      -7.528   8.799  37.554  0.00  0.00    +0.000 A 
ENDBRANCH  26  29
ENDBRANCH  16   7
BRANCH  13   6
ATOM      3  O   UNL     1     -16.354   4.757  30.160  0.00  0.00    -0.276 OA
ATOM      6  N   UNL     1     -14.678   4.786  31.770  0.00  0.00    -0.308 N 
ATOM     23  C   UNL     1     -15.282   4.348  30.599  0.00  0.00    +0.214 C 
ATOM     35  H   UNL     1     -13.773   4.407  32.034  0.00  0.00    +0.149 HD
BRANCH  23  17
ATOM     17  C   UNL     1     -14.453   3.284  29.905  0.00  0.00    +0.103 C 
BRANCH  17  10
ATOM     10  C   UNL     1     -14.988   1.871  30.146  0.00  0.00    -0.011 C 
ATOM     14  C   UNL     1     -14.050   0.806  29.560  0.00  0.00    +0.008 C 
ATOM     15  C   UNL     1     -14.976   1.507  31.637  0.00  0.00    +0.008 C 
ATOM     18  C   UNL     1     -14.362  -0.470  30.341  0.00  0.00    +0.001 C 
ATOM     19  C   UNL     1     -14.957  -0.018  31.674  0.00  0.00    +0.001 C 
BRANCH  10  21
ATOM     21  C   UNL     1     -16.401   1.756  29.553  0.00  0.00    +0.127 C 
BRANCH  21  24
ATOM      5  O   UNL     1     -16.078   2.754  27.352  0.00  0.00    -0.251 OA
ATOM     24  C   UNL     1     -16.368   1.797  28.053  0.00  0.00    +0.305 C 
BRANCH  24   4
ATOM      4  O   UNL     1     -16.716   0.579  27.562  0.00  0.00    -0.481 OA
ATOM     37  H   UNL     1     -16.634  -0.125  28.242  0.00  0.00    +0.295 HD
ENDBRANCH  24   4
ENDBRANCH  21  24
ENDBRANCH  10  21
ENDBRANCH  17  10
ENDBRANCH  23  17
ENDBRANCH  13   6
TORSDOF 8
ENDMDL
MODEL 9
REMARK VINA RESULT:      -6.7     28.698     31.756
REMARK  Name = 11912239
REMARK  8 active torsions:
REMARK  status: ('A' for Active; 'I' for Inactive)
REMARK    1  A    between atoms: O_4  and  C_24
REMARK    2  A    between atoms: N_6  and  C_13
REMARK    3  A    between atoms: N_7  and  C_16
REMARK    4  A    between atoms: C_10  and  C_17
REMARK    5  A    between atoms: C_10  and  C_21
REMARK    6  A    between atoms: C_17  and  C_23
REMARK    7  A    between atoms: C_21  and  C_24
REMARK    8  A    between atoms: C_26  and  C_29
REMARK                            x       y       z     vdW  Elec       q    Type
REMARK                         _______ _______ _______ _____ _____    ______ ____
ROOT
ATOM      1  O   UNL     1      13.938   7.066   6.892  0.00  0.00    -0.370 OA
ATOM      2  O   UNL     1      11.714   9.222   6.520  0.00  0.00    -0.370 OA
ATOM     11  C   UNL     1      12.212   8.167   5.681  0.00  0.00    +0.171 C 
ATOM     12  C   UNL     1      13.710   8.084   5.904  0.00  0.00    +0.171 C 
ATOM     13  C   UNL     1      11.695   6.829   6.157  0.00  0.00    +0.130 C 
ATOM     16  C   UNL     1      14.078   9.441   6.455  0.00  0.00    +0.130 C 
ATOM     20  C   UNL     1      12.684   6.467   7.251  0.00  0.00    +0.185 C 
ATOM     22  C   UNL     1      12.815   9.857   7.186  0.00  0.00    +0.185 C 
ENDROOT
BRANCH  16   7
ATOM      7  N   UNL     1      14.353  10.358   5.369  0.00  0.00    -0.306 N 
ATOM      8  N   UNL     1      16.599   9.771   5.317  0.00  0.00    -0.214 NA
ATOM      9  N   UNL     1      15.700  11.412   3.798  0.00  0.00    -0.223 NA
ATOM     25  C   UNL     1      15.605  10.521   4.803  0.00  0.00    +0.216 A 
ATOM     26  C   UNL     1      17.805   9.955   4.742  0.00  0.00    +0.076 A 
ATOM     27  C   UNL     1      16.934  11.545   3.270  0.00  0.00    +0.116 A 
ATOM     28  C   UNL     1      18.035  10.836   3.706  0.00  0.00    +0.048 A 
ATOM     36  H   UNL     1      13.590  10.880   4.953  0.00  0.00    +0.149 HD
BRANCH  26  29
ATOM     29  C   UNL     1      18.873   9.151   5.289  0.00  0.00    +0.001 A 
ATOM     30  C   UNL     1      19.272   9.331   6.614  0.00  0.00    +0.010 A 
ATOM     31  C   UNL     1      19.507   8.196   4.493  0.00  0.00    +0.010 A 
ATOM     32  C   UNL     1      20.304   8.555   7.142  0.00  0.00    +0.001 A 
ATOM     33  C   UNL     1      20.537   7.421   5.022  0.00  0.00    +0.001 A 
ATOM     34  C   UNL     1      20.936   7.599   6.346  0.00  0.00    +0.000 A 
ENDBRANCH  26  29
ENDBRANCH  16   7
BRANCH  13   6
ATOM      3  O   UNL     1       9.415   5.572   4.891  0.00  0.00    -0.276 OA
ATOM      6  N   UNL     1      11.713   5.854   5.092  0.00  0.00    -0.308 N 
ATOM     23  C   UNL     1      10.562   5.304   4.544  0.00  0.00    +0.214 C 
ATOM     35  H   UNL     1      12.619   5.590   4.714  0.00  0.00    +0.149 HD
BRANCH  23  17
ATOM     17  C   UNL     1      10.886   4.312   3.443  0.00  0.00    +0.103 C 
BRANCH  17  10
ATOM     10  C   UNL     1      11.032   4.980   2.074  0.00  0.00    -0.011 C 
ATOM     14  C   UNL     1      10.261   4.216   0.988  0.00  0.00    +0.008 C 
ATOM     15  C   UNL     1      10.344   6.352   2.037  0.00  0.00    +0.008 C 
ATOM     18  C   UNL     1      10.007   5.243  -0.114  0.00  0.00    +0.001 C 
ATOM     19  C   UNL     1      10.061   6.614   0.560  0.00  0.00    +0.001 C 
BRANCH  10  21
ATOM     21  C   UNL     1      12.524   5.094   1.723  0.00  0.00    +0.127 C 
BRANCH  21  24
ATOM      5  O   UNL     1      13.045   3.573  -0.110  0.00  0.00    -0.251 OA
ATOM     24  C   UNL     1      13.032   3.834   1.083  0.00  0.00    +0.305 C 
BRANCH  24   4
ATOM      4  O   UNL     1      13.494   2.995   2.046  0.00  0.00    -0.481 OA
ATOM     37  H   UNL     1      13.402   3.383   2.943  0.00  0.00    +0.295 HD
ENDBRANCH  24   4
ENDBRANCH  21  24
ENDBRANCH  10  21
ENDBRANCH  17  10
ENDBRANCH  23  17
ENDBRANCH  13   6
TORSDOF 8
ENDMDL
MODEL 10
REMARK VINA RESULT:      -6.7      8.395     10.274
REMARK  Name = 11912239
REMARK  8 active torsions:
REMARK  status: ('A' for Active; 'I' for Inactive)
REMARK    1  A    between atoms: O_4  and  C_24
REMARK    2  A    between atoms: N_6  and  C_13
REMARK    3  A    between atoms: N_7  and  C_16
REMARK    4  A    between atoms: C_10  and  C_17
REMARK    5  A    between atoms: C_10  and  C_21
REMARK    6  A    between atoms: C_17  and  C_23
REMARK    7  A    between atoms: C_21  and  C_24
REMARK    8  A    between atoms: C_26  and  C_29
REMARK                            x       y       z     vdW  Elec       q    Type
REMARK                         _______ _______ _______ _____ _____    ______ ____
ROOT
ATOM      1  O   UNL     1      -6.563 -10.755  10.074  0.00  0.00    -0.370 OA
ATOM      2  O   UNL     1      -4.225  -8.829   9.329  0.00  0.00    -0.370 OA
ATOM     11  C   UNL     1      -4.521 -10.194   8.991  0.00  0.00    +0.171 C 
ATOM     12  C   UNL     1      -5.136 -10.839  10.218  0.00  0.00    +0.171 C 
ATOM     13  C   UNL     1      -5.622 -10.252   7.956  0.00  0.00    +0.130 C 
ATOM     16  C   UNL     1      -4.673  -9.970  11.363  0.00  0.00    +0.130 C 
ATOM     20  C   UNL     1      -6.875 -10.158   8.807  0.00  0.00    +0.185 C 
ATOM     22  C   UNL     1      -4.536  -8.606  10.712  0.00  0.00    +0.185 C 
ENDROOT
BRANCH  16   7
ATOM      7  N   UNL     1      -3.386 -10.427  11.843  0.00  0.00    -0.306 N 
ATOM      8  N   UNL     1      -4.106 -10.432  14.050  0.00  0.00    -0.214 NA
ATOM      9  N   UNL     1      -1.861 -11.084  13.466  0.00  0.00    -0.223 NA
ATOM     25  C   UNL     1      -3.105 -10.658  13.178  0.00  0.00    +0.216 A 
ATOM     26  C   UNL     1      -3.797 -10.667  15.343  0.00  0.00    +0.076 A 
ATOM     27  C   UNL     1      -1.621 -11.299  14.776  0.00  0.00    +0.116 A 
ATOM     28  C   UNL     1      -2.560 -11.105  15.769  0.00  0.00    +0.048 A 
ATOM     36  H   UNL     1      -2.654 -10.645  11.176  0.00  0.00    +0.149 HD
BRANCH  26  29
ATOM     29  C   UNL     1      -4.868 -10.428  16.281  0.00  0.00    +0.001 A 
ATOM     30  C   UNL     1      -4.754 -10.877  17.598  0.00  0.00    +0.010 A 
ATOM     31  C   UNL     1      -6.016  -9.749  15.873  0.00  0.00    +0.010 A 
ATOM     32  C   UNL     1      -5.788 -10.646  18.505  0.00  0.00    +0.001 A 
ATOM     33  C   UNL     1      -7.049  -9.519  16.780  0.00  0.00    +0.001 A 
ATOM     34  C   UNL     1      -6.936  -9.966  18.096  0.00  0.00    +0.000 A 
ENDBRANCH  26  29
ENDBRANCH  16   7
BRANCH  13   6
ATOM      3  O   UNL     1      -5.865 -10.601   5.092  0.00  0.00    -0.276 OA
ATOM      6  N   UNL     1      -5.580 -11.493   7.220  0.00  0.00    -0.308 N 
ATOM     23  C   UNL     1      -5.707 -11.564   5.839  0.00  0.00    +0.214 C 
ATOM     35  H   UNL     1      -5.421 -12.346   7.749  0.00  0.00    +0.149 HD
BRANCH  23  17
ATOM     17  C   UNL     1      -5.623 -12.995   5.342  0.00  0.00    +0.103 C 
BRANCH  17  10
ATOM     10  C   UNL     1      -4.307 -13.291   4.619  0.00  0.00    -0.011 C 
ATOM     14  C   UNL     1      -3.101 -12.748   5.399  0.00  0.00    +0.008 C 
ATOM     15  C   UNL     1      -4.005 -14.796   4.588  0.00  0.00    +0.008 C 
ATOM     18  C   UNL     1      -1.912 -13.579   4.918  0.00  0.00    +0.001 C 
ATOM     19  C   UNL     1      -2.493 -14.893   4.397  0.00  0.00    +0.001 C 
BRANCH  10  21
ATOM     21  C   UNL     1      -4.365 -12.703   3.200  0.00  0.00    +0.127 C 
BRANCH  21  24
ATOM      5  O   UNL     1      -6.082 -14.088   2.162  0.00  0.00    -0.251 OA
ATOM     24  C   UNL     1      -5.680 -12.998   2.540  0.00  0.00    +0.305 C 
BRANCH  24   4
ATOM      4  O   UNL     1      -6.391 -11.847   2.420  0.00  0.00    -0.481 OA
ATOM     37  H   UNL     1      -7.064 -11.906   1.707  0.00  0.00    +0.295 HD
ENDBRANCH  24   4
ENDBRANCH  21  24
ENDBRANCH  10  21
ENDBRANCH  17  10
ENDBRANCH  23  17
ENDBRANCH  13   6
TORSDOF 8
ENDMDL
