MODEL 1
REMARK VINA RESULT:      -7.4      0.000      0.000
REMARK  Name = 38029402
REMARK  12 active torsions:
REMARK  status: ('A' for Active; 'I' for Inactive)
REMARK    1  A    between atoms: N_4  and  C_14
REMARK    2  A    between atoms: N_5  and  C_21
REMARK    3  A    between atoms: C_7  and  C_11
REMARK    4  A    between atoms: C_8  and  C_14
REMARK    5  A    between atoms: C_10  and  C_15
REMARK    6  A    between atoms: C_11  and  C_16
REMARK    7  A    between atoms: C_11  and  C_17
REMARK    8  A    between atoms: C_12  and  C_18
REMARK    9  A    between atoms: C_15  and  C_19
REMARK   10  A    between atoms: C_20  and  C_22
REMARK   11  A    between atoms: C_21  and  C_23
REMARK   12  A    between atoms: C_33  and  C_34
REMARK                            x       y       z     vdW  Elec       q    Type
REMARK                         _______ _______ _______ _____ _____    ______ ____
ROOT
ATOM      7  C   UNL     1      -5.177 -10.535  10.834  0.00  0.00    +0.000 C 
ATOM      8  C   UNL     1      -4.627  -9.605   9.723  0.00  0.00    +0.032 C 
ATOM      9  C   UNL     1      -4.613 -10.125  12.204  0.00  0.00    +0.012 C 
ATOM     10  C   UNL     1      -3.074 -10.179  12.240  0.00  0.00    +0.023 C 
ATOM     12  C   UNL     1      -2.459  -9.511  11.028  0.00  0.00    -0.073 C 
ATOM     13  C   UNL     1      -3.171  -9.250   9.917  0.00  0.00    -0.022 C 
ATOM     18  C   UNL     1      -1.015  -9.106  11.138  0.00  0.00    +0.039 C 
ENDROOT
BRANCH   7  11
ATOM     11  C   UNL     1      -6.708 -10.523  10.879  0.00  0.00    -0.013 C 
ATOM     16  C   UNL     1      -7.211 -11.342  12.063  0.00  0.00    +0.007 C 
ATOM     17  C   UNL     1      -7.226  -9.091  10.952  0.00  0.00    +0.007 C 
ENDBRANCH   7  11
BRANCH   8  14
ATOM     14  C   UNL     1      -4.820 -10.227   8.336  0.00  0.00    +0.112 C 
BRANCH  14   4
ATOM      3  O   UNL     1      -5.638 -10.740   5.632  0.00  0.00    -0.270 OA
ATOM      4  N   UNL     1      -5.818  -9.518   7.597  0.00  0.00    -0.311 N 
ATOM     20  C   UNL     1      -6.155  -9.834   6.282  0.00  0.00    +0.244 C 
ATOM     35  H   UNL     1      -6.282  -8.750   8.069  0.00  0.00    +0.149 HD
BRANCH  20  22
ATOM      1  F   UNL     1     -10.080  -6.624   3.870  0.00  0.00    -0.205 F 
ATOM     22  C   UNL     1      -7.194  -8.985   5.643  0.00  0.00    +0.037 A 
ATOM     24  C   UNL     1      -7.470  -9.124   4.283  0.00  0.00    +0.016 A 
ATOM     25  C   UNL     1      -7.893  -8.048   6.405  0.00  0.00    +0.016 A 
ATOM     28  C   UNL     1      -8.445  -8.326   3.684  0.00  0.00    +0.039 A 
ATOM     29  C   UNL     1      -8.868  -7.251   5.806  0.00  0.00    +0.039 A 
ATOM     30  C   UNL     1      -9.144  -7.390   4.446  0.00  0.00    +0.123 A 
ENDBRANCH  20  22
ENDBRANCH  14   4
ENDBRANCH   8  14
BRANCH  10  15
ATOM     15  C   UNL     1      -2.575 -11.622  12.384  0.00  0.00    +0.103 C 
BRANCH  15  19
ATOM      2  O   UNL     1      -2.009 -13.116  14.201  0.00  0.00    -0.276 OA
ATOM      5  N   UNL     1      -2.339 -10.857  14.636  0.00  0.00    -0.311 N 
ATOM     19  C   UNL     1      -2.273 -11.978  13.822  0.00  0.00    +0.214 C 
ATOM     36  H   UNL     1      -2.563  -9.953  14.228  0.00  0.00    +0.149 HD
BRANCH   5  21
ATOM     21  C   UNL     1      -2.097 -10.900  16.060  0.00  0.00    +0.139 C 
BRANCH  21  23
ATOM     23  C   UNL     1      -3.376 -10.907  16.847  0.00  0.00    -0.030 A 
ATOM     26  C   UNL     1      -3.434 -11.561  18.077  0.00  0.00    +0.006 A 
ATOM     27  C   UNL     1      -4.505 -10.258  16.348  0.00  0.00    +0.006 A 
ATOM     31  C   UNL     1      -4.622 -11.568  18.808  0.00  0.00    +0.019 A 
ATOM     32  C   UNL     1      -5.693 -10.265  17.078  0.00  0.00    +0.019 A 
ATOM     33  C   UNL     1      -5.751 -10.919  18.309  0.00  0.00    +0.052 A 
BRANCH  33  34
ATOM      6  N   UNL     1      -7.956 -10.932  19.667  0.00  0.00    -0.191 NA
ATOM     34  C   UNL     1      -6.968 -10.927  19.058  0.00  0.00    +0.099 C 
ENDBRANCH  33  34
ENDBRANCH  21  23
ENDBRANCH   5  21
ENDBRANCH  15  19
ENDBRANCH  10  15
TORSDOF 9
ENDMDL
MODEL 2
REMARK VINA RESULT:      -7.4      3.710     10.122
REMARK  Name = 38029402
REMARK  12 active torsions:
REMARK  status: ('A' for Active; 'I' for Inactive)
REMARK    1  A    between atoms: N_4  and  C_14
REMARK    2  A    between atoms: N_5  and  C_21
REMARK    3  A    between atoms: C_7  and  C_11
REMARK    4  A    between atoms: C_8  and  C_14
REMARK    5  A    between atoms: C_10  and  C_15
REMARK    6  A    between atoms: C_11  and  C_16
REMARK    7  A    between atoms: C_11  and  C_17
REMARK    8  A    between atoms: C_12  and  C_18
REMARK    9  A    between atoms: C_15  and  C_19
REMARK   10  A    between atoms: C_20  and  C_22
REMARK   11  A    between atoms: C_21  and  C_23
REMARK   12  A    between atoms: C_33  and  C_34
REMARK                            x       y       z     vdW  Elec       q    Type
REMARK                         _______ _______ _______ _____ _____    ______ ____
ROOT
ATOM      7  C   UNL     1      -3.031 -12.297  12.862  0.00  0.00    +0.000 C 
ATOM      8  C   UNL     1      -1.954 -11.184  12.784  0.00  0.00    +0.032 C 
ATOM      9  C   UNL     1      -3.501 -12.687  11.452  0.00  0.00    +0.012 C 
ATOM     10  C   UNL     1      -4.091 -11.489  10.682  0.00  0.00    +0.023 C 
ATOM     12  C   UNL     1      -3.207 -10.264  10.786  0.00  0.00    -0.073 C 
ATOM     13  C   UNL     1      -2.249 -10.150  11.722  0.00  0.00    -0.022 C 
ATOM     18  C   UNL     1      -3.418  -9.187   9.756  0.00  0.00    +0.039 C 
ENDROOT
BRANCH   7  11
ATOM     11  C   UNL     1      -2.515 -13.536  13.598  0.00  0.00    -0.013 C 
ATOM     16  C   UNL     1      -3.525 -13.990  14.647  0.00  0.00    +0.007 C 
ATOM     17  C   UNL     1      -2.221 -14.659  12.608  0.00  0.00    +0.007 C 
ENDBRANCH   7  11
BRANCH   8  14
ATOM     14  C   UNL     1      -1.778 -10.490  14.138  0.00  0.00    +0.112 C 
BRANCH  14   4
ATOM      3  O   UNL     1      -2.315 -10.932  16.924  0.00  0.00    -0.270 OA
ATOM      4  N   UNL     1      -3.037 -10.339  14.800  0.00  0.00    -0.311 N 
ATOM     20  C   UNL     1      -3.210 -10.576  16.162  0.00  0.00    +0.244 C 
ATOM     35  H   UNL     1      -3.825 -10.054  14.229  0.00  0.00    +0.149 HD
BRANCH  20  22
ATOM      1  F   UNL     1      -8.413  -9.914  18.166  0.00  0.00    -0.205 F 
ATOM     22  C   UNL     1      -4.587 -10.400  16.693  0.00  0.00    +0.037 A 
ATOM     24  C   UNL     1      -4.888 -10.794  17.997  0.00  0.00    +0.016 A 
ATOM     25  C   UNL     1      -5.579  -9.842  15.887  0.00  0.00    +0.016 A 
ATOM     28  C   UNL     1      -6.181 -10.629  18.495  0.00  0.00    +0.039 A 
ATOM     29  C   UNL     1      -6.871  -9.677  16.384  0.00  0.00    +0.039 A 
ATOM     30  C   UNL     1      -7.172 -10.071  17.689  0.00  0.00    +0.123 A 
ENDBRANCH  20  22
ENDBRANCH  14   4
ENDBRANCH   8  14
BRANCH  10  15
ATOM     15  C   UNL     1      -5.517 -11.179  11.152  0.00  0.00    +0.103 C 
BRANCH  15  19
ATOM      2  O   UNL     1      -7.674 -10.829  10.114  0.00  0.00    -0.276 OA
ATOM      5  N   UNL     1      -5.924 -11.695   8.854  0.00  0.00    -0.311 N 
ATOM     19  C   UNL     1      -6.509 -11.201  10.011  0.00  0.00    +0.214 C 
ATOM     36  H   UNL     1      -4.948 -11.977   8.867  0.00  0.00    +0.149 HD
BRANCH   5  21
ATOM     21  C   UNL     1      -6.638 -11.833   7.606  0.00  0.00    +0.139 C 
BRANCH  21  23
ATOM     23  C   UNL     1      -5.707 -12.019   6.443  0.00  0.00    -0.030 A 
ATOM     26  C   UNL     1      -4.363 -12.320   6.667  0.00  0.00    +0.006 A 
ATOM     27  C   UNL     1      -6.185 -11.894   5.139  0.00  0.00    +0.006 A 
ATOM     31  C   UNL     1      -3.498 -12.493   5.587  0.00  0.00    +0.019 A 
ATOM     32  C   UNL     1      -5.320 -12.066   4.059  0.00  0.00    +0.019 A 
ATOM     33  C   UNL     1      -3.976 -12.366   4.283  0.00  0.00    +0.052 A 
BRANCH  33  34
ATOM      6  N   UNL     1      -2.368 -12.688   2.279  0.00  0.00    -0.191 NA
ATOM     34  C   UNL     1      -3.089 -12.544   3.177  0.00  0.00    +0.099 C 
ENDBRANCH  33  34
ENDBRANCH  21  23
ENDBRANCH   5  21
ENDBRANCH  15  19
ENDBRANCH  10  15
TORSDOF 9
ENDMDL
MODEL 3
REMARK VINA RESULT:      -7.3      4.360      9.543
REMARK  Name = 38029402
REMARK  12 active torsions:
REMARK  status: ('A' for Active; 'I' for Inactive)
REMARK    1  A    between atoms: N_4  and  C_14
REMARK    2  A    between atoms: N_5  and  C_21
REMARK    3  A    between atoms: C_7  and  C_11
REMARK    4  A    between atoms: C_8  and  C_14
REMARK    5  A    between atoms: C_10  and  C_15
REMARK    6  A    between atoms: C_11  and  C_16
REMARK    7  A    between atoms: C_11  and  C_17
REMARK    8  A    between atoms: C_12  and  C_18
REMARK    9  A    between atoms: C_15  and  C_19
REMARK   10  A    between atoms: C_20  and  C_22
REMARK   11  A    between atoms: C_21  and  C_23
REMARK   12  A    between atoms: C_33  and  C_34
REMARK                            x       y       z     vdW  Elec       q    Type
REMARK                         _______ _______ _______ _____ _____    ______ ____
ROOT
ATOM      7  C   UNL     1      -6.082 -10.336  15.337  0.00  0.00    +0.000 C 
ATOM      8  C   UNL     1      -6.878 -10.429  16.664  0.00  0.00    +0.032 C 
ATOM      9  C   UNL     1      -5.110 -11.519  15.212  0.00  0.00    +0.012 C 
ATOM     10  C   UNL     1      -4.107 -11.576  16.380  0.00  0.00    +0.023 C 
ATOM     12  C   UNL     1      -4.794 -11.403  17.719  0.00  0.00    -0.073 C 
ATOM     13  C   UNL     1      -6.037 -10.902  17.826  0.00  0.00    -0.022 C 
ATOM     18  C   UNL     1      -4.035 -11.864  18.933  0.00  0.00    +0.039 C 
ENDROOT
BRANCH   7  11
ATOM     11  C   UNL     1      -7.010 -10.295  14.119  0.00  0.00    -0.013 C 
ATOM     16  C   UNL     1      -6.316  -9.610  12.946  0.00  0.00    +0.007 C 
ATOM     17  C   UNL     1      -7.451 -11.705  13.739  0.00  0.00    +0.007 C 
ENDBRANCH   7  11
BRANCH   8  14
ATOM     14  C   UNL     1      -7.526  -9.085  17.015  0.00  0.00    +0.112 C 
BRANCH  14   4
ATOM      3  O   UNL     1     -10.191  -9.460  16.014  0.00  0.00    -0.270 OA
ATOM      4  N   UNL     1      -8.710  -9.280  17.792  0.00  0.00    -0.311 N 
ATOM     20  C   UNL     1      -9.970  -9.455  17.223  0.00  0.00    +0.244 C 
ATOM     35  H   UNL     1      -8.604  -9.280  18.800  0.00  0.00    +0.149 HD
BRANCH  20  22
ATOM      1  F   UNL     1     -14.260 -10.077  20.791  0.00  0.00    -0.205 F 
ATOM     22  C   UNL     1     -11.105  -9.619  18.168  0.00  0.00    +0.037 A 
ATOM     24  C   UNL     1     -10.864  -9.991  19.491  0.00  0.00    +0.016 A 
ATOM     25  C   UNL     1     -12.412  -9.403  17.731  0.00  0.00    +0.016 A 
ATOM     28  C   UNL     1     -11.930 -10.145  20.377  0.00  0.00    +0.039 A 
ATOM     29  C   UNL     1     -13.478  -9.557  18.617  0.00  0.00    +0.039 A 
ATOM     30  C   UNL     1     -13.237  -9.928  19.940  0.00  0.00    +0.123 A 
ENDBRANCH  20  22
ENDBRANCH  14   4
ENDBRANCH   8  14
BRANCH  10  15
ATOM     15  C   UNL     1      -2.989 -10.543  16.199  0.00  0.00    +0.103 C 
BRANCH  15  19
ATOM      2  O   UNL     1      -1.095 -11.632  15.158  0.00  0.00    -0.276 OA
ATOM      5  N   UNL     1      -2.482 -10.274  13.879  0.00  0.00    -0.311 N 
ATOM     19  C   UNL     1      -2.071 -10.894  15.050  0.00  0.00    +0.214 C 
ATOM     36  H   UNL     1      -3.307  -9.681  13.888  0.00  0.00    +0.149 HD
BRANCH   5  21
ATOM     21  C   UNL     1      -1.790 -10.428  12.620  0.00  0.00    +0.139 C 
BRANCH  21  23
ATOM     23  C   UNL     1      -2.728 -10.354  11.450  0.00  0.00    -0.030 A 
ATOM     26  C   UNL     1      -2.738  -9.222  10.636  0.00  0.00    +0.006 A 
ATOM     27  C   UNL     1      -3.588 -11.418  11.177  0.00  0.00    +0.006 A 
ATOM     31  C   UNL     1      -3.609  -9.153   9.548  0.00  0.00    +0.019 A 
ATOM     32  C   UNL     1      -4.460 -11.348  10.091  0.00  0.00    +0.019 A 
ATOM     33  C   UNL     1      -4.470 -10.216   9.276  0.00  0.00    +0.052 A 
BRANCH  33  34
ATOM      6  N   UNL     1      -6.088 -10.085   7.258  0.00  0.00    -0.191 NA
ATOM     34  C   UNL     1      -5.363 -10.145   8.163  0.00  0.00    +0.099 C 
ENDBRANCH  33  34
ENDBRANCH  21  23
ENDBRANCH   5  21
ENDBRANCH  15  19
ENDBRANCH  10  15
TORSDOF 9
ENDMDL
MODEL 4
REMARK VINA RESULT:      -7.3      3.642      9.390
REMARK  Name = 38029402
REMARK  12 active torsions:
REMARK  status: ('A' for Active; 'I' for Inactive)
REMARK    1  A    between atoms: N_4  and  C_14
REMARK    2  A    between atoms: N_5  and  C_21
REMARK    3  A    between atoms: C_7  and  C_11
REMARK    4  A    between atoms: C_8  and  C_14
REMARK    5  A    between atoms: C_10  and  C_15
REMARK    6  A    between atoms: C_11  and  C_16
REMARK    7  A    between atoms: C_11  and  C_17
REMARK    8  A    between atoms: C_12  and  C_18
REMARK    9  A    between atoms: C_15  and  C_19
REMARK   10  A    between atoms: C_20  and  C_22
REMARK   11  A    between atoms: C_21  and  C_23
REMARK   12  A    between atoms: C_33  and  C_34
REMARK                            x       y       z     vdW  Elec       q    Type
REMARK                         _______ _______ _______ _____ _____    ______ ____
ROOT
ATOM      7  C   UNL     1      -3.188 -12.119  12.586  0.00  0.00    +0.000 C 
ATOM      8  C   UNL     1      -2.070 -11.055  12.451  0.00  0.00    +0.032 C 
ATOM      9  C   UNL     1      -3.762 -12.472  11.206  0.00  0.00    +0.012 C 
ATOM     10  C   UNL     1      -4.344 -11.241  10.484  0.00  0.00    +0.023 C 
ATOM     12  C   UNL     1      -3.401 -10.057  10.543  0.00  0.00    -0.073 C 
ATOM     13  C   UNL     1      -2.382  -9.997  11.418  0.00  0.00    -0.022 C 
ATOM     18  C   UNL     1      -3.627  -8.961   9.538  0.00  0.00    +0.039 C 
ENDROOT
BRANCH   7  11
ATOM     11  C   UNL     1      -2.684 -13.388  13.279  0.00  0.00    -0.013 C 
ATOM     16  C   UNL     1      -3.671 -13.836  14.352  0.00  0.00    +0.007 C 
ATOM     17  C   UNL     1      -2.456 -14.497  12.256  0.00  0.00    +0.007 C 
ENDBRANCH   7  11
BRANCH   8  14
ATOM     14  C   UNL     1      -1.778 -10.384  13.797  0.00  0.00    +0.112 C 
BRANCH  14   4
ATOM      3  O   UNL     1      -2.029 -10.937  16.604  0.00  0.00    -0.270 OA
ATOM      4  N   UNL     1      -2.969 -10.286  14.584  0.00  0.00    -0.311 N 
ATOM     20  C   UNL     1      -3.002 -10.575  15.947  0.00  0.00    +0.244 C 
ATOM     35  H   UNL     1      -3.814  -9.999  14.105  0.00  0.00    +0.149 HD
BRANCH  20  22
ATOM      1  F   UNL     1      -7.992 -10.103  18.479  0.00  0.00    -0.205 F 
ATOM     22  C   UNL     1      -4.323 -10.450  16.617  0.00  0.00    +0.037 A 
ATOM     24  C   UNL     1      -5.387  -9.838  15.953  0.00  0.00    +0.016 A 
ATOM     25  C   UNL     1      -4.499 -10.944  17.909  0.00  0.00    +0.016 A 
ATOM     28  C   UNL     1      -6.627  -9.721  16.582  0.00  0.00    +0.039 A 
ATOM     29  C   UNL     1      -5.738 -10.828  18.538  0.00  0.00    +0.039 A 
ATOM     30  C   UNL     1      -6.802 -10.216  17.874  0.00  0.00    +0.123 A 
ENDBRANCH  20  22
ENDBRANCH  14   4
ENDBRANCH   8  14
BRANCH  10  15
ATOM     15  C   UNL     1      -5.723 -10.873  11.045  0.00  0.00    +0.103 C 
BRANCH  15  19
ATOM      2  O   UNL     1      -7.483 -11.895   9.736  0.00  0.00    -0.276 OA
ATOM      5  N   UNL     1      -6.891  -9.684   9.332  0.00  0.00    -0.311 N 
ATOM     19  C   UNL     1      -6.796 -10.906   9.981  0.00  0.00    +0.214 C 
ATOM     36  H   UNL     1      -6.280  -8.921   9.608  0.00  0.00    +0.149 HD
BRANCH   5  21
ATOM     21  C   UNL     1      -7.833  -9.427   8.267  0.00  0.00    +0.139 C 
BRANCH  21  23
ATOM     23  C   UNL     1      -8.563  -8.130   8.462  0.00  0.00    -0.030 A 
ATOM     26  C   UNL     1      -9.814  -8.120   9.079  0.00  0.00    +0.006 A 
ATOM     27  C   UNL     1      -7.991  -6.935   8.025  0.00  0.00    +0.006 A 
ATOM     31  C   UNL     1     -10.492  -6.915   9.261  0.00  0.00    +0.019 A 
ATOM     32  C   UNL     1      -8.670  -5.730   8.206  0.00  0.00    +0.019 A 
ATOM     33  C   UNL     1      -9.920  -5.720   8.824  0.00  0.00    +0.052 A 
BRANCH  33  34
ATOM      6  N   UNL     1     -11.181  -3.483   9.161  0.00  0.00    -0.191 NA
ATOM     34  C   UNL     1     -10.616  -4.486   9.009  0.00  0.00    +0.099 C 
ENDBRANCH  33  34
ENDBRANCH  21  23
ENDBRANCH   5  21
ENDBRANCH  15  19
ENDBRANCH  10  15
TORSDOF 9
ENDMDL
MODEL 5
REMARK VINA RESULT:      -7.2      3.457      4.962
REMARK  Name = 38029402
REMARK  12 active torsions:
REMARK  status: ('A' for Active; 'I' for Inactive)
REMARK    1  A    between atoms: N_4  and  C_14
REMARK    2  A    between atoms: N_5  and  C_21
REMARK    3  A    between atoms: C_7  and  C_11
REMARK    4  A    between atoms: C_8  and  C_14
REMARK    5  A    between atoms: C_10  and  C_15
REMARK    6  A    between atoms: C_11  and  C_16
REMARK    7  A    between atoms: C_11  and  C_17
REMARK    8  A    between atoms: C_12  and  C_18
REMARK    9  A    between atoms: C_15  and  C_19
REMARK   10  A    between atoms: C_20  and  C_22
REMARK   11  A    between atoms: C_21  and  C_23
REMARK   12  A    between atoms: C_33  and  C_34
REMARK                            x       y       z     vdW  Elec       q    Type
REMARK                         _______ _______ _______ _____ _____    ______ ____
ROOT
ATOM      7  C   UNL     1      -6.117  -9.508   7.457  0.00  0.00    +0.000 C 
ATOM      8  C   UNL     1      -7.378  -8.892   8.114  0.00  0.00    +0.032 C 
ATOM      9  C   UNL     1      -5.467 -10.531   8.400  0.00  0.00    +0.012 C 
ATOM     10  C   UNL     1      -5.059  -9.905   9.747  0.00  0.00    +0.023 C 
ATOM     12  C   UNL     1      -6.169  -9.055  10.332  0.00  0.00    -0.073 C 
ATOM     13  C   UNL     1      -7.204  -8.623   9.591  0.00  0.00    -0.022 C 
ATOM     18  C   UNL     1      -6.086  -8.752  11.803  0.00  0.00    +0.039 C 
ENDROOT
BRANCH   7  11
ATOM     11  C   UNL     1      -6.442 -10.172   6.115  0.00  0.00    -0.013 C 
ATOM     16  C   UNL     1      -5.281 -11.051   5.663  0.00  0.00    +0.007 C 
ATOM     17  C   UNL     1      -7.727 -10.985   6.222  0.00  0.00    +0.007 C 
ENDBRANCH   7  11
BRANCH   8  14
ATOM     14  C   UNL     1      -7.796  -7.599   7.405  0.00  0.00    +0.112 C 
BRANCH  14   4
ATOM      3  O   UNL     1     -10.378  -6.530   6.748  0.00  0.00    -0.270 OA
ATOM      4  N   UNL     1      -8.631  -6.803   8.251  0.00  0.00    -0.311 N 
ATOM     20  C   UNL     1      -9.877  -6.323   7.851  0.00  0.00    +0.244 C 
ATOM     35  H   UNL     1      -8.276  -6.586   9.175  0.00  0.00    +0.149 HD
BRANCH  20  22
ATOM      1  F   UNL     1     -12.651  -3.167  11.574  0.00  0.00    -0.205 F 
ATOM     22  C   UNL     1     -10.611  -5.488   8.836  0.00  0.00    +0.037 A 
ATOM     24  C   UNL     1     -11.450  -6.091   9.774  0.00  0.00    +0.016 A 
ATOM     25  C   UNL     1     -10.461  -4.101   8.824  0.00  0.00    +0.016 A 
ATOM     28  C   UNL     1     -12.140  -5.306  10.699  0.00  0.00    +0.039 A 
ATOM     29  C   UNL     1     -11.149  -3.317   9.749  0.00  0.00    +0.039 A 
ATOM     30  C   UNL     1     -11.989  -3.920  10.686  0.00  0.00    +0.123 A 
ENDBRANCH  20  22
ENDBRANCH  14   4
ENDBRANCH   8  14
BRANCH  10  15
ATOM     15  C   UNL     1      -3.763  -9.097   9.611  0.00  0.00    +0.103 C 
BRANCH  15  19
ATOM      2  O   UNL     1      -1.628  -8.987  10.744  0.00  0.00    -0.276 OA
ATOM      5  N   UNL     1      -3.090 -10.729  11.222  0.00  0.00    -0.311 N 
ATOM     19  C   UNL     1      -2.696  -9.568  10.573  0.00  0.00    +0.214 C 
ATOM     36  H   UNL     1      -3.997 -11.136  11.015  0.00  0.00    +0.149 HD
BRANCH   5  21
ATOM     21  C   UNL     1      -2.266 -11.406  12.197  0.00  0.00    +0.139 C 
BRANCH  21  23
ATOM     23  C   UNL     1      -2.831 -11.297  13.584  0.00  0.00    -0.030 A 
ATOM     26  C   UNL     1      -2.065 -10.736  14.606  0.00  0.00    +0.006 A 
ATOM     27  C   UNL     1      -4.121 -11.755  13.849  0.00  0.00    +0.006 A 
ATOM     31  C   UNL     1      -2.590 -10.634  15.895  0.00  0.00    +0.019 A 
ATOM     32  C   UNL     1      -4.646 -11.654  15.138  0.00  0.00    +0.019 A 
ATOM     33  C   UNL     1      -3.881 -11.093  16.160  0.00  0.00    +0.052 A 
BRANCH  33  34
ATOM      6  N   UNL     1      -4.854 -10.903  18.552  0.00  0.00    -0.191 NA
ATOM     34  C   UNL     1      -4.418 -10.989  17.481  0.00  0.00    +0.099 C 
ENDBRANCH  33  34
ENDBRANCH  21  23
ENDBRANCH   5  21
ENDBRANCH  15  19
ENDBRANCH  10  15
TORSDOF 9
ENDMDL
MODEL 6
REMARK VINA RESULT:      -7.2     22.956     26.891
REMARK  Name = 38029402
REMARK  12 active torsions:
REMARK  status: ('A' for Active; 'I' for Inactive)
REMARK    1  A    between atoms: N_4  and  C_14
REMARK    2  A    between atoms: N_5  and  C_21
REMARK    3  A    between atoms: C_7  and  C_11
REMARK    4  A    between atoms: C_8  and  C_14
REMARK    5  A    between atoms: C_10  and  C_15
REMARK    6  A    between atoms: C_11  and  C_16
REMARK    7  A    between atoms: C_11  and  C_17
REMARK    8  A    between atoms: C_12  and  C_18
REMARK    9  A    between atoms: C_15  and  C_19
REMARK   10  A    between atoms: C_20  and  C_22
REMARK   11  A    between atoms: C_21  and  C_23
REMARK   12  A    between atoms: C_33  and  C_34
REMARK                            x       y       z     vdW  Elec       q    Type
REMARK                         _______ _______ _______ _____ _____    ______ ____
ROOT
ATOM      7  C   UNL     1       8.799   8.534   5.230  0.00  0.00    +0.000 C 
ATOM      8  C   UNL     1       8.751   8.018   6.690  0.00  0.00    +0.032 C 
ATOM      9  C   UNL     1       8.301   7.450   4.261  0.00  0.00    +0.012 C 
ATOM     10  C   UNL     1       9.137   6.159   4.351  0.00  0.00    +0.023 C 
ATOM     12  C   UNL     1       9.360   5.732   5.787  0.00  0.00    -0.073 C 
ATOM     13  C   UNL     1       9.170   6.572   6.820  0.00  0.00    -0.022 C 
ATOM     18  C   UNL     1       9.764   4.301   6.013  0.00  0.00    +0.039 C 
ENDROOT
BRANCH   7  11
ATOM     11  C   UNL     1       7.973   9.810   5.050  0.00  0.00    -0.013 C 
ATOM     16  C   UNL     1       8.879  10.986   4.701  0.00  0.00    +0.007 C 
ATOM     17  C   UNL     1       6.910   9.609   3.975  0.00  0.00    +0.007 C 
ENDBRANCH   7  11
BRANCH   8  14
ATOM     14  C   UNL     1       9.614   8.885   7.612  0.00  0.00    +0.112 C 
BRANCH  14   4
ATOM      3  O   UNL     1      11.534  10.920   6.966  0.00  0.00    -0.270 OA
ATOM      4  N   UNL     1      11.004   8.691   7.337  0.00  0.00    -0.311 N 
ATOM     20  C   UNL     1      11.870   9.739   7.030  0.00  0.00    +0.244 C 
ATOM     35  H   UNL     1      11.350   7.738   7.365  0.00  0.00    +0.149 HD
BRANCH  20  22
ATOM      1  F   UNL     1      17.198   8.340   5.945  0.00  0.00    -0.205 F 
ATOM     22  C   UNL     1      13.280   9.369   6.743  0.00  0.00    +0.037 A 
ATOM     24  C   UNL     1      14.249  10.364   6.611  0.00  0.00    +0.016 A 
ATOM     25  C   UNL     1      13.634   8.027   6.606  0.00  0.00    +0.016 A 
ATOM     28  C   UNL     1      15.573  10.016   6.341  0.00  0.00    +0.039 A 
ATOM     29  C   UNL     1      14.957   7.679   6.337  0.00  0.00    +0.039 A 
ATOM     30  C   UNL     1      15.927   8.674   6.204  0.00  0.00    +0.123 A 
ENDBRANCH  20  22
ENDBRANCH  14   4
ENDBRANCH   8  14
BRANCH  10  15
ATOM     15  C   UNL     1      10.470   6.312   3.610  0.00  0.00    +0.103 C 
BRANCH  15  19
ATOM      2  O   UNL     1      10.040   5.298   1.455  0.00  0.00    -0.276 OA
ATOM      5  N   UNL     1      11.554   4.301   2.908  0.00  0.00    -0.311 N 
ATOM     19  C   UNL     1      10.640   5.272   2.526  0.00  0.00    +0.214 C 
ATOM     36  H   UNL     1      12.004   4.366   3.817  0.00  0.00    +0.149 HD
BRANCH   5  21
ATOM     21  C   UNL     1      11.913   3.180   2.069  0.00  0.00    +0.139 C 
BRANCH  21  23
ATOM     23  C   UNL     1      13.093   3.488   1.193  0.00  0.00    -0.030 A 
ATOM     26  C   UNL     1      14.371   3.561   1.747  0.00  0.00    +0.006 A 
ATOM     27  C   UNL     1      12.911   3.700  -0.173  0.00  0.00    +0.006 A 
ATOM     31  C   UNL     1      15.468   3.847   0.934  0.00  0.00    +0.019 A 
ATOM     32  C   UNL     1      14.007   3.987  -0.986  0.00  0.00    +0.019 A 
ATOM     33  C   UNL     1      15.285   4.060  -0.433  0.00  0.00    +0.052 A 
BRANCH  33  34
ATOM      6  N   UNL     1      17.321   4.591  -1.943  0.00  0.00    -0.191 NA
ATOM     34  C   UNL     1      16.409   4.353  -1.266  0.00  0.00    +0.099 C 
ENDBRANCH  33  34
ENDBRANCH  21  23
ENDBRANCH   5  21
ENDBRANCH  15  19
ENDBRANCH  10  15
TORSDOF 9
ENDMDL
MODEL 7
REMARK VINA RESULT:      -7.1     23.573     27.259
REMARK  Name = 38029402
REMARK  12 active torsions:
REMARK  status: ('A' for Active; 'I' for Inactive)
REMARK    1  A    between atoms: N_4  and  C_14
REMARK    2  A    between atoms: N_5  and  C_21
REMARK    3  A    between atoms: C_7  and  C_11
REMARK    4  A    between atoms: C_8  and  C_14
REMARK    5  A    between atoms: C_10  and  C_15
REMARK    6  A    between atoms: C_11  and  C_16
REMARK    7  A    between atoms: C_11  and  C_17
REMARK    8  A    between atoms: C_12  and  C_18
REMARK    9  A    between atoms: C_15  and  C_19
REMARK   10  A    between atoms: C_20  and  C_22
REMARK   11  A    between atoms: C_21  and  C_23
REMARK   12  A    between atoms: C_33  and  C_34
REMARK                            x       y       z     vdW  Elec       q    Type
REMARK                         _______ _______ _______ _____ _____    ______ ____
ROOT
ATOM      7  C   UNL     1       9.158   8.096   5.055  0.00  0.00    +0.000 C 
ATOM      8  C   UNL     1       8.831   8.870   6.356  0.00  0.00    +0.032 C 
ATOM      9  C   UNL     1       8.518   6.700   5.086  0.00  0.00    +0.012 C 
ATOM     10  C   UNL     1       9.001   5.863   6.286  0.00  0.00    +0.023 C 
ATOM     12  C   UNL     1       8.960   6.656   7.577  0.00  0.00    -0.073 C 
ATOM     13  C   UNL     1       8.870   7.997   7.589  0.00  0.00    -0.022 C 
ATOM     18  C   UNL     1       8.977   5.866   8.857  0.00  0.00    +0.039 C 
ENDROOT
BRANCH   7  11
ATOM     11  C   UNL     1       8.691   8.854   3.809  0.00  0.00    -0.013 C 
ATOM     16  C   UNL     1       8.901   8.005   2.560  0.00  0.00    +0.007 C 
ATOM     17  C   UNL     1       7.226   9.256   3.950  0.00  0.00    +0.007 C 
ENDBRANCH   7  11
BRANCH   8  14
ATOM     14  C   UNL     1       9.776  10.061   6.544  0.00  0.00    +0.112 C 
BRANCH  14   4
ATOM      3  O   UNL     1      12.023  10.525   8.271  0.00  0.00    -0.270 OA
ATOM      4  N   UNL     1      11.132   9.677   6.303  0.00  0.00    -0.311 N 
ATOM     20  C   UNL     1      12.166   9.942   7.199  0.00  0.00    +0.244 C 
ATOM     35  H   UNL     1      11.326   9.197   5.432  0.00  0.00    +0.149 HD
BRANCH  20  22
ATOM      1  F   UNL     1      17.299   8.272   5.652  0.00  0.00    -0.205 F 
ATOM     22  C   UNL     1      13.525   9.501   6.790  0.00  0.00    +0.037 A 
ATOM     24  C   UNL     1      14.531  10.444   6.578  0.00  0.00    +0.016 A 
ATOM     25  C   UNL     1      13.794   8.143   6.617  0.00  0.00    +0.016 A 
ATOM     28  C   UNL     1      15.806  10.028   6.194  0.00  0.00    +0.039 A 
ATOM     29  C   UNL     1      15.068   7.727   6.233  0.00  0.00    +0.039 A 
ATOM     30  C   UNL     1      16.075   8.671   6.022  0.00  0.00    +0.123 A 
ENDBRANCH  20  22
ENDBRANCH  14   4
ENDBRANCH   8  14
BRANCH  10  15
ATOM     15  C   UNL     1      10.402   5.295   6.035  0.00  0.00    +0.103 C 
BRANCH  15  19
ATOM      2  O   UNL     1      10.199   4.605   3.725  0.00  0.00    -0.276 OA
ATOM      5  N   UNL     1      11.802   6.181   4.313  0.00  0.00    -0.311 N 
ATOM     19  C   UNL     1      10.762   5.299   4.567  0.00  0.00    +0.214 C 
ATOM     36  H   UNL     1      12.204   6.716   5.078  0.00  0.00    +0.149 HD
BRANCH   5  21
ATOM     21  C   UNL     1      12.356   6.389   2.995  0.00  0.00    +0.139 C 
BRANCH  21  23
ATOM     23  C   UNL     1      13.136   7.670   2.909  0.00  0.00    -0.030 A 
ATOM     26  C   UNL     1      12.505   8.888   3.162  0.00  0.00    +0.006 A 
ATOM     27  C   UNL     1      14.490   7.640   2.576  0.00  0.00    +0.006 A 
ATOM     31  C   UNL     1      13.229  10.078   3.082  0.00  0.00    +0.019 A 
ATOM     32  C   UNL     1      15.214   8.830   2.494  0.00  0.00    +0.019 A 
ATOM     33  C   UNL     1      14.584  10.048   2.748  0.00  0.00    +0.052 A 
BRANCH  33  34
ATOM      6  N   UNL     1      15.928  12.257   2.599  0.00  0.00    -0.191 NA
ATOM     34  C   UNL     1      15.325  11.267   2.666  0.00  0.00    +0.099 C 
ENDBRANCH  33  34
ENDBRANCH  21  23
ENDBRANCH   5  21
ENDBRANCH  15  19
ENDBRANCH  10  15
TORSDOF 9
ENDMDL
MODEL 8
REMARK VINA RESULT:      -6.9     26.347     29.598
REMARK  Name = 38029402
REMARK  12 active torsions:
REMARK  status: ('A' for Active; 'I' for Inactive)
REMARK    1  A    between atoms: N_4  and  C_14
REMARK    2  A    between atoms: N_5  and  C_21
REMARK    3  A    between atoms: C_7  and  C_11
REMARK    4  A    between atoms: C_8  and  C_14
REMARK    5  A    between atoms: C_10  and  C_15
REMARK    6  A    between atoms: C_11  and  C_16
REMARK    7  A    between atoms: C_11  and  C_17
REMARK    8  A    between atoms: C_12  and  C_18
REMARK    9  A    between atoms: C_15  and  C_19
REMARK   10  A    between atoms: C_20  and  C_22
REMARK   11  A    between atoms: C_21  and  C_23
REMARK   12  A    between atoms: C_33  and  C_34
REMARK                            x       y       z     vdW  Elec       q    Type
REMARK                         _______ _______ _______ _____ _____    ______ ____
ROOT
ATOM      7  C   UNL     1      13.432   9.779  19.612  0.00  0.00    +0.000 C 
ATOM      8  C   UNL     1      12.145   8.919  19.670  0.00  0.00    +0.032 C 
ATOM      9  C   UNL     1      13.280  10.903  18.575  0.00  0.00    +0.012 C 
ATOM     10  C   UNL     1      12.994  10.358  17.163  0.00  0.00    +0.023 C 
ATOM     12  C   UNL     1      11.910   9.299  17.178  0.00  0.00    -0.073 C 
ATOM     13  C   UNL     1      11.534   8.677  18.309  0.00  0.00    -0.022 C 
ATOM     18  C   UNL     1      11.234   9.005  15.867  0.00  0.00    +0.039 C 
ENDROOT
BRANCH   7  11
ATOM     11  C   UNL     1      13.778  10.378  20.979  0.00  0.00    -0.013 C 
ATOM     16  C   UNL     1      15.266  10.705  21.055  0.00  0.00    +0.007 C 
ATOM     17  C   UNL     1      12.936  11.621  21.243  0.00  0.00    +0.007 C 
ENDBRANCH   7  11
BRANCH   8  14
ATOM     14  C   UNL     1      12.408   7.575  20.358  0.00  0.00    +0.112 C 
BRANCH  14   4
ATOM      3  O   UNL     1      14.203   6.451  18.419  0.00  0.00    -0.270 OA
ATOM      4  N   UNL     1      13.811   7.354  20.521  0.00  0.00    -0.311 N 
ATOM     20  C   UNL     1      14.612   6.801  19.524  0.00  0.00    +0.244 C 
ATOM     35  H   UNL     1      14.217   7.613  21.413  0.00  0.00    +0.149 HD
BRANCH  20  22
ATOM      1  F   UNL     1      20.035   6.083  20.791  0.00  0.00    -0.205 F 
ATOM     22  C   UNL     1      16.047   6.611  19.859  0.00  0.00    +0.037 A 
ATOM     24  C   UNL     1      16.869   5.866  19.012  0.00  0.00    +0.016 A 
ATOM     25  C   UNL     1      16.573   7.177  21.020  0.00  0.00    +0.016 A 
ATOM     28  C   UNL     1      18.216   5.688  19.328  0.00  0.00    +0.039 A 
ATOM     29  C   UNL     1      17.920   7.000  21.335  0.00  0.00    +0.039 A 
ATOM     30  C   UNL     1      18.741   6.255  20.488  0.00  0.00    +0.123 A 
ENDBRANCH  20  22
ENDBRANCH  14   4
ENDBRANCH   8  14
BRANCH  10  15
ATOM     15  C   UNL     1      14.273   9.825  16.506  0.00  0.00    +0.103 C 
BRANCH  15  19
ATOM      2  O   UNL     1      15.369  10.106  14.368  0.00  0.00    -0.276 OA
ATOM      5  N   UNL     1      13.865  11.717  15.104  0.00  0.00    -0.311 N 
ATOM     19  C   UNL     1      14.583  10.534  15.208  0.00  0.00    +0.214 C 
ATOM     36  H   UNL     1      13.234  11.988  15.853  0.00  0.00    +0.149 HD
BRANCH   5  21
ATOM     21  C   UNL     1      13.965  12.603  13.967  0.00  0.00    +0.139 C 
BRANCH  21  23
ATOM     23  C   UNL     1      12.851  12.384  12.984  0.00  0.00    -0.030 A 
ATOM     26  C   UNL     1      11.595  11.978  13.434  0.00  0.00    +0.006 A 
ATOM     27  C   UNL     1      13.074  12.588  11.622  0.00  0.00    +0.006 A 
ATOM     31  C   UNL     1      10.560  11.774  12.520  0.00  0.00    +0.019 A 
ATOM     32  C   UNL     1      12.040  12.383  10.709  0.00  0.00    +0.019 A 
ATOM     33  C   UNL     1      10.783  11.977  11.158  0.00  0.00    +0.052 A 
BRANCH  33  34
ATOM      6  N   UNL     1       8.862  11.598   9.463  0.00  0.00    -0.191 NA
ATOM     34  C   UNL     1       9.723  11.768  10.223  0.00  0.00    +0.099 C 
ENDBRANCH  33  34
ENDBRANCH  21  23
ENDBRANCH   5  21
ENDBRANCH  15  19
ENDBRANCH  10  15
TORSDOF 9
ENDMDL
MODEL 9
REMARK VINA RESULT:      -6.9     24.219     27.758
REMARK  Name = 38029402
REMARK  12 active torsions:
REMARK  status: ('A' for Active; 'I' for Inactive)
REMARK    1  A    between atoms: N_4  and  C_14
REMARK    2  A    between atoms: N_5  and  C_21
REMARK    3  A    between atoms: C_7  and  C_11
REMARK    4  A    between atoms: C_8  and  C_14
REMARK    5  A    between atoms: C_10  and  C_15
REMARK    6  A    between atoms: C_11  and  C_16
REMARK    7  A    between atoms: C_11  and  C_17
REMARK    8  A    between atoms: C_12  and  C_18
REMARK    9  A    between atoms: C_15  and  C_19
REMARK   10  A    between atoms: C_20  and  C_22
REMARK   11  A    between atoms: C_21  and  C_23
REMARK   12  A    between atoms: C_33  and  C_34
REMARK                            x       y       z     vdW  Elec       q    Type
REMARK                         _______ _______ _______ _____ _____    ______ ____
ROOT
ATOM      7  C   UNL     1      13.421   7.845   4.529  0.00  0.00    +0.000 C 
ATOM      8  C   UNL     1      14.783   7.571   3.842  0.00  0.00    +0.032 C 
ATOM      9  C   UNL     1      12.411   6.743   4.175  0.00  0.00    +0.012 C 
ATOM     10  C   UNL     1      12.178   6.632   2.656  0.00  0.00    +0.023 C 
ATOM     12  C   UNL     1      13.483   6.627   1.886  0.00  0.00    -0.073 C 
ATOM     13  C   UNL     1      14.639   7.037   2.436  0.00  0.00    -0.022 C 
ATOM     18  C   UNL     1      13.437   6.095   0.480  0.00  0.00    +0.039 C 
ENDROOT
BRANCH   7  11
ATOM     11  C   UNL     1      13.563   7.950   6.050  0.00  0.00    -0.013 C 
ATOM     16  C   UNL     1      12.201   7.807   6.722  0.00  0.00    +0.007 C 
ATOM     17  C   UNL     1      14.535   6.896   6.568  0.00  0.00    +0.007 C 
ENDBRANCH   7  11
BRANCH   8  14
ATOM     14  C   UNL     1      15.657   8.830   3.824  0.00  0.00    +0.112 C 
BRANCH  14   4
ATOM      3  O   UNL     1      17.312   8.967   6.166  0.00  0.00    -0.270 OA
ATOM      4  N   UNL     1      17.042   8.488   3.911  0.00  0.00    -0.311 N 
ATOM     20  C   UNL     1      17.774   8.585   5.093  0.00  0.00    +0.244 C 
ATOM     35  H   UNL     1      17.492   8.171   3.060  0.00  0.00    +0.149 HD
BRANCH  20  22
ATOM      1  F   UNL     1      23.206   7.196   4.788  0.00  0.00    -0.205 F 
ATOM     22  C   UNL     1      19.211   8.217   5.013  0.00  0.00    +0.037 A 
ATOM     24  C   UNL     1      20.038   8.384   6.125  0.00  0.00    +0.016 A 
ATOM     25  C   UNL     1      19.735   7.706   3.825  0.00  0.00    +0.016 A 
ATOM     28  C   UNL     1      21.387   8.039   6.049  0.00  0.00    +0.039 A 
ATOM     29  C   UNL     1      21.083   7.360   3.749  0.00  0.00    +0.039 A 
ATOM     30  C   UNL     1      21.910   7.527   4.861  0.00  0.00    +0.123 A 
ENDBRANCH  20  22
ENDBRANCH  14   4
ENDBRANCH   8  14
BRANCH  10  15
ATOM     15  C   UNL     1      11.250   7.745   2.156  0.00  0.00    +0.103 C 
BRANCH  15  19
ATOM      2  O   UNL     1      10.288   9.302   3.740  0.00  0.00    -0.276 OA
ATOM      5  N   UNL     1       9.370   7.178   3.519  0.00  0.00    -0.311 N 
ATOM     19  C   UNL     1      10.272   8.190   3.220  0.00  0.00    +0.214 C 
ATOM     36  H   UNL     1       9.435   6.289   3.032  0.00  0.00    +0.149 HD
BRANCH   5  21
ATOM     21  C   UNL     1       8.322   7.322   4.503  0.00  0.00    +0.139 C 
BRANCH  21  23
ATOM     23  C   UNL     1       8.710   6.733   5.829  0.00  0.00    -0.030 A 
ATOM     26  C   UNL     1       9.303   5.472   5.884  0.00  0.00    +0.006 A 
ATOM     27  C   UNL     1       8.478   7.448   7.004  0.00  0.00    +0.006 A 
ATOM     31  C   UNL     1       9.664   4.925   7.116  0.00  0.00    +0.019 A 
ATOM     32  C   UNL     1       8.837   6.901   8.235  0.00  0.00    +0.019 A 
ATOM     33  C   UNL     1       9.431   5.640   8.291  0.00  0.00    +0.052 A 
BRANCH  33  34
ATOM      6  N   UNL     1      10.100   4.622  10.577  0.00  0.00    -0.191 NA
ATOM     34  C   UNL     1       9.800   5.079   9.553  0.00  0.00    +0.099 C 
ENDBRANCH  33  34
ENDBRANCH  21  23
ENDBRANCH   5  21
ENDBRANCH  15  19
ENDBRANCH  10  15
TORSDOF 9
ENDMDL
MODEL 10
REMARK VINA RESULT:      -6.7      4.758     10.576
REMARK  Name = 38029402
REMARK  12 active torsions:
REMARK  status: ('A' for Active; 'I' for Inactive)
REMARK    1  A    between atoms: N_4  and  C_14
REMARK    2  A    between atoms: N_5  and  C_21
REMARK    3  A    between atoms: C_7  and  C_11
REMARK    4  A    between atoms: C_8  and  C_14
REMARK    5  A    between atoms: C_10  and  C_15
REMARK    6  A    between atoms: C_11  and  C_16
REMARK    7  A    between atoms: C_11  and  C_17
REMARK    8  A    between atoms: C_12  and  C_18
REMARK    9  A    between atoms: C_15  and  C_19
REMARK   10  A    between atoms: C_20  and  C_22
REMARK   11  A    between atoms: C_21  and  C_23
REMARK   12  A    between atoms: C_33  and  C_34
REMARK                            x       y       z     vdW  Elec       q    Type
REMARK                         _______ _______ _______ _____ _____    ______ ____
ROOT
ATOM      7  C   UNL     1      -7.038 -11.435  16.824  0.00  0.00    +0.000 C 
ATOM      8  C   UNL     1      -7.118 -11.480  18.371  0.00  0.00    +0.032 C 
ATOM      9  C   UNL     1      -5.983 -12.428  16.312  0.00  0.00    +0.012 C 
ATOM     10  C   UNL     1      -4.582 -12.135  16.882  0.00  0.00    +0.023 C 
ATOM     12  C   UNL     1      -4.621 -11.900  18.378  0.00  0.00    -0.073 C 
ATOM     13  C   UNL     1      -5.764 -11.622  19.029  0.00  0.00    -0.022 C 
ATOM     18  C   UNL     1      -3.320 -12.038  19.120  0.00  0.00    +0.039 C 
ENDROOT
BRANCH   7  11
ATOM     11  C   UNL     1      -8.392 -11.737  16.176  0.00  0.00    -0.013 C 
ATOM     16  C   UNL     1      -8.241 -11.868  14.664  0.00  0.00    +0.007 C 
ATOM     17  C   UNL     1      -8.995 -13.005  16.771  0.00  0.00    +0.007 C 
ENDBRANCH   7  11
BRANCH   8  14
ATOM     14  C   UNL     1      -7.827 -10.240  18.924  0.00  0.00    +0.112 C 
BRANCH  14   4
ATOM      3  O   UNL     1     -10.467  -9.489  18.080  0.00  0.00    -0.270 OA
ATOM      4  N   UNL     1      -9.059 -10.598  19.555  0.00  0.00    -0.311 N 
ATOM     20  C   UNL     1     -10.303 -10.189  19.077  0.00  0.00    +0.244 C 
ATOM     35  H   UNL     1      -9.000 -11.170  20.389  0.00  0.00    +0.149 HD
BRANCH  20  22
ATOM      1  F   UNL     1     -14.780 -11.833  22.039  0.00  0.00    -0.205 F 
ATOM     22  C   UNL     1     -11.488 -10.624  19.860  0.00  0.00    +0.037 A 
ATOM     24  C   UNL     1     -12.542  -9.736  20.083  0.00  0.00    +0.016 A 
ATOM     25  C   UNL     1     -11.547 -11.919  20.374  0.00  0.00    +0.016 A 
ATOM     28  C   UNL     1     -13.654 -10.145  20.819  0.00  0.00    +0.039 A 
ATOM     29  C   UNL     1     -12.659 -12.328  21.109  0.00  0.00    +0.039 A 
ATOM     30  C   UNL     1     -13.712 -11.440  21.331  0.00  0.00    +0.123 A 
ENDBRANCH  20  22
ENDBRANCH  14   4
ENDBRANCH   8  14
BRANCH  10  15
ATOM     15  C   UNL     1      -3.927 -10.953  16.158  0.00  0.00    +0.103 C 
BRANCH  15  19
ATOM      2  O   UNL     1      -2.686 -12.568  14.851  0.00  0.00    -0.276 OA
ATOM      5  N   UNL     1      -2.702 -10.337  14.201  0.00  0.00    -0.311 N 
ATOM     19  C   UNL     1      -3.044 -11.405  15.017  0.00  0.00    +0.214 C 
ATOM     36  H   UNL     1      -3.050  -9.408  14.418  0.00  0.00    +0.149 HD
BRANCH   5  21
ATOM     21  C   UNL     1      -1.863 -10.474  13.032  0.00  0.00    +0.139 C 
BRANCH  21  23
ATOM     23  C   UNL     1      -2.657 -10.413  11.759  0.00  0.00    -0.030 A 
ATOM     26  C   UNL     1      -3.425 -11.508  11.364  0.00  0.00    +0.006 A 
ATOM     27  C   UNL     1      -2.628  -9.261  10.973  0.00  0.00    +0.006 A 
ATOM     31  C   UNL     1      -4.163 -11.452  10.181  0.00  0.00    +0.019 A 
ATOM     32  C   UNL     1      -3.364  -9.205   9.790  0.00  0.00    +0.019 A 
ATOM     33  C   UNL     1      -4.133 -10.300   9.395  0.00  0.00    +0.052 A 
BRANCH  33  34
ATOM      6  N   UNL     1      -5.502 -10.198   7.199  0.00  0.00    -0.191 NA
ATOM     34  C   UNL     1      -4.889 -10.244   8.183  0.00  0.00    +0.099 C 
ENDBRANCH  33  34
ENDBRANCH  21  23
ENDBRANCH   5  21
ENDBRANCH  15  19
ENDBRANCH  10  15
TORSDOF 9
ENDMDL
