MODEL 1
REMARK VINA RESULT:      -9.0      0.000      0.000
REMARK  Name = 11913115
REMARK  7 active torsions:
REMARK  status: ('A' for Active; 'I' for Inactive)
REMARK    1  A    between atoms: O_4  and  C_14
REMARK    2  A    between atoms: O_4  and  C_18
REMARK    3  A    between atoms: O_6  and  C_30
REMARK    4  A    between atoms: O_6  and  C_34
REMARK    5  A    between atoms: N_7  and  C_13
REMARK    6  A    between atoms: N_10  and  C_22
REMARK    7  A    between atoms: C_19  and  C_23
REMARK                            x       y       z     vdW  Elec       q    Type
REMARK                         _______ _______ _______ _____ _____    ______ ____
ROOT
ATOM      2  O   UNL     1      -4.451  -9.124  10.127  0.00  0.00    -0.368 OA
ATOM      3  O   UNL     1      -5.899 -11.827  10.227  0.00  0.00    -0.368 OA
ATOM     11  C   UNL     1      -4.540 -11.457  10.543  0.00  0.00    +0.173 C 
ATOM     12  C   UNL     1      -4.131 -10.395   9.541  0.00  0.00    +0.192 C 
ATOM     13  C   UNL     1      -4.495 -10.740  11.872  0.00  0.00    +0.130 C 
ATOM     14  C   UNL     1      -5.015 -10.705   8.357  0.00  0.00    +0.235 C 
ATOM     15  C   UNL     1      -4.867  -9.319  11.487  0.00  0.00    +0.185 C 
ATOM     16  C   UNL     1      -6.295 -11.152   9.024  0.00  0.00    +0.207 C 
ENDROOT
BRANCH  13   7
ATOM      7  N   UNL     1      -3.155 -10.779  12.417  0.00  0.00    -0.306 N 
ATOM      8  N   UNL     1      -3.935 -10.625  14.599  0.00  0.00    -0.214 NA
ATOM      9  N   UNL     1      -1.577 -10.771  14.122  0.00  0.00    -0.223 NA
ATOM     17  C   UNL     1      -2.877 -10.723  13.772  0.00  0.00    +0.216 A 
ATOM     19  C   UNL     1      -3.628 -10.572  15.911  0.00  0.00    +0.076 A 
ATOM     20  C   UNL     1      -1.343 -10.714  15.449  0.00  0.00    +0.116 A 
ATOM     21  C   UNL     1      -2.337 -10.613  16.400  0.00  0.00    +0.048 A 
ATOM     40  H   UNL     1      -2.366 -10.905  11.792  0.00  0.00    +0.149 HD
BRANCH  19  23
ATOM      1  F   UNL     1      -5.677 -11.338  20.214  0.00  0.00    -0.205 F 
ATOM     23  C   UNL     1      -4.759 -10.469  16.802  0.00  0.00    +0.003 A 
ATOM     26  C   UNL     1      -4.669 -10.963  18.103  0.00  0.00    +0.048 A 
ATOM     27  C   UNL     1      -5.942  -9.877  16.361  0.00  0.00    +0.010 A 
ATOM     31  C   UNL     1      -5.763 -10.863  18.964  0.00  0.00    +0.124 A 
ATOM     32  C   UNL     1      -7.036  -9.777  17.221  0.00  0.00    +0.003 A 
ATOM     33  C   UNL     1      -6.946 -10.270  18.523  0.00  0.00    +0.038 A 
ENDBRANCH  19  23
ENDBRANCH  13   7
BRANCH  14   4
ATOM      4  O   UNL     1      -5.220  -9.601   7.504  0.00  0.00    -0.442 OA
BRANCH   4  18
ATOM      5  O   UNL     1      -7.237  -9.588   6.426  0.00  0.00    -0.226 OA
ATOM     10  N   UNL     1      -6.845  -8.265   8.317  0.00  0.00    -0.251 N 
ATOM     18  C   UNL     1      -6.523  -9.179   7.333  0.00  0.00    +0.405 C 
ATOM     41  H   UNL     1      -6.112  -8.050   8.988  0.00  0.00    +0.158 HD
BRANCH  10  22
ATOM     22  C   UNL     1      -8.072  -7.589   8.510  0.00  0.00    +0.037 A 
ATOM     24  C   UNL     1      -9.165  -8.269   9.046  0.00  0.00    +0.027 A 
ATOM     25  C   UNL     1      -8.188  -6.243   8.164  0.00  0.00    +0.027 A 
ATOM     28  C   UNL     1     -10.376  -7.602   9.235  0.00  0.00    +0.048 A 
ATOM     29  C   UNL     1      -9.398  -5.577   8.353  0.00  0.00    +0.048 A 
ATOM     30  C   UNL     1     -10.493  -6.256   8.888  0.00  0.00    +0.129 A 
BRANCH  30   6
ATOM      6  O   UNL     1     -11.674  -5.606   9.074  0.00  0.00    -0.456 OA
BRANCH   6  34
ATOM     34  C   UNL     1     -11.958  -5.135  10.344  0.00  0.00    +0.128 A 
ATOM     35  C   UNL     1     -12.419  -6.011  11.326  0.00  0.00    +0.046 A 
ATOM     36  C   UNL     1     -11.782  -3.784  10.642  0.00  0.00    +0.046 A 
ATOM     37  C   UNL     1     -12.704  -5.536  12.607  0.00  0.00    +0.004 A 
ATOM     38  C   UNL     1     -12.067  -3.309  11.922  0.00  0.00    +0.004 A 
ATOM     39  C   UNL     1     -12.528  -4.185  12.904  0.00  0.00    +0.000 A 
ENDBRANCH   6  34
ENDBRANCH  30   6
ENDBRANCH  10  22
ENDBRANCH   4  18
ENDBRANCH  14   4
TORSDOF 7
ENDMDL
MODEL 2
REMARK VINA RESULT:      -8.1     26.121     28.062
REMARK  Name = 11913115
REMARK  7 active torsions:
REMARK  status: ('A' for Active; 'I' for Inactive)
REMARK    1  A    between atoms: O_4  and  C_14
REMARK    2  A    between atoms: O_4  and  C_18
REMARK    3  A    between atoms: O_6  and  C_30
REMARK    4  A    between atoms: O_6  and  C_34
REMARK    5  A    between atoms: N_7  and  C_13
REMARK    6  A    between atoms: N_10  and  C_22
REMARK    7  A    between atoms: C_19  and  C_23
REMARK                            x       y       z     vdW  Elec       q    Type
REMARK                         _______ _______ _______ _____ _____    ______ ____
ROOT
ATOM      2  O   UNL     1      14.446  11.089  13.753  0.00  0.00    -0.368 OA
ATOM      3  O   UNL     1      15.481  13.256  15.662  0.00  0.00    -0.368 OA
ATOM     11  C   UNL     1      14.266  12.477  15.667  0.00  0.00    +0.173 C 
ATOM     12  C   UNL     1      13.847  12.309  14.220  0.00  0.00    +0.192 C 
ATOM     13  C   UNL     1      14.558  11.068  16.128  0.00  0.00    +0.130 C 
ATOM     14  C   UNL     1      14.457  13.521  13.560  0.00  0.00    +0.235 C 
ATOM     15  C   UNL     1      15.060  10.407  14.857  0.00  0.00    +0.185 C 
ATOM     16  C   UNL     1      15.755  13.678  14.318  0.00  0.00    +0.207 C 
ENDROOT
BRANCH  13   7
ATOM      7  N   UNL     1      13.342  10.427  16.582  0.00  0.00    -0.306 N 
ATOM      8  N   UNL     1      14.501   9.057  18.056  0.00  0.00    -0.214 NA
ATOM      9  N   UNL     1      12.102   8.934  17.857  0.00  0.00    -0.223 NA
ATOM     17  C   UNL     1      13.314   9.429  17.540  0.00  0.00    +0.216 A 
ATOM     19  C   UNL     1      14.436   8.083  18.986  0.00  0.00    +0.076 A 
ATOM     20  C   UNL     1      12.111   7.963  18.794  0.00  0.00    +0.116 A 
ATOM     21  C   UNL     1      13.258   7.493  19.399  0.00  0.00    +0.048 A 
ATOM     40  H   UNL     1      12.448  10.748  16.228  0.00  0.00    +0.149 HD
BRANCH  19  23
ATOM      1  F   UNL     1      18.161   5.020  19.189  0.00  0.00    -0.205 F 
ATOM     23  C   UNL     1      15.706   7.681  19.543  0.00  0.00    +0.003 A 
ATOM     26  C   UNL     1      16.332   6.522  19.087  0.00  0.00    +0.048 A 
ATOM     27  C   UNL     1      16.305   8.453  20.539  0.00  0.00    +0.010 A 
ATOM     31  C   UNL     1      17.560   6.134  19.626  0.00  0.00    +0.124 A 
ATOM     32  C   UNL     1      17.532   8.066  21.078  0.00  0.00    +0.003 A 
ATOM     33  C   UNL     1      18.159   6.906  20.621  0.00  0.00    +0.038 A 
ENDBRANCH  19  23
ENDBRANCH  13   7
BRANCH  14   4
ATOM      4  O   UNL     1      14.669  13.361  12.175  0.00  0.00    -0.442 OA
BRANCH   4  18
ATOM      5  O   UNL     1      12.948  14.457  11.140  0.00  0.00    -0.226 OA
ATOM     10  N   UNL     1      13.269  12.152  10.884  0.00  0.00    -0.251 N 
ATOM     18  C   UNL     1      13.554  13.416  11.364  0.00  0.00    +0.405 C 
ATOM     41  H   UNL     1      13.892  11.406  11.185  0.00  0.00    +0.158 HD
BRANCH  10  22
ATOM     22  C   UNL     1      12.216  11.764  10.025  0.00  0.00    +0.037 A 
ATOM     24  C   UNL     1      10.909  11.705  10.507  0.00  0.00    +0.027 A 
ATOM     25  C   UNL     1      12.484  11.441   8.694  0.00  0.00    +0.027 A 
ATOM     28  C   UNL     1       9.869  11.321   9.659  0.00  0.00    +0.048 A 
ATOM     29  C   UNL     1      11.446  11.057   7.847  0.00  0.00    +0.048 A 
ATOM     30  C   UNL     1      10.138  10.997   8.329  0.00  0.00    +0.129 A 
BRANCH  30   6
ATOM      6  O   UNL     1       9.124  10.623   7.502  0.00  0.00    -0.456 OA
BRANCH   6  34
ATOM     34  C   UNL     1       9.072   9.297   7.105  0.00  0.00    +0.128 A 
ATOM     35  C   UNL     1       9.081   8.282   8.061  0.00  0.00    +0.046 A 
ATOM     36  C   UNL     1       9.010   8.978   5.749  0.00  0.00    +0.046 A 
ATOM     37  C   UNL     1       9.027   6.947   7.661  0.00  0.00    +0.004 A 
ATOM     38  C   UNL     1       8.956   7.643   5.349  0.00  0.00    +0.004 A 
ATOM     39  C   UNL     1       8.965   6.627   6.305  0.00  0.00    +0.000 A 
ENDBRANCH   6  34
ENDBRANCH  30   6
ENDBRANCH  10  22
ENDBRANCH   4  18
ENDBRANCH  14   4
TORSDOF 7
ENDMDL
MODEL 3
REMARK VINA RESULT:      -7.9     24.945     26.748
REMARK  Name = 11913115
REMARK  7 active torsions:
REMARK  status: ('A' for Active; 'I' for Inactive)
REMARK    1  A    between atoms: O_4  and  C_14
REMARK    2  A    between atoms: O_4  and  C_18
REMARK    3  A    between atoms: O_6  and  C_30
REMARK    4  A    between atoms: O_6  and  C_34
REMARK    5  A    between atoms: N_7  and  C_13
REMARK    6  A    between atoms: N_10  and  C_22
REMARK    7  A    between atoms: C_19  and  C_23
REMARK                            x       y       z     vdW  Elec       q    Type
REMARK                         _______ _______ _______ _____ _____    ______ ____
ROOT
ATOM      2  O   UNL     1      11.166  13.523  10.250  0.00  0.00    -0.368 OA
ATOM      3  O   UNL     1       9.856  11.901  12.501  0.00  0.00    -0.368 OA
ATOM     11  C   UNL     1      11.225  11.979  12.049  0.00  0.00    +0.173 C 
ATOM     12  C   UNL     1      11.181  12.116  10.540  0.00  0.00    +0.192 C 
ATOM     13  C   UNL     1      11.850  13.273  12.515  0.00  0.00    +0.130 C 
ATOM     14  C   UNL     1       9.867  11.459  10.190  0.00  0.00    +0.235 C 
ATOM     15  C   UNL     1      11.374  14.261  11.464  0.00  0.00    +0.185 C 
ATOM     16  C   UNL     1       8.992  11.856  11.357  0.00  0.00    +0.207 C 
ENDROOT
BRANCH  13   7
ATOM      7  N   UNL     1      13.294  13.169  12.489  0.00  0.00    -0.306 N 
ATOM      8  N   UNL     1      13.310  11.627  14.225  0.00  0.00    -0.214 NA
ATOM      9  N   UNL     1      15.357  12.365  13.188  0.00  0.00    -0.223 NA
ATOM     17  C   UNL     1      14.019  12.351  13.337  0.00  0.00    +0.216 A 
ATOM     19  C   UNL     1      14.048  10.841  15.035  0.00  0.00    +0.076 A 
ATOM     20  C   UNL     1      16.032  11.556  14.031  0.00  0.00    +0.116 A 
ATOM     21  C   UNL     1      15.425  10.764  14.984  0.00  0.00    +0.048 A 
ATOM     40  H   UNL     1      13.817  13.678  11.785  0.00  0.00    +0.149 HD
BRANCH  19  23
ATOM      1  F   UNL     1      10.116   8.302  16.215  0.00  0.00    -0.205 F 
ATOM     23  C   UNL     1      13.293  10.061  15.987  0.00  0.00    +0.003 A 
ATOM     26  C   UNL     1      12.045   9.548  15.634  0.00  0.00    +0.048 A 
ATOM     27  C   UNL     1      13.811   9.822  17.260  0.00  0.00    +0.010 A 
ATOM     31  C   UNL     1      11.315   8.794  16.554  0.00  0.00    +0.124 A 
ATOM     32  C   UNL     1      13.082   9.069  18.180  0.00  0.00    +0.003 A 
ATOM     33  C   UNL     1      11.834   8.555  17.826  0.00  0.00    +0.038 A 
ENDBRANCH  19  23
ENDBRANCH  13   7
BRANCH  14   4
ATOM      4  O   UNL     1       9.334  11.889   8.957  0.00  0.00    -0.442 OA
BRANCH   4  18
ATOM      5  O   UNL     1       9.433  11.408   6.724  0.00  0.00    -0.226 OA
ATOM     10  N   UNL     1       9.635   9.738   8.352  0.00  0.00    -0.251 N 
ATOM     18  C   UNL     1       9.467  11.028   7.888  0.00  0.00    +0.405 C 
ATOM     41  H   UNL     1       9.636   9.619   9.362  0.00  0.00    +0.158 HD
BRANCH  10  22
ATOM     22  C   UNL     1       9.807   8.556   7.595  0.00  0.00    +0.037 A 
ATOM     24  C   UNL     1      11.071   8.216   7.111  0.00  0.00    +0.027 A 
ATOM     25  C   UNL     1       8.714   7.730   7.332  0.00  0.00    +0.027 A 
ATOM     28  C   UNL     1      11.240   7.050   6.364  0.00  0.00    +0.048 A 
ATOM     29  C   UNL     1       8.884   6.565   6.585  0.00  0.00    +0.048 A 
ATOM     30  C   UNL     1      10.147   6.225   6.100  0.00  0.00    +0.129 A 
BRANCH  30   6
ATOM      6  O   UNL     1      10.313   5.088   5.372  0.00  0.00    -0.456 OA
BRANCH   6  34
ATOM     34  C   UNL     1      10.375   5.208   3.994  0.00  0.00    +0.128 A 
ATOM     35  C   UNL     1      10.977   4.207   3.233  0.00  0.00    +0.046 A 
ATOM     36  C   UNL     1       9.835   6.331   3.367  0.00  0.00    +0.046 A 
ATOM     37  C   UNL     1      11.038   4.327   1.844  0.00  0.00    +0.004 A 
ATOM     38  C   UNL     1       9.896   6.451   1.978  0.00  0.00    +0.004 A 
ATOM     39  C   UNL     1      10.498   5.450   1.218  0.00  0.00    +0.000 A 
ENDBRANCH   6  34
ENDBRANCH  30   6
ENDBRANCH  10  22
ENDBRANCH   4  18
ENDBRANCH  14   4
TORSDOF 7
ENDMDL
MODEL 4
REMARK VINA RESULT:      -7.8      4.389      6.920
REMARK  Name = 11913115
REMARK  7 active torsions:
REMARK  status: ('A' for Active; 'I' for Inactive)
REMARK    1  A    between atoms: O_4  and  C_14
REMARK    2  A    between atoms: O_4  and  C_18
REMARK    3  A    between atoms: O_6  and  C_30
REMARK    4  A    between atoms: O_6  and  C_34
REMARK    5  A    between atoms: N_7  and  C_13
REMARK    6  A    between atoms: N_10  and  C_22
REMARK    7  A    between atoms: C_19  and  C_23
REMARK                            x       y       z     vdW  Elec       q    Type
REMARK                         _______ _______ _______ _____ _____    ______ ____
ROOT
ATOM      2  O   UNL     1      -4.941  -8.920   9.836  0.00  0.00    -0.368 OA
ATOM      3  O   UNL     1      -6.702 -11.383  10.329  0.00  0.00    -0.368 OA
ATOM     11  C   UNL     1      -5.283 -11.174  10.489  0.00  0.00    +0.173 C 
ATOM     12  C   UNL     1      -4.843 -10.270   9.354  0.00  0.00    +0.192 C 
ATOM     13  C   UNL     1      -5.017 -10.355  11.730  0.00  0.00    +0.130 C 
ATOM     14  C   UNL     1      -5.872 -10.559   8.288  0.00  0.00    +0.235 C 
ATOM     15  C   UNL     1      -5.242  -8.936  11.239  0.00  0.00    +0.185 C 
ATOM     16  C   UNL     1      -7.127 -10.769   9.104  0.00  0.00    +0.207 C 
ENDROOT
BRANCH  13   7
ATOM      7  N   UNL     1      -3.646 -10.527  12.160  0.00  0.00    -0.306 N 
ATOM      8  N   UNL     1      -4.242 -10.483  14.404  0.00  0.00    -0.214 NA
ATOM      9  N   UNL     1      -1.945 -10.755  13.726  0.00  0.00    -0.223 NA
ATOM     17  C   UNL     1      -3.261 -10.591  13.488  0.00  0.00    +0.216 A 
ATOM     19  C   UNL     1      -3.832 -10.549  15.687  0.00  0.00    +0.076 A 
ATOM     20  C   UNL     1      -1.606 -10.814  15.030  0.00  0.00    +0.116 A 
ATOM     21  C   UNL     1      -2.514 -10.716  16.064  0.00  0.00    +0.048 A 
ATOM     40  H   UNL     1      -2.919 -10.660  11.465  0.00  0.00    +0.149 HD
BRANCH  19  23
ATOM      1  F   UNL     1      -8.169  -8.925  17.046  0.00  0.00    -0.205 F 
ATOM     23  C   UNL     1      -4.880 -10.435  16.673  0.00  0.00    +0.003 A 
ATOM     26  C   UNL     1      -6.041  -9.722  16.377  0.00  0.00    +0.048 A 
ATOM     27  C   UNL     1      -4.731 -11.038  17.922  0.00  0.00    +0.010 A 
ATOM     31  C   UNL     1      -7.054  -9.611  17.330  0.00  0.00    +0.124 A 
ATOM     32  C   UNL     1      -5.744 -10.928  18.875  0.00  0.00    +0.003 A 
ATOM     33  C   UNL     1      -6.905 -10.214  18.578  0.00  0.00    +0.038 A 
ENDBRANCH  19  23
ENDBRANCH  13   7
BRANCH  14   4
ATOM      4  O   UNL     1      -6.018  -9.517   7.349  0.00  0.00    -0.442 OA
BRANCH   4  18
ATOM      5  O   UNL     1      -5.512 -10.731   5.477  0.00  0.00    -0.226 OA
ATOM     10  N   UNL     1      -7.254  -9.166   5.495  0.00  0.00    -0.251 N 
ATOM     18  C   UNL     1      -6.204  -9.886   6.033  0.00  0.00    +0.405 C 
ATOM     41  H   UNL     1      -7.710  -8.504   6.118  0.00  0.00    +0.158 HD
BRANCH  10  22
ATOM     22  C   UNL     1      -7.774  -9.234   4.182  0.00  0.00    +0.037 A 
ATOM     24  C   UNL     1      -7.662  -8.136   3.330  0.00  0.00    +0.027 A 
ATOM     25  C   UNL     1      -8.399 -10.400   3.739  0.00  0.00    +0.027 A 
ATOM     28  C   UNL     1      -8.176  -8.203   2.035  0.00  0.00    +0.048 A 
ATOM     29  C   UNL     1      -8.913 -10.467   2.445  0.00  0.00    +0.048 A 
ATOM     30  C   UNL     1      -8.802  -9.368   1.593  0.00  0.00    +0.129 A 
BRANCH  30   6
ATOM      6  O   UNL     1      -9.303  -9.433   0.329  0.00  0.00    -0.456 OA
BRANCH   6  34
ATOM     34  C   UNL     1      -8.442  -9.812  -0.687  0.00  0.00    +0.128 A 
ATOM     35  C   UNL     1      -7.919  -8.851  -1.552  0.00  0.00    +0.046 A 
ATOM     36  C   UNL     1      -8.098 -11.154  -0.846  0.00  0.00    +0.046 A 
ATOM     37  C   UNL     1      -7.051  -9.233  -2.575  0.00  0.00    +0.004 A 
ATOM     38  C   UNL     1      -7.230 -11.535  -1.868  0.00  0.00    +0.004 A 
ATOM     39  C   UNL     1      -6.707 -10.575  -2.733  0.00  0.00    +0.000 A 
ENDBRANCH   6  34
ENDBRANCH  30   6
ENDBRANCH  10  22
ENDBRANCH   4  18
ENDBRANCH  14   4
TORSDOF 7
ENDMDL
MODEL 5
REMARK VINA RESULT:      -7.8     21.066     22.777
REMARK  Name = 11913115
REMARK  7 active torsions:
REMARK  status: ('A' for Active; 'I' for Inactive)
REMARK    1  A    between atoms: O_4  and  C_14
REMARK    2  A    between atoms: O_4  and  C_18
REMARK    3  A    between atoms: O_6  and  C_30
REMARK    4  A    between atoms: O_6  and  C_34
REMARK    5  A    between atoms: N_7  and  C_13
REMARK    6  A    between atoms: N_10  and  C_22
REMARK    7  A    between atoms: C_19  and  C_23
REMARK                            x       y       z     vdW  Elec       q    Type
REMARK                         _______ _______ _______ _____ _____    ______ ____
ROOT
ATOM      2  O   UNL     1       6.821  10.907   1.138  0.00  0.00    -0.368 OA
ATOM      3  O   UNL     1       6.127  10.140   4.027  0.00  0.00    -0.368 OA
ATOM     11  C   UNL     1       6.669   9.367   2.935  0.00  0.00    +0.173 C 
ATOM     12  C   UNL     1       5.994   9.860   1.671  0.00  0.00    +0.192 C 
ATOM     13  C   UNL     1       8.125   9.713   2.729  0.00  0.00    +0.130 C 
ATOM     14  C   UNL     1       4.680  10.394   2.189  0.00  0.00    +0.235 C 
ATOM     15  C   UNL     1       8.044  10.975   1.888  0.00  0.00    +0.185 C 
ATOM     16  C   UNL     1       5.078  10.980   3.524  0.00  0.00    +0.207 C 
ENDROOT
BRANCH  13   7
ATOM      7  N   UNL     1       8.792   8.660   1.993  0.00  0.00    -0.306 N 
ATOM      8  N   UNL     1       9.172   7.422   3.921  0.00  0.00    -0.214 NA
ATOM      9  N   UNL     1       9.901   6.633   1.763  0.00  0.00    -0.223 NA
ATOM     17  C   UNL     1       9.311   7.522   2.585  0.00  0.00    +0.216 A 
ATOM     19  C   UNL     1       9.690   6.301   4.464  0.00  0.00    +0.076 A 
ATOM     20  C   UNL     1      10.396   5.536   2.373  0.00  0.00    +0.116 A 
ATOM     21  C   UNL     1      10.318   5.314   3.733  0.00  0.00    +0.048 A 
ATOM     40  H   UNL     1       8.847   8.717   0.982  0.00  0.00    +0.149 HD
BRANCH  19  23
ATOM      1  F   UNL     1       9.783   3.669   8.509  0.00  0.00    -0.205 F 
ATOM     23  C   UNL     1       9.542   6.189   5.896  0.00  0.00    +0.003 A 
ATOM     26  C   UNL     1       9.738   4.959   6.523  0.00  0.00    +0.048 A 
ATOM     27  C   UNL     1       9.202   7.311   6.652  0.00  0.00    +0.010 A 
ATOM     31  C   UNL     1       9.595   4.851   7.907  0.00  0.00    +0.124 A 
ATOM     32  C   UNL     1       9.058   7.203   8.035  0.00  0.00    +0.003 A 
ATOM     33  C   UNL     1       9.255   5.973   8.662  0.00  0.00    +0.038 A 
ENDBRANCH  19  23
ENDBRANCH  13   7
BRANCH  14   4
ATOM      4  O   UNL     1       4.090  11.355   1.342  0.00  0.00    -0.442 OA
BRANCH   4  18
ATOM      5  O   UNL     1       2.434  12.911   1.609  0.00  0.00    -0.226 OA
ATOM     10  N   UNL     1       2.049  10.630   1.970  0.00  0.00    -0.251 N 
ATOM     18  C   UNL     1       2.801  11.742   1.643  0.00  0.00    +0.405 C 
ATOM     41  H   UNL     1       2.533   9.736   1.942  0.00  0.00    +0.158 HD
BRANCH  10  22
ATOM     22  C   UNL     1       0.685  10.579   2.341  0.00  0.00    +0.037 A 
ATOM     24  C   UNL     1      -0.259  10.063   1.453  0.00  0.00    +0.027 A 
ATOM     25  C   UNL     1       0.285  11.043   3.593  0.00  0.00    +0.027 A 
ATOM     28  C   UNL     1      -1.604  10.013   1.818  0.00  0.00    +0.048 A 
ATOM     29  C   UNL     1      -1.060  10.993   3.958  0.00  0.00    +0.048 A 
ATOM     30  C   UNL     1      -2.005  10.478   3.071  0.00  0.00    +0.129 A 
BRANCH  30   6
ATOM      6  O   UNL     1      -3.317  10.429   3.427  0.00  0.00    -0.456 OA
BRANCH   6  34
ATOM     34  C   UNL     1      -3.791   9.252   3.982  0.00  0.00    +0.128 A 
ATOM     35  C   UNL     1      -5.112   8.861   3.766  0.00  0.00    +0.046 A 
ATOM     36  C   UNL     1      -2.947   8.458   4.757  0.00  0.00    +0.046 A 
ATOM     37  C   UNL     1      -5.588   7.675   4.324  0.00  0.00    +0.004 A 
ATOM     38  C   UNL     1      -3.423   7.271   5.316  0.00  0.00    +0.004 A 
ATOM     39  C   UNL     1      -4.744   6.881   5.099  0.00  0.00    +0.000 A 
ENDBRANCH   6  34
ENDBRANCH  30   6
ENDBRANCH  10  22
ENDBRANCH   4  18
ENDBRANCH  14   4
TORSDOF 7
ENDMDL
MODEL 6
REMARK VINA RESULT:      -7.7     26.652     29.673
REMARK  Name = 11913115
REMARK  7 active torsions:
REMARK  status: ('A' for Active; 'I' for Inactive)
REMARK    1  A    between atoms: O_4  and  C_14
REMARK    2  A    between atoms: O_4  and  C_18
REMARK    3  A    between atoms: O_6  and  C_30
REMARK    4  A    between atoms: O_6  and  C_34
REMARK    5  A    between atoms: N_7  and  C_13
REMARK    6  A    between atoms: N_10  and  C_22
REMARK    7  A    between atoms: C_19  and  C_23
REMARK                            x       y       z     vdW  Elec       q    Type
REMARK                         _______ _______ _______ _____ _____    ______ ____
ROOT
ATOM      2  O   UNL     1      -6.957  11.780  36.637  0.00  0.00    -0.368 OA
ATOM      3  O   UNL     1      -7.114   8.738  36.999  0.00  0.00    -0.368 OA
ATOM     11  C   UNL     1      -6.155   9.572  36.315  0.00  0.00    +0.173 C 
ATOM     12  C   UNL     1      -6.934  10.707  35.682  0.00  0.00    +0.192 C 
ATOM     13  C   UNL     1      -5.260  10.260  37.319  0.00  0.00    +0.130 C 
ATOM     14  C   UNL     1      -8.302  10.098  35.492  0.00  0.00    +0.235 C 
ATOM     15  C   UNL     1      -6.101  11.452  37.741  0.00  0.00    +0.185 C 
ATOM     16  C   UNL     1      -8.435   9.222  36.716  0.00  0.00    +0.207 C 
ENDROOT
BRANCH  13   7
ATOM      7  N   UNL     1      -4.040  10.706  36.680  0.00  0.00    -0.306 N 
ATOM      8  N   UNL     1      -2.788   9.024  37.678  0.00  0.00    -0.214 NA
ATOM      9  N   UNL     1      -1.771  10.626  36.191  0.00  0.00    -0.223 NA
ATOM     17  C   UNL     1      -2.813  10.092  36.857  0.00  0.00    +0.216 A 
ATOM     19  C   UNL     1      -1.577   8.450  37.827  0.00  0.00    +0.076 A 
ATOM     20  C   UNL     1      -0.591  10.002  36.387  0.00  0.00    +0.116 A 
ATOM     21  C   UNL     1      -0.432   8.900  37.201  0.00  0.00    +0.048 A 
ATOM     40  H   UNL     1      -4.076  11.478  36.024  0.00  0.00    +0.149 HD
BRANCH  19  23
ATOM      1  F   UNL     1       0.637   4.511  39.524  0.00  0.00    -0.205 F 
ATOM     23  C   UNL     1      -1.546   7.304  38.705  0.00  0.00    +0.003 A 
ATOM     26  C   UNL     1      -0.448   6.444  38.690  0.00  0.00    +0.048 A 
ATOM     27  C   UNL     1      -2.615   7.055  39.565  0.00  0.00    +0.010 A 
ATOM     31  C   UNL     1      -0.418   5.336  39.538  0.00  0.00    +0.124 A 
ATOM     32  C   UNL     1      -2.586   5.948  40.413  0.00  0.00    +0.003 A 
ATOM     33  C   UNL     1      -1.487   5.088  40.399  0.00  0.00    +0.038 A 
ENDBRANCH  19  23
ENDBRANCH  13   7
BRANCH  14   4
ATOM      4  O   UNL     1      -9.337  11.053  35.409  0.00  0.00    -0.442 OA
BRANCH   4  18
ATOM      5  O   UNL     1     -11.516  10.924  36.093  0.00  0.00    -0.226 OA
ATOM     10  N   UNL     1     -10.717   9.664  34.289  0.00  0.00    -0.251 N 
ATOM     18  C   UNL     1     -10.627  10.569  35.329  0.00  0.00    +0.405 C 
ATOM     41  H   UNL     1      -9.862   9.497  33.763  0.00  0.00    +0.158 HD
BRANCH  10  22
ATOM     22  C   UNL     1     -11.852   8.938  33.863  0.00  0.00    +0.037 A 
ATOM     24  C   UNL     1     -12.249   8.986  32.527  0.00  0.00    +0.027 A 
ATOM     25  C   UNL     1     -12.575   8.173  34.779  0.00  0.00    +0.027 A 
ATOM     28  C   UNL     1     -13.370   8.269  32.106  0.00  0.00    +0.048 A 
ATOM     29  C   UNL     1     -13.695   7.457  34.358  0.00  0.00    +0.048 A 
ATOM     30  C   UNL     1     -14.094   7.505  33.022  0.00  0.00    +0.129 A 
BRANCH  30   6
ATOM      6  O   UNL     1     -15.187   6.807  32.611  0.00  0.00    -0.456 OA
BRANCH   6  34
ATOM     34  C   UNL     1     -14.974   5.617  31.935  0.00  0.00    +0.128 A 
ATOM     35  C   UNL     1     -15.777   5.283  30.844  0.00  0.00    +0.046 A 
ATOM     36  C   UNL     1     -13.959   4.754  32.343  0.00  0.00    +0.046 A 
ATOM     37  C   UNL     1     -15.563   4.086  30.161  0.00  0.00    +0.004 A 
ATOM     38  C   UNL     1     -13.744   3.556  31.660  0.00  0.00    +0.004 A 
ATOM     39  C   UNL     1     -14.547   3.223  30.570  0.00  0.00    +0.000 A 
ENDBRANCH   6  34
ENDBRANCH  30   6
ENDBRANCH  10  22
ENDBRANCH   4  18
ENDBRANCH  14   4
TORSDOF 7
ENDMDL
MODEL 7
REMARK VINA RESULT:      -7.5      4.073      5.557
REMARK  Name = 11913115
REMARK  7 active torsions:
REMARK  status: ('A' for Active; 'I' for Inactive)
REMARK    1  A    between atoms: O_4  and  C_14
REMARK    2  A    between atoms: O_4  and  C_18
REMARK    3  A    between atoms: O_6  and  C_30
REMARK    4  A    between atoms: O_6  and  C_34
REMARK    5  A    between atoms: N_7  and  C_13
REMARK    6  A    between atoms: N_10  and  C_22
REMARK    7  A    between atoms: C_19  and  C_23
REMARK                            x       y       z     vdW  Elec       q    Type
REMARK                         _______ _______ _______ _____ _____    ______ ____
ROOT
ATOM      2  O   UNL     1      -5.356  -8.886  10.366  0.00  0.00    -0.368 OA
ATOM      3  O   UNL     1      -6.667 -11.636  10.724  0.00  0.00    -0.368 OA
ATOM     11  C   UNL     1      -5.290 -11.212  10.818  0.00  0.00    +0.173 C 
ATOM     12  C   UNL     1      -5.083 -10.155   9.752  0.00  0.00    +0.192 C 
ATOM     13  C   UNL     1      -5.065 -10.471  12.115  0.00  0.00    +0.130 C 
ATOM     14  C   UNL     1      -6.129 -10.517   8.725  0.00  0.00    +0.235 C 
ATOM     15  C   UNL     1      -5.546  -9.071  11.776  0.00  0.00    +0.185 C 
ATOM     16  C   UNL     1      -7.272 -10.998   9.590  0.00  0.00    +0.207 C 
ENDROOT
BRANCH  13   7
ATOM      7  N   UNL     1      -3.656 -10.452  12.444  0.00  0.00    -0.306 N 
ATOM      8  N   UNL     1      -4.087 -10.596  14.721  0.00  0.00    -0.214 NA
ATOM      9  N   UNL     1      -1.831 -10.489  13.880  0.00  0.00    -0.223 NA
ATOM     17  C   UNL     1      -3.170 -10.515  13.738  0.00  0.00    +0.216 A 
ATOM     19  C   UNL     1      -3.579 -10.656  15.969  0.00  0.00    +0.076 A 
ATOM     20  C   UNL     1      -1.393 -10.553  15.154  0.00  0.00    +0.116 A 
ATOM     21  C   UNL     1      -2.228 -10.638  16.249  0.00  0.00    +0.048 A 
ATOM     40  H   UNL     1      -2.970 -10.444  11.697  0.00  0.00    +0.149 HD
BRANCH  19  23
ATOM      1  F   UNL     1      -7.916  -9.568  17.787  0.00  0.00    -0.205 F 
ATOM     23  C   UNL     1      -4.558 -10.745  17.026  0.00  0.00    +0.003 A 
ATOM     26  C   UNL     1      -5.788 -10.101  16.893  0.00  0.00    +0.048 A 
ATOM     27  C   UNL     1      -4.274 -11.473  18.181  0.00  0.00    +0.010 A 
ATOM     31  C   UNL     1      -6.735 -10.186  17.915  0.00  0.00    +0.124 A 
ATOM     32  C   UNL     1      -5.219 -11.559  19.203  0.00  0.00    +0.003 A 
ATOM     33  C   UNL     1      -6.450 -10.915  19.069  0.00  0.00    +0.038 A 
ENDBRANCH  19  23
ENDBRANCH  13   7
BRANCH  14   4
ATOM      4  O   UNL     1      -6.507  -9.437   7.901  0.00  0.00    -0.442 OA
BRANCH   4  18
ATOM      5  O   UNL     1      -5.978 -10.523   5.959  0.00  0.00    -0.226 OA
ATOM     10  N   UNL     1      -7.683  -8.921   6.048  0.00  0.00    -0.251 N 
ATOM     18  C   UNL     1      -6.665  -9.704   6.557  0.00  0.00    +0.405 C 
ATOM     41  H   UNL     1      -8.142  -8.296   6.706  0.00  0.00    +0.158 HD
BRANCH  10  22
ATOM     22  C   UNL     1      -8.170  -8.881   4.721  0.00  0.00    +0.037 A 
ATOM     24  C   UNL     1      -9.304  -9.614   4.372  0.00  0.00    +0.027 A 
ATOM     25  C   UNL     1      -7.516  -8.108   3.761  0.00  0.00    +0.027 A 
ATOM     28  C   UNL     1      -9.784  -9.574   3.062  0.00  0.00    +0.048 A 
ATOM     29  C   UNL     1      -7.995  -8.069   2.453  0.00  0.00    +0.048 A 
ATOM     30  C   UNL     1      -9.129  -8.802   2.103  0.00  0.00    +0.129 A 
BRANCH  30   6
ATOM      6  O   UNL     1      -9.597  -8.764   0.826  0.00  0.00    -0.456 OA
BRANCH   6  34
ATOM     34  C   UNL     1     -10.307  -7.641   0.433  0.00  0.00    +0.128 A 
ATOM     35  C   UNL     1     -10.430  -6.556   1.300  0.00  0.00    +0.046 A 
ATOM     36  C   UNL     1     -10.898  -7.596  -0.830  0.00  0.00    +0.046 A 
ATOM     37  C   UNL     1     -11.144  -5.425   0.903  0.00  0.00    +0.004 A 
ATOM     38  C   UNL     1     -11.611  -6.465  -1.226  0.00  0.00    +0.004 A 
ATOM     39  C   UNL     1     -11.735  -5.380  -0.359  0.00  0.00    +0.000 A 
ENDBRANCH   6  34
ENDBRANCH  30   6
ENDBRANCH  10  22
ENDBRANCH   4  18
ENDBRANCH  14   4
TORSDOF 7
ENDMDL
MODEL 8
REMARK VINA RESULT:      -7.5     24.226     28.385
REMARK  Name = 11913115
REMARK  7 active torsions:
REMARK  status: ('A' for Active; 'I' for Inactive)
REMARK    1  A    between atoms: O_4  and  C_14
REMARK    2  A    between atoms: O_4  and  C_18
REMARK    3  A    between atoms: O_6  and  C_30
REMARK    4  A    between atoms: O_6  and  C_34
REMARK    5  A    between atoms: N_7  and  C_13
REMARK    6  A    between atoms: N_10  and  C_22
REMARK    7  A    between atoms: C_19  and  C_23
REMARK                            x       y       z     vdW  Elec       q    Type
REMARK                         _______ _______ _______ _____ _____    ______ ____
ROOT
ATOM      2  O   UNL     1     -15.105   5.613  34.642  0.00  0.00    -0.368 OA
ATOM      3  O   UNL     1     -15.150   6.408  31.679  0.00  0.00    -0.368 OA
ATOM     11  C   UNL     1     -14.664   5.223  32.344  0.00  0.00    +0.173 C 
ATOM     12  C   UNL     1     -14.059   5.674  33.658  0.00  0.00    +0.192 C 
ATOM     13  C   UNL     1     -15.826   4.350  32.759  0.00  0.00    +0.130 C 
ATOM     14  C   UNL     1     -13.655   7.098  33.360  0.00  0.00    +0.235 C 
ATOM     15  C   UNL     1     -16.263   4.990  34.065  0.00  0.00    +0.185 C 
ATOM     16  C   UNL     1     -14.766   7.559  32.444  0.00  0.00    +0.207 C 
ENDROOT
BRANCH  13   7
ATOM      7  N   UNL     1     -15.377   2.993  32.989  0.00  0.00    -0.306 N 
ATOM      8  N   UNL     1     -15.690   2.410  30.763  0.00  0.00    -0.214 NA
ATOM      9  N   UNL     1     -14.869   0.813  32.371  0.00  0.00    -0.223 NA
ATOM     17  C   UNL     1     -15.309   2.031  31.998  0.00  0.00    +0.216 A 
ATOM     19  C   UNL     1     -15.611   1.447  29.822  0.00  0.00    +0.076 A 
ATOM     20  C   UNL     1     -14.815  -0.100  31.380  0.00  0.00    +0.116 A 
ATOM     21  C   UNL     1     -15.177   0.162  30.074  0.00  0.00    +0.048 A 
ATOM     40  H   UNL     1     -15.043   2.729  33.909  0.00  0.00    +0.149 HD
BRANCH  19  23
ATOM      1  F   UNL     1     -17.403   0.387  25.468  0.00  0.00    -0.205 F 
ATOM     23  C   UNL     1     -16.018   1.850  28.497  0.00  0.00    +0.003 A 
ATOM     26  C   UNL     1     -16.525   0.905  27.605  0.00  0.00    +0.048 A 
ATOM     27  C   UNL     1     -15.902   3.185  28.107  0.00  0.00    +0.010 A 
ATOM     31  C   UNL     1     -16.917   1.295  26.324  0.00  0.00    +0.124 A 
ATOM     32  C   UNL     1     -16.293   3.575  26.827  0.00  0.00    +0.003 A 
ATOM     33  C   UNL     1     -16.801   2.629  25.935  0.00  0.00    +0.038 A 
ENDBRANCH  19  23
ENDBRANCH  13   7
BRANCH  14   4
ATOM      4  O   UNL     1     -13.548   7.906  34.511  0.00  0.00    -0.442 OA
BRANCH   4  18
ATOM      5  O   UNL     1     -11.770   9.174  33.831  0.00  0.00    -0.226 OA
ATOM     10  N   UNL     1     -11.930   8.352  36.017  0.00  0.00    -0.251 N 
ATOM     18  C   UNL     1     -12.342   8.545  34.713  0.00  0.00    +0.405 C 
ATOM     41  H   UNL     1     -12.546   7.796  36.606  0.00  0.00    +0.158 HD
BRANCH  10  22
ATOM     22  C   UNL     1     -10.755   8.834  36.640  0.00  0.00    +0.037 A 
ATOM     24  C   UNL     1     -10.579  10.204  36.830  0.00  0.00    +0.027 A 
ATOM     25  C   UNL     1      -9.774   7.938  37.064  0.00  0.00    +0.027 A 
ATOM     28  C   UNL     1      -9.420  10.679  37.444  0.00  0.00    +0.048 A 
ATOM     29  C   UNL     1      -8.615   8.413  37.677  0.00  0.00    +0.048 A 
ATOM     30  C   UNL     1      -8.437   9.783  37.867  0.00  0.00    +0.129 A 
BRANCH  30   6
ATOM      6  O   UNL     1      -7.307  10.247  38.465  0.00  0.00    -0.456 OA
BRANCH   6  34
ATOM     34  C   UNL     1      -6.089   9.859  37.932  0.00  0.00    +0.128 A 
ATOM     35  C   UNL     1      -5.224   9.059  38.678  0.00  0.00    +0.046 A 
ATOM     36  C   UNL     1      -5.727  10.269  36.649  0.00  0.00    +0.046 A 
ATOM     37  C   UNL     1      -3.998   8.667  38.140  0.00  0.00    +0.004 A 
ATOM     38  C   UNL     1      -4.501   9.877  36.111  0.00  0.00    +0.004 A 
ATOM     39  C   UNL     1      -3.637   9.077  36.857  0.00  0.00    +0.000 A 
ENDBRANCH   6  34
ENDBRANCH  30   6
ENDBRANCH  10  22
ENDBRANCH   4  18
ENDBRANCH  14   4
TORSDOF 7
ENDMDL
MODEL 9
REMARK VINA RESULT:      -7.4      4.942      7.151
REMARK  Name = 11913115
REMARK  7 active torsions:
REMARK  status: ('A' for Active; 'I' for Inactive)
REMARK    1  A    between atoms: O_4  and  C_14
REMARK    2  A    between atoms: O_4  and  C_18
REMARK    3  A    between atoms: O_6  and  C_30
REMARK    4  A    between atoms: O_6  and  C_34
REMARK    5  A    between atoms: N_7  and  C_13
REMARK    6  A    between atoms: N_10  and  C_22
REMARK    7  A    between atoms: C_19  and  C_23
REMARK                            x       y       z     vdW  Elec       q    Type
REMARK                         _______ _______ _______ _____ _____    ______ ____
ROOT
ATOM      2  O   UNL     1     -11.124  -9.590  16.220  0.00  0.00    -0.368 OA
ATOM      3  O   UNL     1      -9.680  -6.920  15.774  0.00  0.00    -0.368 OA
ATOM     11  C   UNL     1      -9.761  -7.783  16.928  0.00  0.00    +0.173 C 
ATOM     12  C   UNL     1     -11.165  -8.354  16.951  0.00  0.00    +0.192 C 
ATOM     13  C   UNL     1      -8.879  -8.993  16.731  0.00  0.00    +0.130 C 
ATOM     14  C   UNL     1     -11.959  -7.298  16.221  0.00  0.00    +0.235 C 
ATOM     15  C   UNL     1      -9.761  -9.907  15.898  0.00  0.00    +0.185 C 
ATOM     16  C   UNL     1     -10.979  -6.832  15.170  0.00  0.00    +0.207 C 
ENDROOT
BRANCH  13   7
ATOM      7  N   UNL     1      -8.580  -9.609  18.007  0.00  0.00    -0.306 N 
ATOM      8  N   UNL     1      -6.430 -10.177  17.337  0.00  0.00    -0.214 NA
ATOM      9  N   UNL     1      -7.239 -10.725  19.540  0.00  0.00    -0.223 NA
ATOM     17  C   UNL     1      -7.363 -10.196  18.307  0.00  0.00    +0.216 A 
ATOM     19  C   UNL     1      -5.258 -10.758  17.664  0.00  0.00    +0.076 A 
ATOM     20  C   UNL     1      -6.041 -11.289  19.799  0.00  0.00    +0.116 A 
ATOM     21  C   UNL     1      -5.003 -11.336  18.892  0.00  0.00    +0.048 A 
ATOM     40  H   UNL     1      -9.268  -9.573  18.750  0.00  0.00    +0.149 HD
BRANCH  19  23
ATOM      1  F   UNL     1      -4.027 -10.463  13.006  0.00  0.00    -0.205 F 
ATOM     23  C   UNL     1      -4.254 -10.739  16.627  0.00  0.00    +0.003 A 
ATOM     26  C   UNL     1      -4.633 -10.608  15.291  0.00  0.00    +0.048 A 
ATOM     27  C   UNL     1      -2.904 -10.854  16.960  0.00  0.00    +0.010 A 
ATOM     31  C   UNL     1      -3.662 -10.590  14.289  0.00  0.00    +0.124 A 
ATOM     32  C   UNL     1      -1.934 -10.836  15.959  0.00  0.00    +0.003 A 
ATOM     33  C   UNL     1      -2.313 -10.704  14.623  0.00  0.00    +0.038 A 
ENDBRANCH  19  23
ENDBRANCH  13   7
BRANCH  14   4
ATOM      4  O   UNL     1     -13.154  -7.786  15.652  0.00  0.00    -0.442 OA
BRANCH   4  18
ATOM      5  O   UNL     1     -13.718  -8.071  13.454  0.00  0.00    -0.226 OA
ATOM     10  N   UNL     1     -13.483  -5.941  14.397  0.00  0.00    -0.251 N 
ATOM     18  C   UNL     1     -13.479  -7.323  14.393  0.00  0.00    +0.405 C 
ATOM     41  H   UNL     1     -13.258  -5.493  15.282  0.00  0.00    +0.158 HD
BRANCH  10  22
ATOM     22  C   UNL     1     -13.763  -5.069  13.320  0.00  0.00    +0.037 A 
ATOM     24  C   UNL     1     -14.745  -4.087  13.455  0.00  0.00    +0.027 A 
ATOM     25  C   UNL     1     -13.057  -5.189  12.123  0.00  0.00    +0.027 A 
ATOM     28  C   UNL     1     -15.022  -3.227  12.392  0.00  0.00    +0.048 A 
ATOM     29  C   UNL     1     -13.334  -4.329  11.061  0.00  0.00    +0.048 A 
ATOM     30  C   UNL     1     -14.316  -3.348  11.195  0.00  0.00    +0.129 A 
BRANCH  30   6
ATOM      6  O   UNL     1     -14.586  -2.508  10.159  0.00  0.00    -0.456 OA
BRANCH   6  34
ATOM     34  C   UNL     1     -15.912  -2.189   9.916  0.00  0.00    +0.128 A 
ATOM     35  C   UNL     1     -16.414  -0.950  10.312  0.00  0.00    +0.046 A 
ATOM     36  C   UNL     1     -16.744  -3.107   9.276  0.00  0.00    +0.046 A 
ATOM     37  C   UNL     1     -17.748  -0.627  10.066  0.00  0.00    +0.004 A 
ATOM     38  C   UNL     1     -18.079  -2.784   9.031  0.00  0.00    +0.004 A 
ATOM     39  C   UNL     1     -18.581  -1.545   9.426  0.00  0.00    +0.000 A 
ENDBRANCH   6  34
ENDBRANCH  30   6
ENDBRANCH  10  22
ENDBRANCH   4  18
ENDBRANCH  14   4
TORSDOF 7
ENDMDL
MODEL 10
REMARK VINA RESULT:      -7.3     23.462     25.236
REMARK  Name = 11913115
REMARK  7 active torsions:
REMARK  status: ('A' for Active; 'I' for Inactive)
REMARK    1  A    between atoms: O_4  and  C_14
REMARK    2  A    between atoms: O_4  and  C_18
REMARK    3  A    between atoms: O_6  and  C_30
REMARK    4  A    between atoms: O_6  and  C_34
REMARK    5  A    between atoms: N_7  and  C_13
REMARK    6  A    between atoms: N_10  and  C_22
REMARK    7  A    between atoms: C_19  and  C_23
REMARK                            x       y       z     vdW  Elec       q    Type
REMARK                         _______ _______ _______ _____ _____    ______ ____
ROOT
ATOM      2  O   UNL     1      11.407   3.682   0.098  0.00  0.00    -0.368 OA
ATOM      3  O   UNL     1      12.317   6.595   0.406  0.00  0.00    -0.368 OA
ATOM     11  C   UNL     1      11.284   5.839   1.074  0.00  0.00    +0.173 C 
ATOM     12  C   UNL     1      10.676   4.917   0.036  0.00  0.00    +0.192 C 
ATOM     13  C   UNL     1      11.902   4.898   2.081  0.00  0.00    +0.130 C 
ATOM     14  C   UNL     1      10.937   5.658  -1.253  0.00  0.00    +0.235 C 
ATOM     15  C   UNL     1      12.306   3.716   1.216  0.00  0.00    +0.185 C 
ATOM     16  C   UNL     1      12.289   6.282  -0.994  0.00  0.00    +0.207 C 
ENDROOT
BRANCH  13   7
ATOM      7  N   UNL     1      10.915   4.491   3.058  0.00  0.00    -0.306 N 
ATOM      8  N   UNL     1      11.626   6.091   4.584  0.00  0.00    -0.214 NA
ATOM      9  N   UNL     1       9.809   4.594   5.098  0.00  0.00    -0.223 NA
ATOM     17  C   UNL     1      10.777   5.085   4.301  0.00  0.00    +0.216 A 
ATOM     19  C   UNL     1      11.464   6.646   5.802  0.00  0.00    +0.076 A 
ATOM     20  C   UNL     1       9.703   5.195   6.301  0.00  0.00    +0.116 A 
ATOM     21  C   UNL     1      10.511   6.235   6.712  0.00  0.00    +0.048 A 
ATOM     40  H   UNL     1      10.245   3.768   2.819  0.00  0.00    +0.149 HD
BRANCH  19  23
ATOM      1  F   UNL     1      12.334  10.993   7.711  0.00  0.00    -0.205 F 
ATOM     23  C   UNL     1      12.371   7.726   6.110  0.00  0.00    +0.003 A 
ATOM     26  C   UNL     1      11.905   8.860   6.776  0.00  0.00    +0.048 A 
ATOM     27  C   UNL     1      13.713   7.637   5.739  0.00  0.00    +0.010 A 
ATOM     31  C   UNL     1      12.782   9.904   7.072  0.00  0.00    +0.124 A 
ATOM     32  C   UNL     1      14.589   8.681   6.035  0.00  0.00    +0.003 A 
ATOM     33  C   UNL     1      14.123   9.814   6.702  0.00  0.00    +0.038 A 
ENDBRANCH  19  23
ENDBRANCH  13   7
BRANCH  14   4
ATOM      4  O   UNL     1      10.948   4.823  -2.390  0.00  0.00    -0.442 OA
BRANCH   4  18
ATOM      5  O   UNL     1       9.304   3.419  -3.135  0.00  0.00    -0.226 OA
ATOM     10  N   UNL     1       9.119   5.744  -3.335  0.00  0.00    -0.251 N 
ATOM     18  C   UNL     1       9.729   4.557  -2.979  0.00  0.00    +0.405 C 
ATOM     41  H   UNL     1       9.633   6.596  -3.121  0.00  0.00    +0.158 HD
BRANCH  10  22
ATOM     22  C   UNL     1       7.865   5.925  -3.962  0.00  0.00    +0.037 A 
ATOM     24  C   UNL     1       6.789   6.433  -3.235  0.00  0.00    +0.027 A 
ATOM     25  C   UNL     1       7.704   5.596  -5.308  0.00  0.00    +0.027 A 
ATOM     28  C   UNL     1       5.551   6.611  -3.854  0.00  0.00    +0.048 A 
ATOM     29  C   UNL     1       6.467   5.774  -5.926  0.00  0.00    +0.048 A 
ATOM     30  C   UNL     1       5.390   6.280  -5.199  0.00  0.00    +0.129 A 
BRANCH  30   6
ATOM      6  O   UNL     1       4.183   6.454  -5.803  0.00  0.00    -0.456 OA
BRANCH   6  34
ATOM     34  C   UNL     1       3.136   5.643  -5.396  0.00  0.00    +0.128 A 
ATOM     35  C   UNL     1       1.916   6.211  -5.031  0.00  0.00    +0.046 A 
ATOM     36  C   UNL     1       3.303   4.260  -5.352  0.00  0.00    +0.046 A 
ATOM     37  C   UNL     1       0.861   5.394  -4.623  0.00  0.00    +0.004 A 
ATOM     38  C   UNL     1       2.248   3.443  -4.944  0.00  0.00    +0.004 A 
ATOM     39  C   UNL     1       1.028   4.010  -4.579  0.00  0.00    +0.000 A 
ENDBRANCH   6  34
ENDBRANCH  30   6
ENDBRANCH  10  22
ENDBRANCH   4  18
ENDBRANCH  14   4
TORSDOF 7
ENDMDL
