MODEL 1
REMARK VINA RESULT:      -6.7      0.000      0.000
REMARK  Name = 7135019
REMARK  11 active torsions:
REMARK  status: ('A' for Active; 'I' for Inactive)
REMARK    1  A    between atoms: O_2  and  C_14
REMARK    2  A    between atoms: O_3  and  C_19
REMARK    3  A    between atoms: N_7  and  C_25
REMARK    4  A    between atoms: C_9  and  C_17
REMARK    5  A    between atoms: C_11  and  C_19
REMARK    6  A    between atoms: C_11  and  C_20
REMARK    7  A    between atoms: C_12  and  C_22
REMARK    8  A    between atoms: C_22  and  C_23
REMARK    9  A    between atoms: C_25  and  C_33
REMARK   10  A    between atoms: C_25  and  C_34
REMARK   11  A    between atoms: C_26  and  C_27
REMARK                            x       y       z     vdW  Elec       q    Type
REMARK                         _______ _______ _______ _____ _____    ______ ____
ROOT
ATOM      1  S   UNL     1      13.838   7.559   6.831  0.00  0.00    -0.057 S 
ATOM      5  O   UNL     1      10.885   5.469   3.882  0.00  0.00    -0.275 OA
ATOM      6  N   UNL     1      13.464   6.870   4.364  0.00  0.00    -0.229 NA
ATOM      8  N   UNL     1      11.717   6.307   5.928  0.00  0.00    -0.264 N 
ATOM      9  C   UNL     1      16.695   8.776   3.477  0.00  0.00    -0.019 C 
ATOM     10  C   UNL     1      17.354   8.479   4.895  0.00  0.00    +0.011 C 
ATOM     11  C   UNL     1      18.748   9.155   5.193  0.00  0.00    +0.021 C 
ATOM     12  C   UNL     1      15.560   7.681   3.221  0.00  0.00    +0.054 C 
ATOM     13  C   UNL     1      17.770   8.635   2.369  0.00  0.00    +0.010 C 
ATOM     14  C   UNL     1      19.684   8.959   3.967  0.00  0.00    +0.123 C 
ATOM     15  C   UNL     1      16.320   8.638   6.048  0.00  0.00    +0.049 C 
ATOM     16  C   UNL     1      19.054   9.402   2.652  0.00  0.00    +0.032 C 
ATOM     17  C   UNL     1      16.074  10.193   3.388  0.00  0.00    +0.012 C 
ATOM     18  C   UNL     1      14.686   7.513   4.437  0.00  0.00    +0.058 A 
ATOM     20  C   UNL     1      19.411   8.437   6.402  0.00  0.00    +0.016 C 
ATOM     21  C   UNL     1      15.054   7.933   5.698  0.00  0.00    +0.015 A 
ATOM     24  C   UNL     1      12.925   6.843   5.565  0.00  0.00    +0.165 A 
ATOM     26  C   UNL     1      10.791   5.668   5.088  0.00  0.00    +0.222 C 
ATOM     38  H   UNL     1      11.498   6.391   6.917  0.00  0.00    +0.157 HD
ENDROOT
BRANCH  26  27
ATOM     27  C   UNL     1       9.579   5.207   5.845  0.00  0.00    +0.075 C 
ATOM     28  C   UNL     1       8.378   6.093   5.505  0.00  0.00    +0.013 C 
ATOM     29  C   UNL     1       9.860   5.144   7.348  0.00  0.00    +0.013 C 
ATOM     30  C   UNL     1       8.427   7.457   6.189  0.00  0.00    +0.001 C 
ATOM     31  C   UNL     1       9.877   6.516   8.022  0.00  0.00    +0.001 C 
ATOM     32  C   UNL     1       8.627   7.324   7.694  0.00  0.00    +0.000 C 
ENDBRANCH  26  27
BRANCH  14   2
ATOM      2  O   UNL     1      20.909   9.670   4.152  0.00  0.00    -0.391 OA
ATOM     35  H   UNL     1      20.895  10.440   3.558  0.00  0.00    +0.210 HD
ENDBRANCH  14   2
BRANCH  11  19
ATOM     19  C   UNL     1      18.665  10.646   5.590  0.00  0.00    +0.165 C 
BRANCH  19   3
ATOM      3  O   UNL     1      19.679  10.897   6.536  0.00  0.00    -0.394 OA
ATOM     36  H   UNL     1      19.299  10.741   7.417  0.00  0.00    +0.209 HD
ENDBRANCH  19   3
ENDBRANCH  11  19
BRANCH  12  22
ATOM     22  C   UNL     1      14.724   7.913   1.955  0.00  0.00    +0.106 C 
BRANCH  22  23
ATOM      4  O   UNL     1      15.216   6.749  -0.108  0.00  0.00    -0.276 OA
ATOM      7  N   UNL     1      14.194   5.606   1.638  0.00  0.00    -0.313 N 
ATOM     23  C   UNL     1      14.754   6.719   1.029  0.00  0.00    +0.214 C 
ATOM     37  H   UNL     1      13.893   5.674   2.607  0.00  0.00    +0.149 HD
BRANCH   7  25
ATOM     25  C   UNL     1      14.085   4.320   0.986  0.00  0.00    +0.067 C 
ATOM     33  C   UNL     1      12.908   3.537   1.553  0.00  0.00    +0.027 C 
ATOM     34  C   UNL     1      15.386   3.539   1.124  0.00  0.00    +0.027 C 
ENDBRANCH   7  25
ENDBRANCH  22  23
ENDBRANCH  12  22
TORSDOF 7
ENDMDL
MODEL 2
REMARK VINA RESULT:      -6.7     24.521     28.415
REMARK  Name = 7135019
REMARK  11 active torsions:
REMARK  status: ('A' for Active; 'I' for Inactive)
REMARK    1  A    between atoms: O_2  and  C_14
REMARK    2  A    between atoms: O_3  and  C_19
REMARK    3  A    between atoms: N_7  and  C_25
REMARK    4  A    between atoms: C_9  and  C_17
REMARK    5  A    between atoms: C_11  and  C_19
REMARK    6  A    between atoms: C_11  and  C_20
REMARK    7  A    between atoms: C_12  and  C_22
REMARK    8  A    between atoms: C_22  and  C_23
REMARK    9  A    between atoms: C_25  and  C_33
REMARK   10  A    between atoms: C_25  and  C_34
REMARK   11  A    between atoms: C_26  and  C_27
REMARK                            x       y       z     vdW  Elec       q    Type
REMARK                         _______ _______ _______ _____ _____    ______ ____
ROOT
ATOM      1  S   UNL     1      -1.537 -14.153  -0.065  0.00  0.00    -0.057 S 
ATOM      5  O   UNL     1       2.674 -13.635  -2.008  0.00  0.00    -0.275 OA
ATOM      6  N   UNL     1      -0.284 -13.735  -2.290  0.00  0.00    -0.229 NA
ATOM      8  N   UNL     1       1.068 -13.989  -0.311  0.00  0.00    -0.264 N 
ATOM      9  C   UNL     1      -3.676 -14.014  -4.102  0.00  0.00    -0.019 C 
ATOM     10  C   UNL     1      -4.479 -13.436  -2.856  0.00  0.00    +0.011 C 
ATOM     11  C   UNL     1      -6.052 -13.416  -2.965  0.00  0.00    +0.021 C 
ATOM     12  C   UNL     1      -2.154 -13.542  -3.971  0.00  0.00    +0.054 C 
ATOM     13  C   UNL     1      -4.260 -13.423  -5.412  0.00  0.00    +0.010 C 
ATOM     14  C   UNL     1      -6.463 -12.840  -4.349  0.00  0.00    +0.123 C 
ATOM     15  C   UNL     1      -3.950 -14.024  -1.515  0.00  0.00    +0.049 C 
ATOM     16  C   UNL     1      -5.774 -13.534  -5.518  0.00  0.00    +0.032 C 
ATOM     17  C   UNL     1      -3.730 -15.560  -4.188  0.00  0.00    +0.012 C 
ATOM     18  C   UNL     1      -1.637 -13.765  -2.573  0.00  0.00    +0.058 A 
ATOM     20  C   UNL     1      -6.624 -12.462  -1.878  0.00  0.00    +0.016 C 
ATOM     21  C   UNL     1      -2.460 -13.961  -1.484  0.00  0.00    +0.015 A 
ATOM     24  C   UNL     1      -0.114 -13.935  -1.001  0.00  0.00    +0.165 A 
ATOM     26  C   UNL     1       2.361 -13.839  -0.840  0.00  0.00    +0.222 C 
ATOM     38  H   UNL     1       0.969 -14.148   0.688  0.00  0.00    +0.157 HD
ENDROOT
BRANCH  26  27
ATOM     27  C   UNL     1       3.414 -13.957   0.223  0.00  0.00    +0.075 C 
ATOM     28  C   UNL     1       4.778 -14.230  -0.414  0.00  0.00    +0.013 C 
ATOM     29  C   UNL     1       3.028 -15.008   1.267  0.00  0.00    +0.013 C 
ATOM     30  C   UNL     1       4.938 -15.672  -0.892  0.00  0.00    +0.001 C 
ATOM     31  C   UNL     1       3.221 -16.445   0.783  0.00  0.00    +0.001 C 
ATOM     32  C   UNL     1       4.618 -16.670   0.216  0.00  0.00    +0.000 C 
ENDBRANCH  26  27
BRANCH  14   2
ATOM      2  O   UNL     1      -7.877 -12.929  -4.531  0.00  0.00    -0.391 OA
ATOM     35  H   UNL     1      -8.079 -13.831  -4.831  0.00  0.00    +0.210 HD
ENDBRANCH  14   2
BRANCH  11  19
ATOM     19  C   UNL     1      -6.729 -14.783  -2.714  0.00  0.00    +0.165 C 
BRANCH  19   3
ATOM      3  O   UNL     1      -8.005 -14.539  -2.167  0.00  0.00    -0.394 OA
ATOM     36  H   UNL     1      -7.875 -14.223  -1.257  0.00  0.00    +0.209 HD
ENDBRANCH  19   3
ENDBRANCH  11  19
BRANCH  12  22
ATOM     22  C   UNL     1      -1.209 -14.139  -5.022  0.00  0.00    +0.106 C 
BRANCH  22  23
ATOM      4  O   UNL     1      -0.839 -12.785  -6.993  0.00  0.00    -0.276 OA
ATOM      7  N   UNL     1       0.494 -12.466  -5.116  0.00  0.00    -0.313 N 
ATOM     23  C   UNL     1      -0.524 -13.069  -5.840  0.00  0.00    +0.214 C 
ATOM     37  H   UNL     1       0.634 -12.737  -4.146  0.00  0.00    +0.149 HD
BRANCH   7  25
ATOM     25  C   UNL     1       1.323 -11.409  -5.648  0.00  0.00    +0.067 C 
ATOM     33  C   UNL     1       2.554 -11.992  -6.328  0.00  0.00    +0.027 C 
ATOM     34  C   UNL     1       1.713 -10.431  -4.546  0.00  0.00    +0.027 C 
ENDBRANCH   7  25
ENDBRANCH  22  23
ENDBRANCH  12  22
TORSDOF 7
ENDMDL
MODEL 3
REMARK VINA RESULT:      -6.6     26.359     30.772
REMARK  Name = 7135019
REMARK  11 active torsions:
REMARK  status: ('A' for Active; 'I' for Inactive)
REMARK    1  A    between atoms: O_2  and  C_14
REMARK    2  A    between atoms: O_3  and  C_19
REMARK    3  A    between atoms: N_7  and  C_25
REMARK    4  A    between atoms: C_9  and  C_17
REMARK    5  A    between atoms: C_11  and  C_19
REMARK    6  A    between atoms: C_11  and  C_20
REMARK    7  A    between atoms: C_12  and  C_22
REMARK    8  A    between atoms: C_22  and  C_23
REMARK    9  A    between atoms: C_25  and  C_33
REMARK   10  A    between atoms: C_25  and  C_34
REMARK   11  A    between atoms: C_26  and  C_27
REMARK                            x       y       z     vdW  Elec       q    Type
REMARK                         _______ _______ _______ _____ _____    ______ ____
ROOT
ATOM      1  S   UNL     1      -9.026  -9.921  13.067  0.00  0.00    -0.057 S 
ATOM      5  O   UNL     1      -4.653  -9.176  11.617  0.00  0.00    -0.275 OA
ATOM      6  N   UNL     1      -6.540  -9.936  13.786  0.00  0.00    -0.229 NA
ATOM      8  N   UNL     1      -7.009  -9.320  11.503  0.00  0.00    -0.264 N 
ATOM      9  C   UNL     1      -7.721 -10.636  17.388  0.00  0.00    -0.019 C 
ATOM     10  C   UNL     1      -9.007 -11.434  16.896  0.00  0.00    +0.011 C 
ATOM     11  C   UNL     1     -10.023 -11.909  18.006  0.00  0.00    +0.021 C 
ATOM     12  C   UNL     1      -6.649 -10.647  16.203  0.00  0.00    +0.054 C 
ATOM     13  C   UNL     1      -7.102 -11.359  18.613  0.00  0.00    +0.010 C 
ATOM     14  C   UNL     1      -9.236 -12.566  19.174  0.00  0.00    +0.123 C 
ATOM     15  C   UNL     1      -9.684 -10.731  15.684  0.00  0.00    +0.049 C 
ATOM     16  C   UNL     1      -8.107 -11.691  19.707  0.00  0.00    +0.032 C 
ATOM     17  C   UNL     1      -8.036  -9.172  17.784  0.00  0.00    +0.012 C 
ATOM     18  C   UNL     1      -7.294 -10.297  14.887  0.00  0.00    +0.058 A 
ATOM     20  C   UNL     1     -10.957 -12.998  17.405  0.00  0.00    +0.016 C 
ATOM     21  C   UNL     1      -8.655 -10.359  14.671  0.00  0.00    +0.015 A 
ATOM     24  C   UNL     1      -7.348  -9.708  12.772  0.00  0.00    +0.165 A 
ATOM     26  C   UNL     1      -5.715  -9.082  11.010  0.00  0.00    +0.222 C 
ATOM     38  H   UNL     1      -7.797  -9.206  10.870  0.00  0.00    +0.157 HD
ENDROOT
BRANCH  26  27
ATOM     27  C   UNL     1      -5.736  -8.674   9.566  0.00  0.00    +0.075 C 
ATOM     28  C   UNL     1      -7.013  -9.182   8.894  0.00  0.00    +0.013 C 
ATOM     29  C   UNL     1      -4.466  -9.133   8.846  0.00  0.00    +0.013 C 
ATOM     30  C   UNL     1      -6.976 -10.677   8.588  0.00  0.00    +0.001 C 
ATOM     31  C   UNL     1      -4.458 -10.627   8.522  0.00  0.00    +0.001 C 
ATOM     32  C   UNL     1      -5.728 -11.058   7.799  0.00  0.00    +0.000 C 
ENDBRANCH  26  27
BRANCH  14   2
ATOM      2  O   UNL     1     -10.114 -12.890  20.253  0.00  0.00    -0.391 OA
ATOM     35  H   UNL     1      -9.578 -12.947  21.062  0.00  0.00    +0.210 HD
ENDBRANCH  14   2
BRANCH  11  19
ATOM     19  C   UNL     1     -10.962 -10.800  18.530  0.00  0.00    +0.165 C 
BRANCH  19   3
ATOM      3  O   UNL     1     -12.141 -11.417  18.997  0.00  0.00    -0.394 OA
ATOM     36  H   UNL     1     -12.489 -11.963  18.272  0.00  0.00    +0.209 HD
ENDBRANCH  19   3
ENDBRANCH  11  19
BRANCH  12  22
ATOM     22  C   UNL     1      -5.402  -9.792  16.462  0.00  0.00    +0.106 C 
BRANCH  22  23
ATOM      4  O   UNL     1      -3.757 -11.408  17.194  0.00  0.00    -0.276 OA
ATOM      7  N   UNL     1      -3.453 -10.297  15.176  0.00  0.00    -0.313 N 
ATOM     23  C   UNL     1      -4.128 -10.599  16.349  0.00  0.00    +0.214 C 
ATOM     37  H   UNL     1      -3.879  -9.652  14.515  0.00  0.00    +0.149 HD
BRANCH   7  25
ATOM     25  C   UNL     1      -2.200 -10.915  14.804  0.00  0.00    +0.067 C 
ATOM     33  C   UNL     1      -1.051 -10.296  15.589  0.00  0.00    +0.027 C 
ATOM     34  C   UNL     1      -1.971 -10.795  13.303  0.00  0.00    +0.027 C 
ENDBRANCH   7  25
ENDBRANCH  22  23
ENDBRANCH  12  22
TORSDOF 7
ENDMDL
MODEL 4
REMARK VINA RESULT:      -6.3     26.671     28.998
REMARK  Name = 7135019
REMARK  11 active torsions:
REMARK  status: ('A' for Active; 'I' for Inactive)
REMARK    1  A    between atoms: O_2  and  C_14
REMARK    2  A    between atoms: O_3  and  C_19
REMARK    3  A    between atoms: N_7  and  C_25
REMARK    4  A    between atoms: C_9  and  C_17
REMARK    5  A    between atoms: C_11  and  C_19
REMARK    6  A    between atoms: C_11  and  C_20
REMARK    7  A    between atoms: C_12  and  C_22
REMARK    8  A    between atoms: C_22  and  C_23
REMARK    9  A    between atoms: C_25  and  C_33
REMARK   10  A    between atoms: C_25  and  C_34
REMARK   11  A    between atoms: C_26  and  C_27
REMARK                            x       y       z     vdW  Elec       q    Type
REMARK                         _______ _______ _______ _____ _____    ______ ____
ROOT
ATOM      1  S   UNL     1      -4.693  -9.204   9.796  0.00  0.00    -0.057 S 
ATOM      5  O   UNL     1      -9.050  -7.733   9.000  0.00  0.00    -0.275 OA
ATOM      6  N   UNL     1      -7.056  -8.975  10.824  0.00  0.00    -0.229 NA
ATOM      8  N   UNL     1      -6.769  -8.175   8.568  0.00  0.00    -0.264 N 
ATOM      9  C   UNL     1      -5.776 -10.947  13.880  0.00  0.00    -0.019 C 
ATOM     10  C   UNL     1      -4.295 -10.388  13.719  0.00  0.00    +0.011 C 
ATOM     11  C   UNL     1      -3.200 -10.972  14.693  0.00  0.00    +0.021 C 
ATOM     12  C   UNL     1      -6.768  -9.937  13.137  0.00  0.00    +0.054 C 
ATOM     13  C   UNL     1      -6.153 -10.986  15.383  0.00  0.00    +0.010 C 
ATOM     14  C   UNL     1      -3.756 -10.981  16.144  0.00  0.00    +0.123 C 
ATOM     15  C   UNL     1      -3.856 -10.358  12.227  0.00  0.00    +0.049 C 
ATOM     16  C   UNL     1      -5.114 -11.664  16.264  0.00  0.00    +0.032 C 
ATOM     17  C   UNL     1      -5.950 -12.368  13.288  0.00  0.00    +0.012 C 
ATOM     18  C   UNL     1      -6.245  -9.571  11.772  0.00  0.00    +0.058 A 
ATOM     20  C   UNL     1      -1.957 -10.037  14.679  0.00  0.00    +0.016 C 
ATOM     21  C   UNL     1      -4.932  -9.751  11.391  0.00  0.00    +0.015 A 
ATOM     24  C   UNL     1      -6.346  -8.744   9.741  0.00  0.00    +0.165 A 
ATOM     26  C   UNL     1      -8.063  -7.714   8.273  0.00  0.00    +0.222 C 
ATOM     38  H   UNL     1      -6.048  -8.084   7.858  0.00  0.00    +0.157 HD
ENDROOT
BRANCH  26  27
ATOM     27  C   UNL     1      -8.148  -7.149   6.885  0.00  0.00    +0.075 C 
ATOM     28  C   UNL     1      -9.597  -6.784   6.553  0.00  0.00    +0.013 C 
ATOM     29  C   UNL     1      -7.530  -8.105   5.862  0.00  0.00    +0.013 C 
ATOM     30  C   UNL     1     -10.463  -8.000   6.233  0.00  0.00    +0.001 C 
ATOM     31  C   UNL     1      -8.422  -9.301   5.532  0.00  0.00    +0.001 C 
ATOM     32  C   UNL     1      -9.833  -8.870   5.150  0.00  0.00    +0.000 C 
ENDBRANCH  26  27
BRANCH  14   2
ATOM      2  O   UNL     1      -2.839 -11.624  17.031  0.00  0.00    -0.391 OA
ATOM     35  H   UNL     1      -2.920 -12.583  16.893  0.00  0.00    +0.210 HD
ENDBRANCH  14   2
BRANCH  11  19
ATOM     19  C   UNL     1      -2.671 -12.369  14.297  0.00  0.00    +0.165 C 
BRANCH  19   3
ATOM      3  O   UNL     1      -1.300 -12.420  14.622  0.00  0.00    -0.394 OA
ATOM     36  H   UNL     1      -0.824 -12.715  13.828  0.00  0.00    +0.209 HD
ENDBRANCH  19   3
ENDBRANCH  11  19
BRANCH  12  22
ATOM     22  C   UNL     1      -8.227 -10.408  13.073  0.00  0.00    +0.106 C 
BRANCH  22  23
ATOM      4  O   UNL     1      -9.371 -11.149  15.072  0.00  0.00    -0.276 OA
ATOM      7  N   UNL     1      -9.040  -8.877  14.716  0.00  0.00    -0.313 N 
ATOM     23  C   UNL     1      -8.941 -10.222  14.392  0.00  0.00    +0.214 C 
ATOM     37  H   UNL     1      -8.596  -8.191  14.111  0.00  0.00    +0.149 HD
BRANCH   7  25
ATOM     25  C   UNL     1      -9.678  -8.400  15.922  0.00  0.00    +0.067 C 
ATOM     33  C   UNL     1     -10.115  -6.951  15.753  0.00  0.00    +0.027 C 
ATOM     34  C   UNL     1      -8.747  -8.559  17.118  0.00  0.00    +0.027 C 
ENDBRANCH   7  25
ENDBRANCH  22  23
ENDBRANCH  12  22
TORSDOF 7
ENDMDL
MODEL 5
REMARK VINA RESULT:      -6.2      5.225      8.233
REMARK  Name = 7135019
REMARK  11 active torsions:
REMARK  status: ('A' for Active; 'I' for Inactive)
REMARK    1  A    between atoms: O_2  and  C_14
REMARK    2  A    between atoms: O_3  and  C_19
REMARK    3  A    between atoms: N_7  and  C_25
REMARK    4  A    between atoms: C_9  and  C_17
REMARK    5  A    between atoms: C_11  and  C_19
REMARK    6  A    between atoms: C_11  and  C_20
REMARK    7  A    between atoms: C_12  and  C_22
REMARK    8  A    between atoms: C_22  and  C_23
REMARK    9  A    between atoms: C_25  and  C_33
REMARK   10  A    between atoms: C_25  and  C_34
REMARK   11  A    between atoms: C_26  and  C_27
REMARK                            x       y       z     vdW  Elec       q    Type
REMARK                         _______ _______ _______ _____ _____    ______ ____
ROOT
ATOM      1  S   UNL     1      11.274   3.955   2.291  0.00  0.00    -0.057 S 
ATOM      5  O   UNL     1       9.834   5.382  -1.913  0.00  0.00    -0.275 OA
ATOM      6  N   UNL     1      10.162   5.901   0.997  0.00  0.00    -0.229 NA
ATOM      8  N   UNL     1      10.778   3.953  -0.284  0.00  0.00    -0.264 N 
ATOM      9  C   UNL     1       9.591   7.654   4.382  0.00  0.00    -0.019 C 
ATOM     10  C   UNL     1      10.896   7.010   5.026  0.00  0.00    +0.011 C 
ATOM     11  C   UNL     1      11.152   7.290   6.557  0.00  0.00    +0.021 C 
ATOM     12  C   UNL     1       9.758   7.624   2.793  0.00  0.00    +0.054 C 
ATOM     13  C   UNL     1       9.469   9.133   4.833  0.00  0.00    +0.010 C 
ATOM     14  C   UNL     1      10.945   8.804   6.843  0.00  0.00    +0.123 C 
ATOM     15  C   UNL     1      11.047   5.513   4.628  0.00  0.00    +0.049 C 
ATOM     16  C   UNL     1       9.609   9.335   6.335  0.00  0.00    +0.032 C 
ATOM     17  C   UNL     1       8.293   6.907   4.778  0.00  0.00    +0.012 C 
ATOM     18  C   UNL     1      10.240   6.275   2.325  0.00  0.00    +0.058 A 
ATOM     20  C   UNL     1      12.633   6.953   6.894  0.00  0.00    +0.016 C 
ATOM     21  C   UNL     1      10.832   5.351   3.161  0.00  0.00    +0.015 A 
ATOM     24  C   UNL     1      10.670   4.694   0.864  0.00  0.00    +0.165 A 
ATOM     26  C   UNL     1      10.365   4.329  -1.573  0.00  0.00    +0.222 C 
ATOM     38  H   UNL     1      11.212   3.043  -0.161  0.00  0.00    +0.157 HD
ENDROOT
BRANCH  26  27
ATOM     27  C   UNL     1      10.649   3.256  -2.583  0.00  0.00    +0.075 C 
ATOM     28  C   UNL     1      12.040   2.665  -2.346  0.00  0.00    +0.013 C 
ATOM     29  C   UNL     1      10.463   3.780  -4.009  0.00  0.00    +0.013 C 
ATOM     30  C   UNL     1      13.168   3.575  -2.829  0.00  0.00    +0.001 C 
ATOM     31  C   UNL     1      11.614   4.665  -4.486  0.00  0.00    +0.001 C 
ATOM     32  C   UNL     1      12.968   3.996  -4.280  0.00  0.00    +0.000 C 
ENDBRANCH  26  27
BRANCH  14   2
ATOM      2  O   UNL     1      11.042   9.070   8.243  0.00  0.00    -0.391 OA
ATOM     35  H   UNL     1      10.140   9.208   8.580  0.00  0.00    +0.210 HD
ENDBRANCH  14   2
BRANCH  11  19
ATOM     19  C   UNL     1      10.302   6.427   7.517  0.00  0.00    +0.165 C 
BRANCH  19   3
ATOM      3  O   UNL     1      11.150   5.456   8.089  0.00  0.00    -0.394 OA
ATOM     36  H   UNL     1      10.707   4.595   7.998  0.00  0.00    +0.209 HD
ENDBRANCH  19   3
ENDBRANCH  11  19
BRANCH  12  22
ATOM     22  C   UNL     1       8.517   8.078   2.013  0.00  0.00    +0.106 C 
BRANCH  22  23
ATOM      4  O   UNL     1       9.057  10.267   1.134  0.00  0.00    -0.276 OA
ATOM      7  N   UNL     1       8.927   8.451  -0.311  0.00  0.00    -0.313 N 
ATOM     23  C   UNL     1       8.863   9.072   0.928  0.00  0.00    +0.214 C 
ATOM     37  H   UNL     1       8.807   7.443  -0.362  0.00  0.00    +0.149 HD
BRANCH   7  25
ATOM     25  C   UNL     1       9.236   9.157  -1.534  0.00  0.00    +0.067 C 
ATOM     33  C   UNL     1       8.326   8.688  -2.661  0.00  0.00    +0.027 C 
ATOM     34  C   UNL     1      10.704   8.977  -1.899  0.00  0.00    +0.027 C 
ENDBRANCH   7  25
ENDBRANCH  22  23
ENDBRANCH  12  22
TORSDOF 7
ENDMDL
MODEL 6
REMARK VINA RESULT:      -6.2      4.865      9.990
REMARK  Name = 7135019
REMARK  11 active torsions:
REMARK  status: ('A' for Active; 'I' for Inactive)
REMARK    1  A    between atoms: O_2  and  C_14
REMARK    2  A    between atoms: O_3  and  C_19
REMARK    3  A    between atoms: N_7  and  C_25
REMARK    4  A    between atoms: C_9  and  C_17
REMARK    5  A    between atoms: C_11  and  C_19
REMARK    6  A    between atoms: C_11  and  C_20
REMARK    7  A    between atoms: C_12  and  C_22
REMARK    8  A    between atoms: C_22  and  C_23
REMARK    9  A    between atoms: C_25  and  C_33
REMARK   10  A    between atoms: C_25  and  C_34
REMARK   11  A    between atoms: C_26  and  C_27
REMARK                            x       y       z     vdW  Elec       q    Type
REMARK                         _______ _______ _______ _____ _____    ______ ____
ROOT
ATOM      1  S   UNL     1       9.851   8.201  -0.199  0.00  0.00    -0.057 S 
ATOM      5  O   UNL     1      12.538   6.164   3.027  0.00  0.00    -0.275 OA
ATOM      6  N   UNL     1      10.114   7.741   2.334  0.00  0.00    -0.229 NA
ATOM      8  N   UNL     1      11.826   6.859   0.884  0.00  0.00    -0.264 N 
ATOM      9  C   UNL     1       7.063  10.020   2.933  0.00  0.00    -0.019 C 
ATOM     10  C   UNL     1       6.404   9.640   1.535  0.00  0.00    +0.011 C 
ATOM     11  C   UNL     1       5.086  10.407   1.132  0.00  0.00    +0.021 C 
ATOM     12  C   UNL     1       8.084   8.857   3.331  0.00  0.00    +0.054 C 
ATOM     13  C   UNL     1       5.960  10.095   4.020  0.00  0.00    +0.010 C 
ATOM     14  C   UNL     1       4.114  10.428   2.345  0.00  0.00    +0.123 C 
ATOM     15  C   UNL     1       7.469   9.582   0.401  0.00  0.00    +0.049 C 
ATOM     16  C   UNL     1       4.760  10.944   3.626  0.00  0.00    +0.032 C 
ATOM     17  C   UNL     1       7.815  11.374   2.895  0.00  0.00    +0.012 C 
ATOM     18  C   UNL     1       8.960   8.483   2.163  0.00  0.00    +0.058 A 
ATOM     20  C   UNL     1       4.379   9.632  -0.016  0.00  0.00    +0.016 C 
ATOM     21  C   UNL     1       8.656   8.802   0.856  0.00  0.00    +0.015 A 
ATOM     24  C   UNL     1      10.669   7.539   1.158  0.00  0.00    +0.165 A 
ATOM     26  C   UNL     1      12.673   6.227   1.810  0.00  0.00    +0.222 C 
ATOM     38  H   UNL     1      12.070   6.818  -0.102  0.00  0.00    +0.157 HD
ENDROOT
BRANCH  26  27
ATOM     27  C   UNL     1      13.848   5.580   1.137  0.00  0.00    +0.075 C 
ATOM     28  C   UNL     1      13.629   5.533  -0.377  0.00  0.00    +0.013 C 
ATOM     29  C   UNL     1      14.136   4.202   1.737  0.00  0.00    +0.013 C 
ATOM     30  C   UNL     1      12.643   4.448  -0.805  0.00  0.00    +0.001 C 
ATOM     31  C   UNL     1      13.157   3.122   1.275  0.00  0.00    +0.001 C 
ATOM     32  C   UNL     1      13.029   3.084  -0.243  0.00  0.00    +0.000 C 
ENDBRANCH  26  27
BRANCH  14   2
ATOM      2  O   UNL     1       2.966  11.226   2.056  0.00  0.00    -0.391 OA
ATOM     35  H   UNL     1       2.677  11.010   1.153  0.00  0.00    +0.210 HD
ENDBRANCH  14   2
BRANCH  11  19
ATOM     19  C   UNL     1       5.318  11.834   0.588  0.00  0.00    +0.165 C 
BRANCH  19   3
ATOM      3  O   UNL     1       4.341  12.085  -0.397  0.00  0.00    -0.394 OA
ATOM     36  H   UNL     1       3.713  12.728  -0.027  0.00  0.00    +0.209 HD
ENDBRANCH  19   3
ENDBRANCH  11  19
BRANCH  12  22
ATOM     22  C   UNL     1       8.916   9.141   4.589  0.00  0.00    +0.106 C 
BRANCH  22  23
ATOM      4  O   UNL     1       7.952   8.191   6.595  0.00  0.00    -0.276 OA
ATOM      7  N   UNL     1       9.531   6.978   5.396  0.00  0.00    -0.313 N 
ATOM     23  C   UNL     1       8.724   8.078   5.646  0.00  0.00    +0.214 C 
ATOM     37  H   UNL     1      10.091   6.962   4.548  0.00  0.00    +0.149 HD
BRANCH   7  25
ATOM     25  C   UNL     1       9.559   5.809   6.246  0.00  0.00    +0.067 C 
ATOM     33  C   UNL     1      10.598   5.978   7.346  0.00  0.00    +0.027 C 
ATOM     34  C   UNL     1       9.827   4.556   5.421  0.00  0.00    +0.027 C 
ENDBRANCH   7  25
ENDBRANCH  22  23
ENDBRANCH  12  22
TORSDOF 7
ENDMDL
MODEL 7
REMARK VINA RESULT:      -6.1     29.490     34.155
REMARK  Name = 7135019
REMARK  11 active torsions:
REMARK  status: ('A' for Active; 'I' for Inactive)
REMARK    1  A    between atoms: O_2  and  C_14
REMARK    2  A    between atoms: O_3  and  C_19
REMARK    3  A    between atoms: N_7  and  C_25
REMARK    4  A    between atoms: C_9  and  C_17
REMARK    5  A    between atoms: C_11  and  C_19
REMARK    6  A    between atoms: C_11  and  C_20
REMARK    7  A    between atoms: C_12  and  C_22
REMARK    8  A    between atoms: C_22  and  C_23
REMARK    9  A    between atoms: C_25  and  C_33
REMARK   10  A    between atoms: C_25  and  C_34
REMARK   11  A    between atoms: C_26  and  C_27
REMARK                            x       y       z     vdW  Elec       q    Type
REMARK                         _______ _______ _______ _____ _____    ______ ____
ROOT
ATOM      1  S   UNL     1     -12.805   5.143  22.426  0.00  0.00    -0.057 S 
ATOM      5  O   UNL     1     -17.227   4.076  23.467  0.00  0.00    -0.275 OA
ATOM      6  N   UNL     1     -15.279   5.660  21.873  0.00  0.00    -0.229 NA
ATOM      8  N   UNL     1     -14.868   4.000  23.573  0.00  0.00    -0.264 N 
ATOM      9  C   UNL     1     -14.038   8.491  19.570  0.00  0.00    -0.019 C 
ATOM     10  C   UNL     1     -12.690   7.721  19.218  0.00  0.00    +0.011 C 
ATOM     11  C   UNL     1     -11.636   8.491  18.332  0.00  0.00    +0.021 C 
ATOM     12  C   UNL     1     -15.107   7.413  20.068  0.00  0.00    +0.054 C 
ATOM     13  C   UNL     1     -14.591   9.173  18.292  0.00  0.00    +0.010 C 
ATOM     14  C   UNL     1     -12.363   9.150  17.126  0.00  0.00    +0.123 C 
ATOM     15  C   UNL     1     -12.076   7.043  20.477  0.00  0.00    +0.049 C 
ATOM     16  C   UNL     1     -13.560   9.999  17.536  0.00  0.00    +0.032 C 
ATOM     17  C   UNL     1     -13.845   9.570  20.665  0.00  0.00    +0.012 C 
ATOM     18  C   UNL     1     -14.496   6.468  21.071  0.00  0.00    +0.058 A 
ATOM     20  C   UNL     1     -10.615   7.469  17.756  0.00  0.00    +0.016 C 
ATOM     21  C   UNL     1     -13.135   6.305  21.225  0.00  0.00    +0.015 A 
ATOM     24  C   UNL     1     -14.495   4.925  22.633  0.00  0.00    +0.165 A 
ATOM     26  C   UNL     1     -16.178   3.638  23.927  0.00  0.00    +0.222 C 
ATOM     38  H   UNL     1     -14.094   3.539  24.043  0.00  0.00    +0.157 HD
ENDROOT
BRANCH  26  27
ATOM     27  C   UNL     1     -16.194   2.586  24.997  0.00  0.00    +0.075 C 
ATOM     28  C   UNL     1     -17.425   1.691  24.837  0.00  0.00    +0.013 C 
ATOM     29  C   UNL     1     -16.097   3.215  26.389  0.00  0.00    +0.013 C 
ATOM     30  C   UNL     1     -18.715   2.355  25.313  0.00  0.00    +0.001 C 
ATOM     31  C   UNL     1     -17.405   3.850  26.861  0.00  0.00    +0.001 C 
ATOM     32  C   UNL     1     -18.581   2.889  26.735  0.00  0.00    +0.000 C 
ENDBRANCH  26  27
BRANCH  14   2
ATOM      2  O   UNL     1     -11.459   9.962  16.376  0.00  0.00    -0.391 OA
ATOM     35  H   UNL     1     -11.908  10.803  16.185  0.00  0.00    +0.210 HD
ENDBRANCH  14   2
BRANCH  11  19
ATOM     19  C   UNL     1     -10.792   9.531  19.102  0.00  0.00    +0.165 C 
BRANCH  19   3
ATOM      3  O   UNL     1      -9.580   9.706  18.402  0.00  0.00    -0.394 OA
ATOM     36  H   UNL     1      -9.575   9.070  17.667  0.00  0.00    +0.209 HD
ENDBRANCH  19   3
ENDBRANCH  11  19
BRANCH  12  22
ATOM     22  C   UNL     1     -16.421   8.011  20.588  0.00  0.00    +0.106 C 
BRANCH  22  23
ATOM      4  O   UNL     1     -18.565   8.189  19.481  0.00  0.00    -0.276 OA
ATOM      7  N   UNL     1     -17.501   6.126  19.593  0.00  0.00    -0.313 N 
ATOM     23  C   UNL     1     -17.620   7.488  19.831  0.00  0.00    +0.214 C 
ATOM     37  H   UNL     1     -16.648   5.651  19.875  0.00  0.00    +0.149 HD
BRANCH   7  25
ATOM     25  C   UNL     1     -18.502   5.356  18.891  0.00  0.00    +0.067 C 
ATOM     33  C   UNL     1     -18.593   3.951  19.470  0.00  0.00    +0.027 C 
ATOM     34  C   UNL     1     -18.198   5.319  17.398  0.00  0.00    +0.027 C 
ENDBRANCH   7  25
ENDBRANCH  22  23
ENDBRANCH  12  22
TORSDOF 7
ENDMDL
MODEL 8
REMARK VINA RESULT:      -6.0     26.128     29.109
REMARK  Name = 7135019
REMARK  11 active torsions:
REMARK  status: ('A' for Active; 'I' for Inactive)
REMARK    1  A    between atoms: O_2  and  C_14
REMARK    2  A    between atoms: O_3  and  C_19
REMARK    3  A    between atoms: N_7  and  C_25
REMARK    4  A    between atoms: C_9  and  C_17
REMARK    5  A    between atoms: C_11  and  C_19
REMARK    6  A    between atoms: C_11  and  C_20
REMARK    7  A    between atoms: C_12  and  C_22
REMARK    8  A    between atoms: C_22  and  C_23
REMARK    9  A    between atoms: C_25  and  C_33
REMARK   10  A    between atoms: C_25  and  C_34
REMARK   11  A    between atoms: C_26  and  C_27
REMARK                            x       y       z     vdW  Elec       q    Type
REMARK                         _______ _______ _______ _____ _____    ______ ____
ROOT
ATOM      1  S   UNL     1      17.120  -5.996  28.512  0.00  0.00    -0.057 S 
ATOM      5  O   UNL     1      18.042  -2.018  26.253  0.00  0.00    -0.275 OA
ATOM      6  N   UNL     1      17.404  -3.438  28.787  0.00  0.00    -0.229 NA
ATOM      8  N   UNL     1      17.682  -4.332  26.565  0.00  0.00    -0.264 N 
ATOM      9  C   UNL     1      16.288  -3.838  32.455  0.00  0.00    -0.019 C 
ATOM     10  C   UNL     1      16.903  -5.302  32.565  0.00  0.00    +0.011 C 
ATOM     11  C   UNL     1      16.641  -6.089  33.907  0.00  0.00    +0.021 C 
ATOM     12  C   UNL     1      17.024  -3.083  31.254  0.00  0.00    +0.054 C 
ATOM     13  C   UNL     1      16.569  -3.060  33.767  0.00  0.00    +0.010 C 
ATOM     14  C   UNL     1      16.925  -5.153  35.115  0.00  0.00    +0.123 C 
ATOM     15  C   UNL     1      16.621  -6.136  31.283  0.00  0.00    +0.049 C 
ATOM     16  C   UNL     1      16.190  -3.820  35.029  0.00  0.00    +0.032 C 
ATOM     17  C   UNL     1      14.760  -3.845  32.200  0.00  0.00    +0.012 C 
ATOM     18  C   UNL     1      17.104  -3.960  30.031  0.00  0.00    +0.058 A 
ATOM     20  C   UNL     1      17.637  -7.280  33.999  0.00  0.00    +0.016 C 
ATOM     21  C   UNL     1      16.938  -5.328  30.069  0.00  0.00    +0.015 A 
ATOM     24  C   UNL     1      17.431  -4.419  27.909  0.00  0.00    +0.165 A 
ATOM     26  C   UNL     1      17.966  -3.167  25.833  0.00  0.00    +0.222 C 
ATOM     38  H   UNL     1      17.660  -5.221  26.072  0.00  0.00    +0.157 HD
ENDROOT
BRANCH  26  27
ATOM     27  C   UNL     1      18.189  -3.465  24.379  0.00  0.00    +0.075 C 
ATOM     28  C   UNL     1      18.714  -2.220  23.661  0.00  0.00    +0.013 C 
ATOM     29  C   UNL     1      16.922  -4.030  23.732  0.00  0.00    +0.013 C 
ATOM     30  C   UNL     1      17.630  -1.177  23.398  0.00  0.00    +0.001 C 
ATOM     31  C   UNL     1      15.859  -2.969  23.450  0.00  0.00    +0.001 C 
ATOM     32  C   UNL     1      16.429  -1.784  22.680  0.00  0.00    +0.000 C 
ENDBRANCH  26  27
BRANCH  14   2
ATOM      2  O   UNL     1      16.573  -5.793  36.342  0.00  0.00    -0.391 OA
ATOM     35  H   UNL     1      15.766  -6.313  36.182  0.00  0.00    +0.210 HD
ENDBRANCH  14   2
BRANCH  11  19
ATOM     19  C   UNL     1      15.233  -6.717  34.016  0.00  0.00    +0.165 C 
BRANCH  19   3
ATOM      3  O   UNL     1      15.354  -7.927  34.728  0.00  0.00    -0.394 OA
ATOM     36  H   UNL     1      15.331  -8.650  34.079  0.00  0.00    +0.209 HD
ENDBRANCH  19   3
ENDBRANCH  11  19
BRANCH  12  22
ATOM     22  C   UNL     1      16.444  -1.702  30.919  0.00  0.00    +0.106 C 
BRANCH  22  23
ATOM      4  O   UNL     1      18.581  -0.573  31.033  0.00  0.00    -0.276 OA
ATOM      7  N   UNL     1      16.713   0.409  32.004  0.00  0.00    -0.313 N 
ATOM     23  C   UNL     1      17.384  -0.584  31.306  0.00  0.00    +0.214 C 
ATOM     37  H   UNL     1      15.707   0.330  32.125  0.00  0.00    +0.149 HD
BRANCH   7  25
ATOM     25  C   UNL     1      17.361   1.601  32.503  0.00  0.00    +0.067 C 
ATOM     33  C   UNL     1      17.508   1.529  34.017  0.00  0.00    +0.027 C 
ATOM     34  C   UNL     1      16.590   2.845  32.082  0.00  0.00    +0.027 C 
ENDBRANCH   7  25
ENDBRANCH  22  23
ENDBRANCH  12  22
TORSDOF 7
ENDMDL
MODEL 9
REMARK VINA RESULT:      -6.0     30.119     33.890
REMARK  Name = 7135019
REMARK  11 active torsions:
REMARK  status: ('A' for Active; 'I' for Inactive)
REMARK    1  A    between atoms: O_2  and  C_14
REMARK    2  A    between atoms: O_3  and  C_19
REMARK    3  A    between atoms: N_7  and  C_25
REMARK    4  A    between atoms: C_9  and  C_17
REMARK    5  A    between atoms: C_11  and  C_19
REMARK    6  A    between atoms: C_11  and  C_20
REMARK    7  A    between atoms: C_12  and  C_22
REMARK    8  A    between atoms: C_22  and  C_23
REMARK    9  A    between atoms: C_25  and  C_33
REMARK   10  A    between atoms: C_25  and  C_34
REMARK   11  A    between atoms: C_26  and  C_27
REMARK                            x       y       z     vdW  Elec       q    Type
REMARK                         _______ _______ _______ _____ _____    ______ ____
ROOT
ATOM      1  S   UNL     1     -10.153 -12.777  20.450  0.00  0.00    -0.057 S 
ATOM      5  O   UNL     1     -13.466  -9.550  19.821  0.00  0.00    -0.275 OA
ATOM      6  N   UNL     1     -10.793 -10.650  19.121  0.00  0.00    -0.229 NA
ATOM      8  N   UNL     1     -12.402 -11.456  20.726  0.00  0.00    -0.264 N 
ATOM      9  C   UNL     1      -7.247 -10.685  17.609  0.00  0.00    -0.019 C 
ATOM     10  C   UNL     1      -7.145 -12.272  17.684  0.00  0.00    +0.011 C 
ATOM     11  C   UNL     1      -5.765 -12.920  17.277  0.00  0.00    +0.021 C 
ATOM     12  C   UNL     1      -8.795 -10.289  17.626  0.00  0.00    +0.054 C 
ATOM     13  C   UNL     1      -6.630 -10.191  16.275  0.00  0.00    +0.010 C 
ATOM     14  C   UNL     1      -5.270 -12.281  15.949  0.00  0.00    +0.123 C 
ATOM     15  C   UNL     1      -7.724 -12.817  19.022  0.00  0.00    +0.049 C 
ATOM     16  C   UNL     1      -5.247 -10.758  15.986  0.00  0.00    +0.032 C 
ATOM     17  C   UNL     1      -6.522  -9.979  18.783  0.00  0.00    +0.012 C 
ATOM     18  C   UNL     1      -9.535 -11.041  18.702  0.00  0.00    +0.058 A 
ATOM     20  C   UNL     1      -5.978 -14.438  17.011  0.00  0.00    +0.016 C 
ATOM     21  C   UNL     1      -9.044 -12.182  19.302  0.00  0.00    +0.015 A 
ATOM     24  C   UNL     1     -11.213 -11.488  20.045  0.00  0.00    +0.165 A 
ATOM     26  C   UNL     1     -13.433 -10.514  20.579  0.00  0.00    +0.222 C 
ATOM     38  H   UNL     1     -12.526 -12.210  21.397  0.00  0.00    +0.157 HD
ENDROOT
BRANCH  26  27
ATOM     27  C   UNL     1     -14.587 -10.804  21.494  0.00  0.00    +0.075 C 
ATOM     28  C   UNL     1     -14.926 -12.296  21.456  0.00  0.00    +0.013 C 
ATOM     29  C   UNL     1     -15.788  -9.915  21.165  0.00  0.00    +0.013 C 
ATOM     30  C   UNL     1     -15.679 -12.707  20.192  0.00  0.00    +0.001 C 
ATOM     31  C   UNL     1     -16.547 -10.358  19.914  0.00  0.00    +0.001 C 
ATOM     32  C   UNL     1     -16.910 -11.837  19.964  0.00  0.00    +0.000 C 
ENDBRANCH  26  27
BRANCH  14   2
ATOM      2  O   UNL     1      -3.963 -12.753  15.621  0.00  0.00    -0.391 OA
ATOM     35  H   UNL     1      -3.522 -13.000  16.451  0.00  0.00    +0.210 HD
ENDBRANCH  14   2
BRANCH  11  19
ATOM     19  C   UNL     1      -4.674 -12.839  18.368  0.00  0.00    +0.165 C 
BRANCH  19   3
ATOM      3  O   UNL     1      -4.061 -14.106  18.459  0.00  0.00    -0.394 OA
ATOM     36  H   UNL     1      -4.158 -14.539  17.594  0.00  0.00    +0.209 HD
ENDBRANCH  19   3
ENDBRANCH  11  19
BRANCH  12  22
ATOM     22  C   UNL     1      -9.066  -8.781  17.706  0.00  0.00    +0.106 C 
BRANCH  22  23
ATOM      4  O   UNL     1      -9.503  -7.982  15.464  0.00  0.00    -0.276 OA
ATOM      7  N   UNL     1     -11.272  -8.272  16.942  0.00  0.00    -0.313 N 
ATOM     23  C   UNL     1      -9.937  -8.301  16.567  0.00  0.00    +0.214 C 
ATOM     37  H   UNL     1     -11.531  -8.613  17.864  0.00  0.00    +0.149 HD
BRANCH   7  25
ATOM     25  C   UNL     1     -12.333  -7.850  16.056  0.00  0.00    +0.067 C 
ATOM     33  C   UNL     1     -12.341  -6.333  15.922  0.00  0.00    +0.027 C 
ATOM     34  C   UNL     1     -13.679  -8.368  16.549  0.00  0.00    +0.027 C 
ENDBRANCH   7  25
ENDBRANCH  22  23
ENDBRANCH  12  22
TORSDOF 7
ENDMDL
MODEL 10
REMARK VINA RESULT:      -6.0     35.949     39.995
REMARK  Name = 7135019
REMARK  11 active torsions:
REMARK  status: ('A' for Active; 'I' for Inactive)
REMARK    1  A    between atoms: O_2  and  C_14
REMARK    2  A    between atoms: O_3  and  C_19
REMARK    3  A    between atoms: N_7  and  C_25
REMARK    4  A    between atoms: C_9  and  C_17
REMARK    5  A    between atoms: C_11  and  C_19
REMARK    6  A    between atoms: C_11  and  C_20
REMARK    7  A    between atoms: C_12  and  C_22
REMARK    8  A    between atoms: C_22  and  C_23
REMARK    9  A    between atoms: C_25  and  C_33
REMARK   10  A    between atoms: C_25  and  C_34
REMARK   11  A    between atoms: C_26  and  C_27
REMARK                            x       y       z     vdW  Elec       q    Type
REMARK                         _______ _______ _______ _____ _____    ______ ____
ROOT
ATOM      1  S   UNL     1     -16.077   2.890  27.660  0.00  0.00    -0.057 S 
ATOM      5  O   UNL     1     -17.949   6.325  25.115  0.00  0.00    -0.275 OA
ATOM      6  N   UNL     1     -16.993   5.309  27.742  0.00  0.00    -0.229 NA
ATOM      8  N   UNL     1     -17.029   4.203  25.599  0.00  0.00    -0.264 N 
ATOM      9  C   UNL     1     -16.565   5.203  31.571  0.00  0.00    -0.019 C 
ATOM     10  C   UNL     1     -15.321   4.214  31.485  0.00  0.00    +0.011 C 
ATOM     11  C   UNL     1     -14.736   3.679  32.848  0.00  0.00    +0.021 C 
ATOM     12  C   UNL     1     -16.704   5.947  30.164  0.00  0.00    +0.054 C 
ATOM     13  C   UNL     1     -16.301   6.271  32.665  0.00  0.00    +0.010 C 
ATOM     14  C   UNL     1     -14.578   4.865  33.840  0.00  0.00    +0.123 C 
ATOM     15  C   UNL     1     -15.551   3.103  30.420  0.00  0.00    +0.049 C 
ATOM     16  C   UNL     1     -15.849   5.691  33.998  0.00  0.00    +0.032 C 
ATOM     17  C   UNL     1     -17.892   4.474  31.901  0.00  0.00    +0.012 C 
ATOM     18  C   UNL     1     -16.597   4.970  29.022  0.00  0.00    +0.058 A 
ATOM     20  C   UNL     1     -13.318   3.093  32.596  0.00  0.00    +0.016 C 
ATOM     21  C   UNL     1     -16.061   3.706  29.155  0.00  0.00    +0.015 A 
ATOM     24  C   UNL     1     -16.772   4.287  26.943  0.00  0.00    +0.165 A 
ATOM     26  C   UNL     1     -17.588   5.201  24.784  0.00  0.00    +0.222 C 
ATOM     38  H   UNL     1     -16.772   3.317  25.173  0.00  0.00    +0.157 HD
ENDROOT
BRANCH  26  27
ATOM     27  C   UNL     1     -17.717   4.747  23.359  0.00  0.00    +0.075 C 
ATOM     28  C   UNL     1     -16.508   3.896  22.966  0.00  0.00    +0.013 C 
ATOM     29  C   UNL     1     -17.934   5.936  22.420  0.00  0.00    +0.013 C 
ATOM     30  C   UNL     1     -15.251   4.724  22.706  0.00  0.00    +0.001 C 
ATOM     31  C   UNL     1     -16.661   6.736  22.149  0.00  0.00    +0.001 C 
ATOM     32  C   UNL     1     -15.512   5.841  21.702  0.00  0.00    +0.000 C 
ENDBRANCH  26  27
BRANCH  14   2
ATOM      2  O   UNL     1     -14.173   4.395  35.126  0.00  0.00    -0.391 OA
ATOM     35  H   UNL     1     -13.262   4.700  35.278  0.00  0.00    +0.210 HD
ENDBRANCH  14   2
BRANCH  11  19
ATOM     19  C   UNL     1     -15.551   2.532  33.487  0.00  0.00    +0.165 C 
BRANCH  19   3
ATOM      3  O   UNL     1     -14.660   1.734  34.235  0.00  0.00    -0.394 OA
ATOM     36  H   UNL     1     -13.865   1.601  33.692  0.00  0.00    +0.209 HD
ENDBRANCH  19   3
ENDBRANCH  11  19
BRANCH  12  22
ATOM     22  C   UNL     1     -17.949   6.834  30.031  0.00  0.00    +0.106 C 
BRANCH  22  23
ATOM      4  O   UNL     1     -17.687   9.181  30.557  0.00  0.00    -0.276 OA
ATOM      7  N   UNL     1     -17.150   8.416  28.429  0.00  0.00    -0.313 N 
ATOM     23  C   UNL     1     -17.592   8.272  29.736  0.00  0.00    +0.214 C 
ATOM     37  H   UNL     1     -17.053   7.587  27.849  0.00  0.00    +0.149 HD
BRANCH   7  25
ATOM     25  C   UNL     1     -16.742   9.684  27.868  0.00  0.00    +0.067 C 
ATOM     33  C   UNL     1     -16.969   9.694  26.362  0.00  0.00    +0.027 C 
ATOM     34  C   UNL     1     -15.286   9.976  28.208  0.00  0.00    +0.027 C 
ENDBRANCH   7  25
ENDBRANCH  22  23
ENDBRANCH  12  22
TORSDOF 7
ENDMDL
