MODEL 1
REMARK VINA RESULT:      -6.8      0.000      0.000
REMARK  Name = 45783474
REMARK  9 active torsions:
REMARK  status: ('A' for Active; 'I' for Inactive)
REMARK    1  A    between atoms: O_2  and  C_27
REMARK    2  A    between atoms: O_2  and  C_28
REMARK    3  A    between atoms: N_3  and  C_9
REMARK    4  A    between atoms: N_7  and  C_25
REMARK    5  A    between atoms: N_7  and  C_26
REMARK    6  A    between atoms: C_8  and  C_9
REMARK    7  A    between atoms: C_10  and  C_19
REMARK    8  A    between atoms: C_20  and  C_21
REMARK    9  A    between atoms: C_26  and  C_27
REMARK                            x       y       z     vdW  Elec       q    Type
REMARK                         _______ _______ _______ _____ _____    ______ ____
ROOT
ATOM      1  O   UNL     1     -16.584   2.973  22.860  0.00  0.00    -0.336 OA
ATOM      4  N   UNL     1     -16.299   4.247  24.680  0.00  0.00    -0.190 NA
ATOM      5  N   UNL     1     -16.557   2.094  23.951  0.00  0.00    -0.056 NA
ATOM     19  C   UNL     1     -16.425   4.219  23.378  0.00  0.00    +0.245 A 
ATOM     20  C   UNL     1     -16.386   2.920  24.987  0.00  0.00    +0.204 A 
ENDROOT
BRANCH  20  21
ATOM      6  N   UNL     1     -16.524   0.634  27.916  0.00  0.00    -0.240 NA
ATOM     21  C   UNL     1     -16.297   2.453  26.340  0.00  0.00    +0.041 A 
ATOM     22  C   UNL     1     -15.917   3.307  27.370  0.00  0.00    +0.016 A 
ATOM     23  C   UNL     1     -16.588   1.137  26.663  0.00  0.00    +0.124 A 
ATOM     24  C   UNL     1     -15.840   2.825  28.673  0.00  0.00    +0.044 A 
ATOM     25  C   UNL     1     -16.150   1.493  28.891  0.00  0.00    +0.119 A 
BRANCH  25   7
ATOM      7  N   UNL     1     -16.066   1.017  30.223  0.00  0.00    -0.327 N 
ATOM     29  H   UNL     1     -16.919   0.641  30.622  0.00  0.00    +0.148 HD
BRANCH   7  26
ATOM     26  C   UNL     1     -14.859   1.059  30.981  0.00  0.00    +0.131 C 
BRANCH  26  27
ATOM     27  C   UNL     1     -13.721   0.451  30.179  0.00  0.00    +0.178 C 
BRANCH  27   2
ATOM      2  O   UNL     1     -14.121  -0.819  29.678  0.00  0.00    -0.381 OA
ATOM     28  C   UNL     1     -13.020  -1.537  29.138  0.00  0.00    +0.194 C 
ENDBRANCH  27   2
ENDBRANCH  26  27
ENDBRANCH   7  26
ENDBRANCH  25   7
ENDBRANCH  20  21
BRANCH  19  10
ATOM      3  N   UNL     1     -15.247   5.338  21.493  0.00  0.00    -0.291 NA
ATOM     10  C   UNL     1     -16.421   5.365  22.388  0.00  0.00    +0.146 C 
ATOM     13  C   UNL     1     -15.670   5.958  20.237  0.00  0.00    +0.085 C 
ATOM     14  C   UNL     1     -17.636   5.336  21.441  0.00  0.00    +0.030 C 
ATOM     15  C   UNL     1     -17.047   5.356  20.038  0.00  0.00    +0.017 C 
BRANCH   3   9
ATOM      9  C   UNL     1     -14.076   5.994  22.061  0.00  0.00    +0.088 C 
BRANCH   9   8
ATOM      8  C   UNL     1     -13.465   6.977  21.064  0.00  0.00    +0.003 C 
ATOM     11  C   UNL     1     -13.570   8.415  21.587  0.00  0.00    +0.005 C 
ATOM     12  C   UNL     1     -12.005   6.609  20.766  0.00  0.00    +0.005 C 
ATOM     16  C   UNL     1     -12.917   9.412  20.632  0.00  0.00    +0.000 C 
ATOM     17  C   UNL     1     -11.356   7.607  19.811  0.00  0.00    +0.000 C 
ATOM     18  C   UNL     1     -11.469   9.037  20.331  0.00  0.00    +0.000 C 
ENDBRANCH   9   8
ENDBRANCH   3   9
ENDBRANCH  19  10
TORSDOF 8
ENDMDL
MODEL 2
REMARK VINA RESULT:      -6.7     29.123     32.297
REMARK  Name = 45783474
REMARK  9 active torsions:
REMARK  status: ('A' for Active; 'I' for Inactive)
REMARK    1  A    between atoms: O_2  and  C_27
REMARK    2  A    between atoms: O_2  and  C_28
REMARK    3  A    between atoms: N_3  and  C_9
REMARK    4  A    between atoms: N_7  and  C_25
REMARK    5  A    between atoms: N_7  and  C_26
REMARK    6  A    between atoms: C_8  and  C_9
REMARK    7  A    between atoms: C_10  and  C_19
REMARK    8  A    between atoms: C_20  and  C_21
REMARK    9  A    between atoms: C_26  and  C_27
REMARK                            x       y       z     vdW  Elec       q    Type
REMARK                         _______ _______ _______ _____ _____    ______ ____
ROOT
ATOM      1  O   UNL     1      15.196   8.852  19.714  0.00  0.00    -0.336 OA
ATOM      4  N   UNL     1      15.987   6.820  19.202  0.00  0.00    -0.190 NA
ATOM      5  N   UNL     1      16.381   8.699  20.444  0.00  0.00    -0.056 NA
ATOM     19  C   UNL     1      15.037   7.700  19.010  0.00  0.00    +0.245 A 
ATOM     20  C   UNL     1      16.788   7.478  20.089  0.00  0.00    +0.204 A 
ENDROOT
BRANCH  20  21
ATOM      6  N   UNL     1      19.719   6.855  22.290  0.00  0.00    -0.240 NA
ATOM     21  C   UNL     1      17.989   6.884  20.603  0.00  0.00    +0.041 A 
ATOM     22  C   UNL     1      18.587   5.806  19.961  0.00  0.00    +0.016 A 
ATOM     23  C   UNL     1      18.589   7.368  21.754  0.00  0.00    +0.124 A 
ATOM     24  C   UNL     1      19.751   5.251  20.482  0.00  0.00    +0.044 A 
ATOM     25  C   UNL     1      20.272   5.807  21.638  0.00  0.00    +0.119 A 
BRANCH  25   7
ATOM      7  N   UNL     1      21.458   5.231  22.158  0.00  0.00    -0.327 N 
ATOM     29  H   UNL     1      21.927   5.749  22.893  0.00  0.00    +0.148 HD
BRANCH   7  26
ATOM     26  C   UNL     1      21.983   3.992  21.685  0.00  0.00    +0.131 C 
BRANCH  26  27
ATOM     27  C   UNL     1      22.619   3.225  22.832  0.00  0.00    +0.178 C 
BRANCH  27   2
ATOM      2  O   UNL     1      23.553   2.287  22.314  0.00  0.00    -0.381 OA
ATOM     28  C   UNL     1      23.522   2.250  20.894  0.00  0.00    +0.194 C 
ENDBRANCH  27   2
ENDBRANCH  26  27
ENDBRANCH   7  26
ENDBRANCH  25   7
ENDBRANCH  20  21
BRANCH  19  10
ATOM      3  N   UNL     1      12.729   8.515  18.566  0.00  0.00    -0.291 NA
ATOM     10  C   UNL     1      13.811   7.613  18.126  0.00  0.00    +0.146 C 
ATOM     13  C   UNL     1      11.979   8.878  17.363  0.00  0.00    +0.085 C 
ATOM     14  C   UNL     1      14.099   8.027  16.670  0.00  0.00    +0.030 C 
ATOM     15  C   UNL     1      13.090   9.124  16.362  0.00  0.00    +0.017 C 
BRANCH   3   9
ATOM      9  C   UNL     1      11.873   7.930  19.590  0.00  0.00    +0.088 C 
BRANCH   9   8
ATOM      8  C   UNL     1      11.295   9.011  20.500  0.00  0.00    +0.003 C 
ATOM     11  C   UNL     1      11.071   8.465  21.916  0.00  0.00    +0.005 C 
ATOM     12  C   UNL     1      12.210  10.243  20.528  0.00  0.00    +0.005 C 
ATOM     16  C   UNL     1      10.543   9.544  22.860  0.00  0.00    +0.000 C 
ATOM     17  C   UNL     1      11.680  11.318  21.472  0.00  0.00    +0.000 C 
ATOM     18  C   UNL     1      11.451  10.769  22.878  0.00  0.00    +0.000 C 
ENDBRANCH   9   8
ENDBRANCH   3   9
ENDBRANCH  19  10
TORSDOF 8
ENDMDL
MODEL 3
REMARK VINA RESULT:      -6.5     16.243     18.426
REMARK  Name = 45783474
REMARK  9 active torsions:
REMARK  status: ('A' for Active; 'I' for Inactive)
REMARK    1  A    between atoms: O_2  and  C_27
REMARK    2  A    between atoms: O_2  and  C_28
REMARK    3  A    between atoms: N_3  and  C_9
REMARK    4  A    between atoms: N_7  and  C_25
REMARK    5  A    between atoms: N_7  and  C_26
REMARK    6  A    between atoms: C_8  and  C_9
REMARK    7  A    between atoms: C_10  and  C_19
REMARK    8  A    between atoms: C_20  and  C_21
REMARK    9  A    between atoms: C_26  and  C_27
REMARK                            x       y       z     vdW  Elec       q    Type
REMARK                         _______ _______ _______ _____ _____    ______ ____
ROOT
ATOM      1  O   UNL     1      -9.331 -11.066  20.108  0.00  0.00    -0.336 OA
ATOM      4  N   UNL     1      -8.583 -10.154  18.204  0.00  0.00    -0.190 NA
ATOM      5  N   UNL     1      -7.977 -11.413  20.015  0.00  0.00    -0.056 NA
ATOM     19  C   UNL     1      -9.606 -10.326  19.001  0.00  0.00    +0.245 A 
ATOM     20  C   UNL     1      -7.606 -10.839  18.867  0.00  0.00    +0.204 A 
ENDROOT
BRANCH  20  21
ATOM      6  N   UNL     1      -4.656 -10.297  16.670  0.00  0.00    -0.240 NA
ATOM     21  C   UNL     1      -6.270 -10.932  18.353  0.00  0.00    +0.041 A 
ATOM     22  C   UNL     1      -5.310 -11.709  18.991  0.00  0.00    +0.016 A 
ATOM     23  C   UNL     1      -5.897 -10.251  17.206  0.00  0.00    +0.124 A 
ATOM     24  C   UNL     1      -4.022 -11.781  18.470  0.00  0.00    +0.044 A 
ATOM     25  C   UNL     1      -3.749 -11.062  17.318  0.00  0.00    +0.119 A 
BRANCH  25   7
ATOM      7  N   UNL     1      -2.433 -11.144  16.799  0.00  0.00    -0.327 N 
ATOM     29  H   UNL     1      -1.732 -11.551  17.409  0.00  0.00    +0.148 HD
BRANCH   7  26
ATOM     26  C   UNL     1      -2.089 -10.681  15.495  0.00  0.00    +0.131 C 
BRANCH  26  27
ATOM     27  C   UNL     1      -2.195 -11.820  14.495  0.00  0.00    +0.178 C 
BRANCH  27   2
ATOM      2  O   UNL     1      -3.401 -11.688  13.753  0.00  0.00    -0.381 OA
ATOM     28  C   UNL     1      -3.500 -10.408  13.142  0.00  0.00    +0.194 C 
ENDBRANCH  27   2
ENDBRANCH  26  27
ENDBRANCH   7  26
ENDBRANCH  25   7
ENDBRANCH  20  21
BRANCH  19  10
ATOM      3  N   UNL     1     -11.785 -10.532  17.818  0.00  0.00    -0.291 NA
ATOM     10  C   UNL     1     -11.027  -9.820  18.864  0.00  0.00    +0.146 C 
ATOM     13  C   UNL     1     -13.188 -10.502  18.231  0.00  0.00    +0.085 C 
ATOM     14  C   UNL     1     -11.853 -10.016  20.149  0.00  0.00    +0.030 C 
ATOM     15  C   UNL     1     -13.085 -10.796  19.714  0.00  0.00    +0.017 C 
BRANCH   3   9
ATOM      9  C   UNL     1     -11.593  -9.972  16.486  0.00  0.00    +0.088 C 
BRANCH   9   8
ATOM      8  C   UNL     1     -11.755  -8.453  16.506  0.00  0.00    +0.003 C 
ATOM     11  C   UNL     1     -10.537  -7.769  15.873  0.00  0.00    +0.005 C 
ATOM     12  C   UNL     1     -13.049  -8.036  15.793  0.00  0.00    +0.005 C 
ATOM     16  C   UNL     1     -10.700  -6.251  15.833  0.00  0.00    +0.000 C 
ATOM     17  C   UNL     1     -13.207  -6.519  15.754  0.00  0.00    +0.000 C 
ATOM     18  C   UNL     1     -11.991  -5.842  15.130  0.00  0.00    +0.000 C 
ENDBRANCH   9   8
ENDBRANCH   3   9
ENDBRANCH  19  10
TORSDOF 8
ENDMDL
MODEL 4
REMARK VINA RESULT:      -6.4     29.632     32.764
REMARK  Name = 45783474
REMARK  9 active torsions:
REMARK  status: ('A' for Active; 'I' for Inactive)
REMARK    1  A    between atoms: O_2  and  C_27
REMARK    2  A    between atoms: O_2  and  C_28
REMARK    3  A    between atoms: N_3  and  C_9
REMARK    4  A    between atoms: N_7  and  C_25
REMARK    5  A    between atoms: N_7  and  C_26
REMARK    6  A    between atoms: C_8  and  C_9
REMARK    7  A    between atoms: C_10  and  C_19
REMARK    8  A    between atoms: C_20  and  C_21
REMARK    9  A    between atoms: C_26  and  C_27
REMARK                            x       y       z     vdW  Elec       q    Type
REMARK                         _______ _______ _______ _____ _____    ______ ____
ROOT
ATOM      1  O   UNL     1      14.626   6.739  19.563  0.00  0.00    -0.336 OA
ATOM      4  N   UNL     1      15.888   7.582  21.210  0.00  0.00    -0.190 NA
ATOM      5  N   UNL     1      15.900   6.177  19.405  0.00  0.00    -0.056 NA
ATOM     19  C   UNL     1      14.707   7.554  20.647  0.00  0.00    +0.245 A 
ATOM     20  C   UNL     1      16.587   6.722  20.413  0.00  0.00    +0.204 A 
ENDROOT
BRANCH  20  21
ATOM      6  N   UNL     1      19.919   5.096  20.131  0.00  0.00    -0.240 NA
ATOM     21  C   UNL     1      17.971   6.430  20.650  0.00  0.00    +0.041 A 
ATOM     22  C   UNL     1      18.705   7.149  21.587  0.00  0.00    +0.016 A 
ATOM     23  C   UNL     1      18.618   5.422  19.955  0.00  0.00    +0.124 A 
ATOM     24  C   UNL     1      20.045   6.843  21.796  0.00  0.00    +0.044 A 
ATOM     25  C   UNL     1      20.600   5.818  21.049  0.00  0.00    +0.119 A 
BRANCH  25   7
ATOM      7  N   UNL     1      21.967   5.518  21.273  0.00  0.00    -0.327 N 
ATOM     29  H   UNL     1      22.559   6.293  21.551  0.00  0.00    +0.148 HD
BRANCH   7  26
ATOM     26  C   UNL     1      22.503   4.206  21.117  0.00  0.00    +0.131 C 
BRANCH  26  27
ATOM     27  C   UNL     1      23.852   4.110  21.808  0.00  0.00    +0.178 C 
BRANCH  27   2
ATOM      2  O   UNL     1      24.621   3.077  21.205  0.00  0.00    -0.381 OA
ATOM     28  C   UNL     1      23.817   1.952  20.877  0.00  0.00    +0.194 C 
ENDBRANCH  27   2
ENDBRANCH  26  27
ENDBRANCH   7  26
ENDBRANCH  25   7
ENDBRANCH  20  21
BRANCH  19  10
ATOM      3  N   UNL     1      12.750   8.881  19.872  0.00  0.00    -0.291 NA
ATOM     10  C   UNL     1      13.441   8.290  21.034  0.00  0.00    +0.146 C 
ATOM     13  C   UNL     1      11.326   8.908  20.207  0.00  0.00    +0.085 C 
ATOM     14  C   UNL     1      12.394   7.366  21.685  0.00  0.00    +0.030 C 
ATOM     15  C   UNL     1      11.131   7.552  20.856  0.00  0.00    +0.017 C 
BRANCH   3   9
ATOM      9  C   UNL     1      13.254  10.200  19.514  0.00  0.00    +0.088 C 
BRANCH   9   8
ATOM      8  C   UNL     1      13.296  10.375  17.997  0.00  0.00    +0.003 C 
ATOM     11  C   UNL     1      14.213  11.541  17.610  0.00  0.00    +0.005 C 
ATOM     12  C   UNL     1      13.747   9.076  17.314  0.00  0.00    +0.005 C 
ATOM     16  C   UNL     1      14.313  11.702  16.094  0.00  0.00    +0.000 C 
ATOM     17  C   UNL     1      13.846   9.240  15.800  0.00  0.00    +0.000 C 
ATOM     18  C   UNL     1      14.753  10.407  15.419  0.00  0.00    +0.000 C 
ENDBRANCH   9   8
ENDBRANCH   3   9
ENDBRANCH  19  10
TORSDOF 8
ENDMDL
MODEL 5
REMARK VINA RESULT:      -6.3     17.955     19.813
REMARK  Name = 45783474
REMARK  9 active torsions:
REMARK  status: ('A' for Active; 'I' for Inactive)
REMARK    1  A    between atoms: O_2  and  C_27
REMARK    2  A    between atoms: O_2  and  C_28
REMARK    3  A    between atoms: N_3  and  C_9
REMARK    4  A    between atoms: N_7  and  C_25
REMARK    5  A    between atoms: N_7  and  C_26
REMARK    6  A    between atoms: C_8  and  C_9
REMARK    7  A    between atoms: C_10  and  C_19
REMARK    8  A    between atoms: C_20  and  C_21
REMARK    9  A    between atoms: C_26  and  C_27
REMARK                            x       y       z     vdW  Elec       q    Type
REMARK                         _______ _______ _______ _____ _____    ______ ____
ROOT
ATOM      1  O   UNL     1      -5.150 -11.980  16.524  0.00  0.00    -0.336 OA
ATOM      4  N   UNL     1      -5.502 -10.061  15.423  0.00  0.00    -0.190 NA
ATOM      5  N   UNL     1      -6.442 -11.563  16.870  0.00  0.00    -0.056 NA
ATOM     19  C   UNL     1      -4.668 -11.038  15.670  0.00  0.00    +0.245 A 
ATOM     20  C   UNL     1      -6.577 -10.426  16.181  0.00  0.00    +0.204 A 
ENDROOT
BRANCH  20  21
ATOM      6  N   UNL     1      -9.314  -8.302  17.531  0.00  0.00    -0.240 NA
ATOM     21  C   UNL     1      -7.769  -9.631  16.230  0.00  0.00    +0.041 A 
ATOM     22  C   UNL     1      -8.530  -9.409  15.087  0.00  0.00    +0.016 A 
ATOM     23  C   UNL     1      -8.200  -9.060  17.417  0.00  0.00    +0.124 A 
ATOM     24  C   UNL     1      -9.683  -8.634  15.165  0.00  0.00    +0.044 A 
ATOM     25  C   UNL     1     -10.027  -8.108  16.399  0.00  0.00    +0.119 A 
BRANCH  25   7
ATOM      7  N   UNL     1     -11.203  -7.320  16.462  0.00  0.00    -0.327 N 
ATOM     29  H   UNL     1     -11.984  -7.715  16.973  0.00  0.00    +0.148 HD
BRANCH   7  26
ATOM     26  C   UNL     1     -11.305  -6.039  15.843  0.00  0.00    +0.131 C 
BRANCH  26  27
ATOM     27  C   UNL     1     -12.611  -5.936  15.073  0.00  0.00    +0.178 C 
BRANCH  27   2
ATOM      2  O   UNL     1     -12.337  -5.592  13.721  0.00  0.00    -0.381 OA
ATOM     28  C   UNL     1     -12.546  -6.695  12.849  0.00  0.00    +0.194 C 
ENDBRANCH  27   2
ENDBRANCH  26  27
ENDBRANCH   7  26
ENDBRANCH  25   7
ENDBRANCH  20  21
BRANCH  19  10
ATOM      3  N   UNL     1      -2.955 -10.407  13.980  0.00  0.00    -0.291 NA
ATOM     10  C   UNL     1      -3.266 -11.262  15.142  0.00  0.00    +0.146 C 
ATOM     13  C   UNL     1      -1.511 -10.171  14.015  0.00  0.00    +0.085 C 
ATOM     14  C   UNL     1      -2.180 -10.923  16.180  0.00  0.00    +0.030 C 
ATOM     15  C   UNL     1      -1.270  -9.917  15.490  0.00  0.00    +0.017 C 
BRANCH   3   9
ATOM      9  C   UNL     1      -3.386 -10.981  12.712  0.00  0.00    +0.088 C 
BRANCH   9   8
ATOM      8  C   UNL     1      -3.877  -9.892  11.760  0.00  0.00    +0.003 C 
ATOM     11  C   UNL     1      -3.343 -10.132  10.342  0.00  0.00    +0.005 C 
ATOM     12  C   UNL     1      -5.410  -9.820  11.762  0.00  0.00    +0.005 C 
ATOM     16  C   UNL     1      -3.863  -9.085   9.359  0.00  0.00    +0.000 C 
ATOM     17  C   UNL     1      -5.926  -8.774  10.778  0.00  0.00    +0.000 C 
ATOM     18  C   UNL     1      -5.387  -9.011   9.370  0.00  0.00    +0.000 C 
ENDBRANCH   9   8
ENDBRANCH   3   9
ENDBRANCH  19  10
TORSDOF 8
ENDMDL
MODEL 6
REMARK VINA RESULT:      -6.2     17.434     19.128
REMARK  Name = 45783474
REMARK  9 active torsions:
REMARK  status: ('A' for Active; 'I' for Inactive)
REMARK    1  A    between atoms: O_2  and  C_27
REMARK    2  A    between atoms: O_2  and  C_28
REMARK    3  A    between atoms: N_3  and  C_9
REMARK    4  A    between atoms: N_7  and  C_25
REMARK    5  A    between atoms: N_7  and  C_26
REMARK    6  A    between atoms: C_8  and  C_9
REMARK    7  A    between atoms: C_10  and  C_19
REMARK    8  A    between atoms: C_20  and  C_21
REMARK    9  A    between atoms: C_26  and  C_27
REMARK                            x       y       z     vdW  Elec       q    Type
REMARK                         _______ _______ _______ _____ _____    ______ ____
ROOT
ATOM      1  O   UNL     1      -5.677  -9.547  15.695  0.00  0.00    -0.336 OA
ATOM      4  N   UNL     1      -6.056 -11.200  17.158  0.00  0.00    -0.190 NA
ATOM      5  N   UNL     1      -6.879  -9.228  16.341  0.00  0.00    -0.056 NA
ATOM     19  C   UNL     1      -5.261 -10.723  16.235  0.00  0.00    +0.245 A 
ATOM     20  C   UNL     1      -7.035 -10.250  17.188  0.00  0.00    +0.204 A 
ENDROOT
BRANCH  20  21
ATOM      6  N   UNL     1      -9.102 -11.241  20.115  0.00  0.00    -0.240 NA
ATOM     21  C   UNL     1      -8.157 -10.352  18.076  0.00  0.00    +0.041 A 
ATOM     22  C   UNL     1      -9.354  -9.701  17.797  0.00  0.00    +0.016 A 
ATOM     23  C   UNL     1      -8.083 -11.103  19.237  0.00  0.00    +0.124 A 
ATOM     24  C   UNL     1     -10.425  -9.818  18.676  0.00  0.00    +0.044 A 
ATOM     25  C   UNL     1     -10.249 -10.593  19.811  0.00  0.00    +0.119 A 
BRANCH  25   7
ATOM      7  N   UNL     1     -11.349 -10.702  20.697  0.00  0.00    -0.327 N 
ATOM     29  H   UNL     1     -11.247 -11.358  21.464  0.00  0.00    +0.148 HD
BRANCH   7  26
ATOM     26  C   UNL     1     -12.547  -9.945  20.536  0.00  0.00    +0.131 C 
BRANCH  26  27
ATOM     27  C   UNL     1     -13.755 -10.809  20.855  0.00  0.00    +0.178 C 
BRANCH  27   2
ATOM      2  O   UNL     1     -14.622 -10.845  19.728  0.00  0.00    -0.381 OA
ATOM     28  C   UNL     1     -14.379  -9.755  18.849  0.00  0.00    +0.194 C 
ENDBRANCH  27   2
ENDBRANCH  26  27
ENDBRANCH   7  26
ENDBRANCH  25   7
ENDBRANCH  20  21
BRANCH  19  10
ATOM      3  N   UNL     1      -3.490 -10.581  14.493  0.00  0.00    -0.291 NA
ATOM     10  C   UNL     1      -3.963 -11.289  15.699  0.00  0.00    +0.146 C 
ATOM     13  C   UNL     1      -2.031 -10.687  14.497  0.00  0.00    +0.085 C 
ATOM     14  C   UNL     1      -2.802 -11.167  16.705  0.00  0.00    +0.030 C 
ATOM     15  C   UNL     1      -1.701 -10.431  15.954  0.00  0.00    +0.017 C 
BRANCH   3   9
ATOM      9  C   UNL     1      -4.074 -11.095  13.260  0.00  0.00    +0.088 C 
BRANCH   9   8
ATOM      8  C   UNL     1      -4.145 -10.002  12.195  0.00  0.00    +0.003 C 
ATOM     11  C   UNL     1      -3.180 -10.307  11.041  0.00  0.00    +0.005 C 
ATOM     12  C   UNL     1      -5.581  -9.841  11.678  0.00  0.00    +0.005 C 
ATOM     16  C   UNL     1      -3.271  -9.255   9.937  0.00  0.00    +0.000 C 
ATOM     17  C   UNL     1      -5.668  -8.790  10.574  0.00  0.00    +0.000 C 
ATOM     18  C   UNL     1      -4.702  -9.092   9.433  0.00  0.00    +0.000 C 
ENDBRANCH   9   8
ENDBRANCH   3   9
ENDBRANCH  19  10
TORSDOF 8
ENDMDL
MODEL 7
REMARK VINA RESULT:      -6.2      3.097     10.001
REMARK  Name = 45783474
REMARK  9 active torsions:
REMARK  status: ('A' for Active; 'I' for Inactive)
REMARK    1  A    between atoms: O_2  and  C_27
REMARK    2  A    between atoms: O_2  and  C_28
REMARK    3  A    between atoms: N_3  and  C_9
REMARK    4  A    between atoms: N_7  and  C_25
REMARK    5  A    between atoms: N_7  and  C_26
REMARK    6  A    between atoms: C_8  and  C_9
REMARK    7  A    between atoms: C_10  and  C_19
REMARK    8  A    between atoms: C_20  and  C_21
REMARK    9  A    between atoms: C_26  and  C_27
REMARK                            x       y       z     vdW  Elec       q    Type
REMARK                         _______ _______ _______ _____ _____    ______ ____
ROOT
ATOM      1  O   UNL     1     -15.275   4.158  22.477  0.00  0.00    -0.336 OA
ATOM      4  N   UNL     1     -15.251   6.350  22.937  0.00  0.00    -0.190 NA
ATOM      5  N   UNL     1     -14.254   4.710  21.693  0.00  0.00    -0.056 NA
ATOM     19  C   UNL     1     -15.811   5.192  23.178  0.00  0.00    +0.245 A 
ATOM     20  C   UNL     1     -14.302   6.004  22.019  0.00  0.00    +0.204 A 
ENDROOT
BRANCH  20  21
ATOM      6  N   UNL     1     -13.004   9.276  20.820  0.00  0.00    -0.240 NA
ATOM     21  C   UNL     1     -13.418   6.978  21.447  0.00  0.00    +0.041 A 
ATOM     22  C   UNL     1     -12.162   6.615  20.971  0.00  0.00    +0.016 A 
ATOM     23  C   UNL     1     -13.788   8.309  21.349  0.00  0.00    +0.124 A 
ATOM     24  C   UNL     1     -11.327   7.581  20.420  0.00  0.00    +0.044 A 
ATOM     25  C   UNL     1     -11.790   8.885  20.369  0.00  0.00    +0.119 A 
BRANCH  25   7
ATOM      7  N   UNL     1     -10.928   9.858  19.806  0.00  0.00    -0.327 N 
ATOM     29  H   UNL     1     -10.894  10.756  20.275  0.00  0.00    +0.148 HD
BRANCH   7  26
ATOM     26  C   UNL     1     -10.143   9.609  18.641  0.00  0.00    +0.131 C 
BRANCH  26  27
ATOM     27  C   UNL     1     -11.013   9.705  17.399  0.00  0.00    +0.178 C 
BRANCH  27   2
ATOM      2  O   UNL     1     -10.206   9.526  16.242  0.00  0.00    -0.381 OA
ATOM     28  C   UNL     1     -10.693   8.469  15.425  0.00  0.00    +0.194 C 
ENDBRANCH  27   2
ENDBRANCH  26  27
ENDBRANCH   7  26
ENDBRANCH  25   7
ENDBRANCH  20  21
BRANCH  19  10
ATOM      3  N   UNL     1     -16.504   4.689  25.514  0.00  0.00    -0.291 NA
ATOM     10  C   UNL     1     -16.950   4.853  24.117  0.00  0.00    +0.146 C 
ATOM     13  C   UNL     1     -17.637   5.071  26.357  0.00  0.00    +0.085 C 
ATOM     14  C   UNL     1     -18.021   5.958  24.174  0.00  0.00    +0.030 C 
ATOM     15  C   UNL     1     -18.152   6.309  25.649  0.00  0.00    +0.017 C 
BRANCH   3   9
ATOM      9  C   UNL     1     -16.028   3.344  25.812  0.00  0.00    +0.088 C 
BRANCH   9   8
ATOM      8  C   UNL     1     -16.533   2.877  27.176  0.00  0.00    +0.003 C 
ATOM     11  C   UNL     1     -16.928   1.396  27.129  0.00  0.00    +0.005 C 
ATOM     12  C   UNL     1     -15.476   3.127  28.260  0.00  0.00    +0.005 C 
ATOM     16  C   UNL     1     -17.387   0.891  28.496  0.00  0.00    +0.000 C 
ATOM     17  C   UNL     1     -15.937   2.620  29.624  0.00  0.00    +0.000 C 
ATOM     18  C   UNL     1     -16.336   1.149  29.572  0.00  0.00    +0.000 C 
ENDBRANCH   9   8
ENDBRANCH   3   9
ENDBRANCH  19  10
TORSDOF 8
ENDMDL
MODEL 8
REMARK VINA RESULT:      -6.2     16.226     18.985
REMARK  Name = 45783474
REMARK  9 active torsions:
REMARK  status: ('A' for Active; 'I' for Inactive)
REMARK    1  A    between atoms: O_2  and  C_27
REMARK    2  A    between atoms: O_2  and  C_28
REMARK    3  A    between atoms: N_3  and  C_9
REMARK    4  A    between atoms: N_7  and  C_25
REMARK    5  A    between atoms: N_7  and  C_26
REMARK    6  A    between atoms: C_8  and  C_9
REMARK    7  A    between atoms: C_10  and  C_19
REMARK    8  A    between atoms: C_20  and  C_21
REMARK    9  A    between atoms: C_26  and  C_27
REMARK                            x       y       z     vdW  Elec       q    Type
REMARK                         _______ _______ _______ _____ _____    ______ ____
ROOT
ATOM      1  O   UNL     1      -8.937 -10.956  18.377  0.00  0.00    -0.336 OA
ATOM      4  N   UNL     1      -8.170  -9.651  16.726  0.00  0.00    -0.190 NA
ATOM      5  N   UNL     1      -9.986 -10.089  18.046  0.00  0.00    -0.056 NA
ATOM     19  C   UNL     1      -7.906 -10.629  17.554  0.00  0.00    +0.245 A 
ATOM     20  C   UNL     1      -9.457  -9.351  17.065  0.00  0.00    +0.204 A 
ENDROOT
BRANCH  20  21
ATOM      6  N   UNL     1     -11.219  -7.468  14.387  0.00  0.00    -0.240 NA
ATOM     21  C   UNL     1     -10.187  -8.307  16.405  0.00  0.00    +0.041 A 
ATOM     22  C   UNL     1     -10.567  -7.156  17.087  0.00  0.00    +0.016 A 
ATOM     23  C   UNL     1     -10.534  -8.414  15.068  0.00  0.00    +0.124 A 
ATOM     24  C   UNL     1     -11.273  -6.161  16.420  0.00  0.00    +0.044 A 
ATOM     25  C   UNL     1     -11.572  -6.363  15.083  0.00  0.00    +0.119 A 
BRANCH  25   7
ATOM      7  N   UNL     1     -12.293  -5.341  14.418  0.00  0.00    -0.327 N 
ATOM     29  H   UNL     1     -12.550  -4.534  14.976  0.00  0.00    +0.148 HD
BRANCH   7  26
ATOM     26  C   UNL     1     -12.650  -5.423  13.039  0.00  0.00    +0.131 C 
BRANCH  26  27
ATOM     27  C   UNL     1     -12.509  -4.059  12.384  0.00  0.00    +0.178 C 
BRANCH  27   2
ATOM      2  O   UNL     1     -13.455  -3.161  12.952  0.00  0.00    -0.381 OA
ATOM     28  C   UNL     1     -14.760  -3.384  12.435  0.00  0.00    +0.194 C 
ENDBRANCH  27   2
ENDBRANCH  26  27
ENDBRANCH   7  26
ENDBRANCH  25   7
ENDBRANCH  20  21
BRANCH  19  10
ATOM      3  N   UNL     1      -5.425 -10.588  17.748  0.00  0.00    -0.291 NA
ATOM     10  C   UNL     1      -6.634 -11.435  17.714  0.00  0.00    +0.146 C 
ATOM     13  C   UNL     1      -4.444 -11.299  18.569  0.00  0.00    +0.085 C 
ATOM     14  C   UNL     1      -6.594 -12.226  19.036  0.00  0.00    +0.030 C 
ATOM     15  C   UNL     1      -5.299 -11.802  19.715  0.00  0.00    +0.017 C 
BRANCH   3   9
ATOM      9  C   UNL     1      -4.907 -10.273  16.423  0.00  0.00    +0.088 C 
BRANCH   9   8
ATOM      8  C   UNL     1      -3.707 -11.156  16.084  0.00  0.00    +0.003 C 
ATOM     11  C   UNL     1      -4.036 -12.092  14.914  0.00  0.00    +0.005 C 
ATOM     12  C   UNL     1      -2.475 -10.298  15.767  0.00  0.00    +0.005 C 
ATOM     16  C   UNL     1      -2.834 -12.948  14.522  0.00  0.00    +0.000 C 
ATOM     17  C   UNL     1      -1.276 -11.156  15.374  0.00  0.00    +0.000 C 
ATOM     18  C   UNL     1      -1.609 -12.092  14.216  0.00  0.00    +0.000 C 
ENDBRANCH   9   8
ENDBRANCH   3   9
ENDBRANCH  19  10
TORSDOF 8
ENDMDL
MODEL 9
REMARK VINA RESULT:      -6.1     15.000     16.235
REMARK  Name = 45783474
REMARK  9 active torsions:
REMARK  status: ('A' for Active; 'I' for Inactive)
REMARK    1  A    between atoms: O_2  and  C_27
REMARK    2  A    between atoms: O_2  and  C_28
REMARK    3  A    between atoms: N_3  and  C_9
REMARK    4  A    between atoms: N_7  and  C_25
REMARK    5  A    between atoms: N_7  and  C_26
REMARK    6  A    between atoms: C_8  and  C_9
REMARK    7  A    between atoms: C_10  and  C_19
REMARK    8  A    between atoms: C_20  and  C_21
REMARK    9  A    between atoms: C_26  and  C_27
REMARK                            x       y       z     vdW  Elec       q    Type
REMARK                         _______ _______ _______ _____ _____    ______ ____
ROOT
ATOM      1  O   UNL     1     -13.397  -6.255  12.703  0.00  0.00    -0.336 OA
ATOM      4  N   UNL     1     -11.896  -5.312  14.071  0.00  0.00    -0.190 NA
ATOM      5  N   UNL     1     -12.839  -7.301  13.449  0.00  0.00    -0.056 NA
ATOM     19  C   UNL     1     -12.785  -5.120  13.131  0.00  0.00    +0.245 A 
ATOM     20  C   UNL     1     -11.964  -6.666  14.233  0.00  0.00    +0.204 A 
ENDROOT
BRANCH  20  21
ATOM      6  N   UNL     1      -9.651  -9.190  15.684  0.00  0.00    -0.240 NA
ATOM     21  C   UNL     1     -11.141  -7.352  15.186  0.00  0.00    +0.041 A 
ATOM     22  C   UNL     1     -11.020  -6.892  16.493  0.00  0.00    +0.016 A 
ATOM     23  C   UNL     1     -10.442  -8.496  14.835  0.00  0.00    +0.124 A 
ATOM     24  C   UNL     1     -10.215  -7.579  17.395  0.00  0.00    +0.044 A 
ATOM     25  C   UNL     1      -9.558  -8.711  16.945  0.00  0.00    +0.119 A 
BRANCH  25   7
ATOM      7  N   UNL     1      -8.741  -9.400  17.876  0.00  0.00    -0.327 N 
ATOM     29  H   UNL     1      -9.196  -9.724  18.722  0.00  0.00    +0.148 HD
BRANCH   7  26
ATOM     26  C   UNL     1      -7.351  -9.632  17.656  0.00  0.00    +0.131 C 
BRANCH  26  27
ATOM     27  C   UNL     1      -7.081 -11.125  17.570  0.00  0.00    +0.178 C 
BRANCH  27   2
ATOM      2  O   UNL     1      -5.829 -11.415  18.181  0.00  0.00    -0.381 OA
ATOM     28  C   UNL     1      -5.888 -11.256  19.592  0.00  0.00    +0.194 C 
ENDBRANCH  27   2
ENDBRANCH  26  27
ENDBRANCH   7  26
ENDBRANCH  25   7
ENDBRANCH  20  21
BRANCH  19  10
ATOM      3  N   UNL     1     -13.190  -3.907  10.996  0.00  0.00    -0.291 NA
ATOM     10  C   UNL     1     -13.220  -3.829  12.470  0.00  0.00    +0.146 C 
ATOM     13  C   UNL     1     -14.224  -2.991  10.512  0.00  0.00    +0.085 C 
ATOM     14  C   UNL     1     -14.673  -3.447  12.812  0.00  0.00    +0.030 C 
ATOM     15  C   UNL     1     -15.366  -3.272  11.468  0.00  0.00    +0.017 C 
BRANCH   3   9
ATOM      9  C   UNL     1     -11.882  -3.605  10.432  0.00  0.00    +0.088 C 
BRANCH   9   8
ATOM      8  C   UNL     1     -11.286  -4.834   9.748  0.00  0.00    +0.003 C 
ATOM     11  C   UNL     1     -12.336  -5.528   8.871  0.00  0.00    +0.005 C 
ATOM     12  C   UNL     1     -10.051  -4.450   8.921  0.00  0.00    +0.005 C 
ATOM     16  C   UNL     1     -11.750  -6.731   8.135  0.00  0.00    +0.000 C 
ATOM     17  C   UNL     1      -9.469  -5.654   8.186  0.00  0.00    +0.000 C 
ATOM     18  C   UNL     1     -10.518  -6.347   7.322  0.00  0.00    +0.000 C 
ENDBRANCH   9   8
ENDBRANCH   3   9
ENDBRANCH  19  10
TORSDOF 8
ENDMDL
MODEL 10
REMARK VINA RESULT:      -6.1     21.056     22.588
REMARK  Name = 45783474
REMARK  9 active torsions:
REMARK  status: ('A' for Active; 'I' for Inactive)
REMARK    1  A    between atoms: O_2  and  C_27
REMARK    2  A    between atoms: O_2  and  C_28
REMARK    3  A    between atoms: N_3  and  C_9
REMARK    4  A    between atoms: N_7  and  C_25
REMARK    5  A    between atoms: N_7  and  C_26
REMARK    6  A    between atoms: C_8  and  C_9
REMARK    7  A    between atoms: C_10  and  C_19
REMARK    8  A    between atoms: C_20  and  C_21
REMARK    9  A    between atoms: C_26  and  C_27
REMARK                            x       y       z     vdW  Elec       q    Type
REMARK                         _______ _______ _______ _____ _____    ______ ____
ROOT
ATOM      1  O   UNL     1      -8.518  -8.442   9.567  0.00  0.00    -0.336 OA
ATOM      4  N   UNL     1      -6.403  -7.951   9.016  0.00  0.00    -0.190 NA
ATOM      5  N   UNL     1      -7.707  -9.155  10.459  0.00  0.00    -0.056 NA
ATOM     19  C   UNL     1      -7.670  -7.760   8.751  0.00  0.00    +0.245 A 
ATOM     20  C   UNL     1      -6.475  -8.814  10.071  0.00  0.00    +0.204 A 
ENDROOT
BRANCH  20  21
ATOM      6  N   UNL     1      -4.276 -10.330  12.658  0.00  0.00    -0.240 NA
ATOM     21  C   UNL     1      -5.296  -9.318  10.713  0.00  0.00    +0.041 A 
ATOM     22  C   UNL     1      -4.064  -9.297  10.069  0.00  0.00    +0.016 A 
ATOM     23  C   UNL     1      -5.348  -9.840  11.996  0.00  0.00    +0.124 A 
ATOM     24  C   UNL     1      -2.938  -9.793  10.717  0.00  0.00    +0.044 A 
ATOM     25  C   UNL     1      -3.096 -10.293  11.999  0.00  0.00    +0.119 A 
BRANCH  25   7
ATOM      7  N   UNL     1      -1.939 -10.795  12.646  0.00  0.00    -0.327 N 
ATOM     29  H   UNL     1      -1.081 -10.790  12.106  0.00  0.00    +0.148 HD
BRANCH   7  26
ATOM     26  C   UNL     1      -1.960 -11.290  13.984  0.00  0.00    +0.131 C 
BRANCH  26  27
ATOM     27  C   UNL     1      -1.441 -10.228  14.939  0.00  0.00    +0.178 C 
BRANCH  27   2
ATOM      2  O   UNL     1      -2.019 -10.424  16.223  0.00  0.00    -0.381 OA
ATOM     28  C   UNL     1      -3.255 -11.120  16.138  0.00  0.00    +0.194 C 
ENDBRANCH  27   2
ENDBRANCH  26  27
ENDBRANCH   7  26
ENDBRANCH  25   7
ENDBRANCH  20  21
BRANCH  19  10
ATOM      3  N   UNL     1      -8.779  -7.683   6.525  0.00  0.00    -0.291 NA
ATOM     10  C   UNL     1      -8.310  -6.898   7.683  0.00  0.00    +0.146 C 
ATOM     13  C   UNL     1      -9.920  -6.955   5.968  0.00  0.00    +0.085 C 
ATOM     14  C   UNL     1      -9.563  -6.158   8.189  0.00  0.00    +0.030 C 
ATOM     15  C   UNL     1     -10.670  -6.541   7.218  0.00  0.00    +0.017 C 
BRANCH   3   9
ATOM      9  C   UNL     1      -7.740  -7.918   5.531  0.00  0.00    +0.088 C 
BRANCH   9   8
ATOM      8  C   UNL     1      -7.477  -9.414   5.362  0.00  0.00    +0.003 C 
ATOM     11  C   UNL     1      -7.548  -9.812   3.883  0.00  0.00    +0.005 C 
ATOM     12  C   UNL     1      -6.120  -9.797   5.967  0.00  0.00    +0.005 C 
ATOM     16  C   UNL     1      -7.236 -11.294   3.682  0.00  0.00    +0.000 C 
ATOM     17  C   UNL     1      -5.811 -11.278   5.763  0.00  0.00    +0.000 C 
ATOM     18  C   UNL     1      -5.890 -11.673   4.292  0.00  0.00    +0.000 C 
ENDBRANCH   9   8
ENDBRANCH   3   9
ENDBRANCH  19  10
TORSDOF 8
ENDMDL
