MODEL 1
REMARK VINA RESULT:      -6.4      0.000      0.000
REMARK  Name = 75537120
REMARK  3 active torsions:
REMARK  status: ('A' for Active; 'I' for Inactive)
REMARK    1  A    between atoms: N_2  and  C_6
REMARK    2  A    between atoms: N_4  and  C_17
REMARK    3  A    between atoms: C_17  and  C_18
REMARK                            x       y       z     vdW  Elec       q    Type
REMARK                         _______ _______ _______ _____ _____    ______ ____
ROOT
ATOM      1  O   UNL     1      -1.898 -10.767  16.203  0.00  0.00    -0.252 OA
ATOM      2  N   UNL     1      -4.238 -10.748  15.910  0.00  0.00    -0.281 N 
ATOM      3  N   UNL     1      -2.924 -10.898  14.094  0.00  0.00    -0.278 N 
ATOM      4  N   UNL     1      -3.405 -10.378  11.373  0.00  0.00    -0.295 NA
ATOM      5  C   UNL     1      -4.270 -11.038  13.580  0.00  0.00    +0.109 C 
ATOM      7  C   UNL     1      -5.153 -10.705  14.782  0.00  0.00    +0.133 C 
ATOM      8  C   UNL     1      -4.471 -10.133  12.365  0.00  0.00    +0.109 C 
ATOM     11  C   UNL     1      -2.892 -10.804  15.492  0.00  0.00    +0.305 C 
ATOM     12  C   UNL     1      -1.805 -10.972  13.179  0.00  0.00    +0.125 C 
ATOM     13  C   UNL     1      -2.075 -10.100  11.950  0.00  0.00    +0.104 C 
ENDROOT
BRANCH   2   6
ATOM      6  C   UNL     1      -4.693 -10.594  17.270  0.00  0.00    +0.078 C 
ATOM      9  C   UNL     1      -6.194 -10.292  17.308  0.00  0.00    +0.022 C 
ATOM     10  C   UNL     1      -4.354 -11.839  18.094  0.00  0.00    +0.022 C 
ATOM     14  C   UNL     1      -6.708 -10.179  18.741  0.00  0.00    +0.002 C 
ATOM     15  C   UNL     1      -4.872 -11.725  19.525  0.00  0.00    +0.002 C 
ATOM     16  C   UNL     1      -6.366 -11.420  19.561  0.00  0.00    +0.000 C 
ENDBRANCH   2   6
BRANCH   4  17
ATOM     17  C   UNL     1      -3.623  -9.561  10.179  0.00  0.00    +0.119 C 
BRANCH  17  18
ATOM     18  C   UNL     1      -4.290 -10.343   9.079  0.00  0.00    -0.033 A 
ATOM     19  C   UNL     1      -4.954  -9.674   8.051  0.00  0.00    +0.005 A 
ATOM     20  C   UNL     1      -4.243 -11.736   9.088  0.00  0.00    +0.005 A 
ATOM     21  C   UNL     1      -5.572 -10.400   7.032  0.00  0.00    +0.000 A 
ATOM     22  C   UNL     1      -4.860 -12.462   8.069  0.00  0.00    +0.000 A 
ATOM     23  C   UNL     1      -5.524 -11.794   7.041  0.00  0.00    +0.000 A 
ENDBRANCH  17  18
ENDBRANCH   4  17
TORSDOF 3
ENDMDL
MODEL 2
REMARK VINA RESULT:      -6.3      1.883      2.941
REMARK  Name = 75537120
REMARK  3 active torsions:
REMARK  status: ('A' for Active; 'I' for Inactive)
REMARK    1  A    between atoms: N_2  and  C_6
REMARK    2  A    between atoms: N_4  and  C_17
REMARK    3  A    between atoms: C_17  and  C_18
REMARK                            x       y       z     vdW  Elec       q    Type
REMARK                         _______ _______ _______ _____ _____    ______ ____
ROOT
ATOM      1  O   UNL     1      -4.836 -10.626  18.353  0.00  0.00    -0.252 OA
ATOM      2  N   UNL     1      -6.466 -10.248  16.691  0.00  0.00    -0.281 N 
ATOM      3  N   UNL     1      -4.433 -10.970  16.065  0.00  0.00    -0.278 N 
ATOM      4  N   UNL     1      -3.087 -10.898  13.597  0.00  0.00    -0.295 NA
ATOM      5  C   UNL     1      -5.209 -10.964  14.842  0.00  0.00    +0.109 C 
ATOM      7  C   UNL     1      -6.505 -10.258  15.238  0.00  0.00    +0.133 C 
ATOM      8  C   UNL     1      -4.425 -10.285  13.719  0.00  0.00    +0.109 C 
ATOM     11  C   UNL     1      -5.199 -10.620  17.185  0.00  0.00    +0.305 C 
ATOM     12  C   UNL     1      -3.055 -11.414  16.027  0.00  0.00    +0.125 C 
ATOM     13  C   UNL     1      -2.325 -10.757  14.854  0.00  0.00    +0.104 C 
ENDROOT
BRANCH   2   6
ATOM      6  C   UNL     1      -7.570  -9.761  17.482  0.00  0.00    +0.078 C 
ATOM      9  C   UNL     1      -8.483  -8.863  16.642  0.00  0.00    +0.022 C 
ATOM     10  C   UNL     1      -8.347 -10.928  18.096  0.00  0.00    +0.022 C 
ATOM     14  C   UNL     1      -9.688  -8.380  17.446  0.00  0.00    +0.002 C 
ATOM     15  C   UNL     1      -9.553 -10.443  18.895  0.00  0.00    +0.002 C 
ATOM     16  C   UNL     1     -10.460  -9.546  18.059  0.00  0.00    +0.000 C 
ENDBRANCH   2   6
BRANCH   4  17
ATOM     17  C   UNL     1      -2.352 -10.297  12.484  0.00  0.00    +0.119 C 
BRANCH  17  18
ATOM     18  C   UNL     1      -3.090 -10.444  11.180  0.00  0.00    -0.033 A 
ATOM     19  C   UNL     1      -3.399  -9.315  10.422  0.00  0.00    +0.005 A 
ATOM     20  C   UNL     1      -3.465 -11.710  10.731  0.00  0.00    +0.005 A 
ATOM     21  C   UNL     1      -4.083  -9.453   9.214  0.00  0.00    +0.000 A 
ATOM     22  C   UNL     1      -4.149 -11.848   9.523  0.00  0.00    +0.000 A 
ATOM     23  C   UNL     1      -4.457 -10.719   8.764  0.00  0.00    +0.000 A 
ENDBRANCH  17  18
ENDBRANCH   4  17
TORSDOF 3
ENDMDL
MODEL 3
REMARK VINA RESULT:      -6.3     20.955     23.185
REMARK  Name = 75537120
REMARK  3 active torsions:
REMARK  status: ('A' for Active; 'I' for Inactive)
REMARK    1  A    between atoms: N_2  and  C_6
REMARK    2  A    between atoms: N_4  and  C_17
REMARK    3  A    between atoms: C_17  and  C_18
REMARK                            x       y       z     vdW  Elec       q    Type
REMARK                         _______ _______ _______ _____ _____    ______ ____
ROOT
ATOM      1  O   UNL     1     -16.832   4.630  21.140  0.00  0.00    -0.252 OA
ATOM      2  N   UNL     1     -14.914   5.119  22.422  0.00  0.00    -0.281 N 
ATOM      3  N   UNL     1     -16.438   3.699  23.260  0.00  0.00    -0.278 N 
ATOM      4  N   UNL     1     -16.962   2.828  25.883  0.00  0.00    -0.295 NA
ATOM      5  C   UNL     1     -15.356   3.678  24.222  0.00  0.00    +0.109 C 
ATOM      7  C   UNL     1     -14.440   4.811  23.762  0.00  0.00    +0.133 C 
ATOM      8  C   UNL     1     -15.904   3.830  25.641  0.00  0.00    +0.109 C 
ATOM     11  C   UNL     1     -16.148   4.495  22.145  0.00  0.00    +0.305 C 
ATOM     12  C   UNL     1     -17.599   2.861  23.481  0.00  0.00    +0.125 C 
ATOM     13  C   UNL     1     -18.076   2.998  24.929  0.00  0.00    +0.104 C 
ENDROOT
BRANCH   2   6
ATOM      6  C   UNL     1     -14.243   6.076  21.576  0.00  0.00    +0.078 C 
ATOM      9  C   UNL     1     -14.587   7.507  21.998  0.00  0.00    +0.022 C 
ATOM     10  C   UNL     1     -12.731   5.839  21.592  0.00  0.00    +0.022 C 
ATOM     14  C   UNL     1     -13.844   8.537  21.150  0.00  0.00    +0.002 C 
ATOM     15  C   UNL     1     -11.991   6.871  20.746  0.00  0.00    +0.002 C 
ATOM     16  C   UNL     1     -12.338   8.296  21.165  0.00  0.00    +0.000 C 
ENDBRANCH   2   6
BRANCH   4  17
ATOM     17  C   UNL     1     -17.449   2.926  27.259  0.00  0.00    +0.119 C 
BRANCH  17  18
ATOM     18  C   UNL     1     -16.409   2.485  28.254  0.00  0.00    -0.033 A 
ATOM     19  C   UNL     1     -15.664   3.435  28.953  0.00  0.00    +0.005 A 
ATOM     20  C   UNL     1     -16.189   1.126  28.476  0.00  0.00    +0.005 A 
ATOM     21  C   UNL     1     -14.701   3.025  29.875  0.00  0.00    +0.000 A 
ATOM     22  C   UNL     1     -15.226   0.716  29.398  0.00  0.00    +0.000 A 
ATOM     23  C   UNL     1     -14.482   1.666  30.098  0.00  0.00    +0.000 A 
ENDBRANCH  17  18
ENDBRANCH   4  17
TORSDOF 3
ENDMDL
MODEL 4
REMARK VINA RESULT:      -6.2     27.642     29.513
REMARK  Name = 75537120
REMARK  3 active torsions:
REMARK  status: ('A' for Active; 'I' for Inactive)
REMARK    1  A    between atoms: N_2  and  C_6
REMARK    2  A    between atoms: N_4  and  C_17
REMARK    3  A    between atoms: C_17  and  C_18
REMARK                            x       y       z     vdW  Elec       q    Type
REMARK                         _______ _______ _______ _____ _____    ______ ____
ROOT
ATOM      1  O   UNL     1      19.823   7.687  22.966  0.00  0.00    -0.252 OA
ATOM      2  N   UNL     1      19.961   6.059  21.265  0.00  0.00    -0.281 N 
ATOM      3  N   UNL     1      18.238   7.500  21.243  0.00  0.00    -0.278 N 
ATOM      4  N   UNL     1      15.722   7.410  19.990  0.00  0.00    -0.295 NA
ATOM      5  C   UNL     1      18.090   6.739  20.021  0.00  0.00    +0.109 C 
ATOM      7  C   UNL     1      19.122   5.622  20.162  0.00  0.00    +0.133 C 
ATOM      8  C   UNL     1      16.646   6.264  19.862  0.00  0.00    +0.109 C 
ATOM     11  C   UNL     1      19.396   7.154  21.952  0.00  0.00    +0.305 C 
ATOM     12  C   UNL     1      17.290   8.554  21.541  0.00  0.00    +0.125 C 
ATOM     13  C   UNL     1      15.862   8.054  21.311  0.00  0.00    +0.104 C 
ENDROOT
BRANCH   2   6
ATOM      6  C   UNL     1      21.141   5.331  21.663  0.00  0.00    +0.078 C 
ATOM      9  C   UNL     1      21.176   3.951  21.001  0.00  0.00    +0.022 C 
ATOM     10  C   UNL     1      22.402   6.137  21.340  0.00  0.00    +0.022 C 
ATOM     14  C   UNL     1      22.445   3.185  21.366  0.00  0.00    +0.002 C 
ATOM     15  C   UNL     1      23.669   5.367  21.702  0.00  0.00    +0.002 C 
ATOM     16  C   UNL     1      23.700   3.991  21.045  0.00  0.00    +0.000 C 
ENDBRANCH   2   6
BRANCH   4  17
ATOM     17  C   UNL     1      14.341   6.975  19.779  0.00  0.00    +0.119 C 
BRANCH  17  18
ATOM     18  C   UNL     1      13.651   7.797  18.723  0.00  0.00    -0.033 A 
ATOM     19  C   UNL     1      12.263   7.740  18.592  0.00  0.00    +0.005 A 
ATOM     20  C   UNL     1      14.398   8.615  17.877  0.00  0.00    +0.005 A 
ATOM     21  C   UNL     1      11.624   8.502  17.614  0.00  0.00    +0.000 A 
ATOM     22  C   UNL     1      13.759   9.376  16.898  0.00  0.00    +0.000 A 
ATOM     23  C   UNL     1      12.371   9.320  16.767  0.00  0.00    +0.000 A 
ENDBRANCH  17  18
ENDBRANCH   4  17
TORSDOF 3
ENDMDL
MODEL 5
REMARK VINA RESULT:      -6.1     23.451     27.934
REMARK  Name = 75537120
REMARK  3 active torsions:
REMARK  status: ('A' for Active; 'I' for Inactive)
REMARK    1  A    between atoms: N_2  and  C_6
REMARK    2  A    between atoms: N_4  and  C_17
REMARK    3  A    between atoms: C_17  and  C_18
REMARK                            x       y       z     vdW  Elec       q    Type
REMARK                         _______ _______ _______ _____ _____    ______ ____
ROOT
ATOM      1  O   UNL     1     -17.387   4.357  32.563  0.00  0.00    -0.252 OA
ATOM      2  N   UNL     1     -15.199   3.611  32.097  0.00  0.00    -0.281 N 
ATOM      3  N   UNL     1     -15.471   5.620  33.062  0.00  0.00    -0.278 N 
ATOM      4  N   UNL     1     -13.781   7.860  33.258  0.00  0.00    -0.295 NA
ATOM      5  C   UNL     1     -14.037   5.422  33.034  0.00  0.00    +0.109 C 
ATOM      7  C   UNL     1     -13.860   4.171  32.175  0.00  0.00    +0.133 C 
ATOM      8  C   UNL     1     -13.338   6.673  32.500  0.00  0.00    +0.109 C 
ATOM     11  C   UNL     1     -16.173   4.510  32.577  0.00  0.00    +0.305 C 
ATOM     12  C   UNL     1     -16.008   6.829  33.652  0.00  0.00    +0.125 C 
ATOM     13  C   UNL     1     -15.240   8.049  33.136  0.00  0.00    +0.104 C 
ENDROOT
BRANCH   2   6
ATOM      6  C   UNL     1     -15.461   2.346  31.455  0.00  0.00    +0.078 C 
ATOM      9  C   UNL     1     -15.072   2.398  29.975  0.00  0.00    +0.022 C 
ATOM     10  C   UNL     1     -14.733   1.213  32.183  0.00  0.00    +0.022 C 
ATOM     14  C   UNL     1     -15.290   1.051  29.289  0.00  0.00    +0.002 C 
ATOM     15  C   UNL     1     -14.950  -0.131  31.494  0.00  0.00    +0.002 C 
ATOM     16  C   UNL     1     -14.565  -0.076  30.018  0.00  0.00    +0.000 C 
ENDBRANCH   2   6
BRANCH   4  17
ATOM     17  C   UNL     1     -13.072   9.053  32.795  0.00  0.00    +0.119 C 
BRANCH  17  18
ATOM     18  C   UNL     1     -11.813   9.297  33.583  0.00  0.00    -0.033 A 
ATOM     19  C   UNL     1     -10.646   9.693  32.929  0.00  0.00    +0.005 A 
ATOM     20  C   UNL     1     -11.813   9.127  34.967  0.00  0.00    +0.005 A 
ATOM     21  C   UNL     1      -9.480   9.919  33.660  0.00  0.00    +0.000 A 
ATOM     22  C   UNL     1     -10.646   9.353  35.698  0.00  0.00    +0.000 A 
ATOM     23  C   UNL     1      -9.480   9.750  35.044  0.00  0.00    +0.000 A 
ENDBRANCH  17  18
ENDBRANCH   4  17
TORSDOF 3
ENDMDL
MODEL 6
REMARK VINA RESULT:      -6.0      4.704      7.457
REMARK  Name = 75537120
REMARK  3 active torsions:
REMARK  status: ('A' for Active; 'I' for Inactive)
REMARK    1  A    between atoms: N_2  and  C_6
REMARK    2  A    between atoms: N_4  and  C_17
REMARK    3  A    between atoms: C_17  and  C_18
REMARK                            x       y       z     vdW  Elec       q    Type
REMARK                         _______ _______ _______ _____ _____    ______ ____
ROOT
ATOM      1  O   UNL     1     -10.430 -10.123  19.256  0.00  0.00    -0.252 OA
ATOM      2  N   UNL     1      -9.792  -9.010  17.277  0.00  0.00    -0.281 N 
ATOM      3  N   UNL     1      -8.426 -10.581  18.120  0.00  0.00    -0.278 N 
ATOM      4  N   UNL     1      -5.690 -11.104  17.732  0.00  0.00    -0.295 NA
ATOM      5  C   UNL     1      -7.809 -10.199  16.868  0.00  0.00    +0.109 C 
ATOM      7  C   UNL     1      -8.616  -8.980  16.423  0.00  0.00    +0.133 C 
ATOM      8  C   UNL     1      -6.315  -9.943  17.067  0.00  0.00    +0.109 C 
ATOM     11  C   UNL     1      -9.649  -9.933  18.333  0.00  0.00    +0.305 C 
ATOM     12  C   UNL     1      -7.807 -11.611  18.929  0.00  0.00    +0.125 C 
ATOM     13  C   UNL     1      -6.304 -11.349  19.052  0.00  0.00    +0.104 C 
ENDROOT
BRANCH   2   6
ATOM      6  C   UNL     1     -10.881  -8.079  17.111  0.00  0.00    +0.078 C 
ATOM      9  C   UNL     1     -10.469  -6.920  16.199  0.00  0.00    +0.022 C 
ATOM     10  C   UNL     1     -12.123  -8.796  16.576  0.00  0.00    +0.022 C 
ATOM     14  C   UNL     1     -11.625  -5.951  15.965  0.00  0.00    +0.002 C 
ATOM     15  C   UNL     1     -13.276  -7.824  16.340  0.00  0.00    +0.002 C 
ATOM     16  C   UNL     1     -12.863  -6.669  15.434  0.00  0.00    +0.000 C 
ENDBRANCH   2   6
BRANCH   4  17
ATOM     17  C   UNL     1      -4.249 -10.894  17.872  0.00  0.00    +0.119 C 
BRANCH  17  18
ATOM     18  C   UNL     1      -3.505 -11.263  16.616  0.00  0.00    -0.033 A 
ATOM     19  C   UNL     1      -2.270 -10.675  16.338  0.00  0.00    +0.005 A 
ATOM     20  C   UNL     1      -4.050 -12.191  15.730  0.00  0.00    +0.005 A 
ATOM     21  C   UNL     1      -1.582 -11.017  15.174  0.00  0.00    +0.000 A 
ATOM     22  C   UNL     1      -3.361 -12.533  14.566  0.00  0.00    +0.000 A 
ATOM     23  C   UNL     1      -2.127 -11.946  14.288  0.00  0.00    +0.000 A 
ENDBRANCH  17  18
ENDBRANCH   4  17
TORSDOF 3
ENDMDL
MODEL 7
REMARK VINA RESULT:      -5.9     25.804     28.178
REMARK  Name = 75537120
REMARK  3 active torsions:
REMARK  status: ('A' for Active; 'I' for Inactive)
REMARK    1  A    between atoms: N_2  and  C_6
REMARK    2  A    between atoms: N_4  and  C_17
REMARK    3  A    between atoms: C_17  and  C_18
REMARK                            x       y       z     vdW  Elec       q    Type
REMARK                         _______ _______ _______ _____ _____    ______ ____
ROOT
ATOM      1  O   UNL     1      11.401   9.639   5.767  0.00  0.00    -0.252 OA
ATOM      2  N   UNL     1      12.290   7.580   6.497  0.00  0.00    -0.281 N 
ATOM      3  N   UNL     1      13.707   9.210   5.879  0.00  0.00    -0.278 N 
ATOM      4  N   UNL     1      16.409   9.161   5.099  0.00  0.00    -0.295 NA
ATOM      5  C   UNL     1      14.563   8.155   6.380  0.00  0.00    +0.109 C 
ATOM      7  C   UNL     1      13.610   6.977   6.578  0.00  0.00    +0.133 C 
ATOM      8  C   UNL     1      15.711   7.895   5.405  0.00  0.00    +0.109 C 
ATOM     11  C   UNL     1      12.346   8.906   6.019  0.00  0.00    +0.305 C 
ATOM     12  C   UNL     1      14.303  10.443   5.410  0.00  0.00    +0.125 C 
ATOM     13  C   UNL     1      15.485  10.136   4.487  0.00  0.00    +0.104 C 
ENDROOT
BRANCH   2   6
ATOM      6  C   UNL     1      11.087   6.822   6.741  0.00  0.00    +0.078 C 
ATOM      9  C   UNL     1      10.827   5.835   5.600  0.00  0.00    +0.022 C 
ATOM     10  C   UNL     1      11.170   6.104   8.091  0.00  0.00    +0.022 C 
ATOM     14  C   UNL     1       9.588   4.984   5.864  0.00  0.00    +0.002 C 
ATOM     15  C   UNL     1       9.932   5.251   8.351  0.00  0.00    +0.002 C 
ATOM     16  C   UNL     1       9.673   4.271   7.211  0.00  0.00    +0.000 C 
ENDBRANCH   2   6
BRANCH   4  17
ATOM     17  C   UNL     1      17.547   8.913   4.215  0.00  0.00    +0.119 C 
BRANCH  17  18
ATOM     18  C   UNL     1      18.771   8.489   4.983  0.00  0.00    -0.033 A 
ATOM     19  C   UNL     1      19.734   7.685   4.373  0.00  0.00    +0.005 A 
ATOM     20  C   UNL     1      18.941   8.899   6.305  0.00  0.00    +0.005 A 
ATOM     21  C   UNL     1      20.867   7.292   5.086  0.00  0.00    +0.000 A 
ATOM     22  C   UNL     1      20.074   8.507   7.018  0.00  0.00    +0.000 A 
ATOM     23  C   UNL     1      21.038   7.704   6.408  0.00  0.00    +0.000 A 
ENDBRANCH  17  18
ENDBRANCH   4  17
TORSDOF 3
ENDMDL
MODEL 8
REMARK VINA RESULT:      -5.8     28.948     30.918
REMARK  Name = 75537120
REMARK  3 active torsions:
REMARK  status: ('A' for Active; 'I' for Inactive)
REMARK    1  A    between atoms: N_2  and  C_6
REMARK    2  A    between atoms: N_4  and  C_17
REMARK    3  A    between atoms: C_17  and  C_18
REMARK                            x       y       z     vdW  Elec       q    Type
REMARK                         _______ _______ _______ _____ _____    ______ ____
ROOT
ATOM      1  O   UNL     1      23.043   7.217  22.167  0.00  0.00    -0.252 OA
ATOM      2  N   UNL     1      22.162   5.286  21.139  0.00  0.00    -0.281 N 
ATOM      3  N   UNL     1      20.914   7.153  21.177  0.00  0.00    -0.278 N 
ATOM      4  N   UNL     1      18.152   7.580  20.862  0.00  0.00    -0.295 NA
ATOM      5  C   UNL     1      20.146   6.220  20.380  0.00  0.00    +0.109 C 
ATOM      7  C   UNL     1      20.889   4.896  20.555  0.00  0.00    +0.133 C 
ATOM      8  C   UNL     1      18.688   6.203  20.839  0.00  0.00    +0.109 C 
ATOM     11  C   UNL     1      22.153   6.630  21.567  0.00  0.00    +0.305 C 
ATOM     12  C   UNL     1      20.403   8.491  21.389  0.00  0.00    +0.125 C 
ATOM     13  C   UNL     1      18.926   8.431  21.787  0.00  0.00    +0.104 C 
ENDROOT
BRANCH   2   6
ATOM      6  C   UNL     1      23.220   4.334  21.371  0.00  0.00    +0.078 C 
ATOM      9  C   UNL     1      22.657   3.019  21.917  0.00  0.00    +0.022 C 
ATOM     10  C   UNL     1      24.025   4.105  20.089  0.00  0.00    +0.022 C 
ATOM     14  C   UNL     1      23.755   1.977  22.117  0.00  0.00    +0.002 C 
ATOM     15  C   UNL     1      25.120   3.061  20.291  0.00  0.00    +0.002 C 
ATOM     16  C   UNL     1      24.557   1.753  20.839  0.00  0.00    +0.000 C 
ENDBRANCH   2   6
BRANCH   4  17
ATOM     17  C   UNL     1      16.739   7.568  21.240  0.00  0.00    +0.119 C 
BRANCH  17  18
ATOM     18  C   UNL     1      15.847   7.950  20.089  0.00  0.00    -0.033 A 
ATOM     19  C   UNL     1      15.460   9.279  19.918  0.00  0.00    +0.005 A 
ATOM     20  C   UNL     1      15.409   6.975  19.194  0.00  0.00    +0.005 A 
ATOM     21  C   UNL     1      14.633   9.632  18.851  0.00  0.00    +0.000 A 
ATOM     22  C   UNL     1      14.582   7.329  18.127  0.00  0.00    +0.000 A 
ATOM     23  C   UNL     1      14.195   8.657  17.955  0.00  0.00    +0.000 A 
ENDBRANCH  17  18
ENDBRANCH   4  17
TORSDOF 3
ENDMDL
MODEL 9
REMARK VINA RESULT:      -5.8      3.008      7.798
REMARK  Name = 75537120
REMARK  3 active torsions:
REMARK  status: ('A' for Active; 'I' for Inactive)
REMARK    1  A    between atoms: N_2  and  C_6
REMARK    2  A    between atoms: N_4  and  C_17
REMARK    3  A    between atoms: C_17  and  C_18
REMARK                            x       y       z     vdW  Elec       q    Type
REMARK                         _______ _______ _______ _____ _____    ______ ____
ROOT
ATOM      1  O   UNL     1      -3.236 -11.445  16.394  0.00  0.00    -0.252 OA
ATOM      2  N   UNL     1      -4.579 -10.525  14.688  0.00  0.00    -0.281 N 
ATOM      3  N   UNL     1      -5.294 -10.393  16.814  0.00  0.00    -0.278 N 
ATOM      4  N   UNL     1      -7.842  -9.960  17.922  0.00  0.00    -0.295 NA
ATOM      5  C   UNL     1      -6.269  -9.638  16.056  0.00  0.00    +0.109 C 
ATOM      7  C   UNL     1      -5.902  -9.928  14.602  0.00  0.00    +0.133 C 
ATOM      8  C   UNL     1      -7.686 -10.049  16.455  0.00  0.00    +0.109 C 
ATOM     11  C   UNL     1      -4.240 -10.859  16.016  0.00  0.00    +0.305 C 
ATOM     12  C   UNL     1      -5.438 -10.496  18.251  0.00  0.00    +0.125 C 
ATOM     13  C   UNL     1      -6.884 -10.850  18.608  0.00  0.00    +0.104 C 
ENDROOT
BRANCH   2   6
ATOM      6  C   UNL     1      -3.811 -10.855  13.513  0.00  0.00    +0.078 C 
ATOM      9  C   UNL     1      -4.503 -10.335  12.250  0.00  0.00    +0.022 C 
ATOM     10  C   UNL     1      -2.386 -10.310  13.632  0.00  0.00    +0.022 C 
ATOM     14  C   UNL     1      -3.679 -10.626  10.998  0.00  0.00    +0.002 C 
ATOM     15  C   UNL     1      -1.566 -10.599  12.378  0.00  0.00    +0.002 C 
ATOM     16  C   UNL     1      -2.258 -10.083  11.120  0.00  0.00    +0.000 C 
ENDBRANCH   2   6
BRANCH   4  17
ATOM     17  C   UNL     1      -9.213 -10.293  18.308  0.00  0.00    +0.119 C 
BRANCH  17  18
ATOM     18  C   UNL     1     -10.217  -9.388  17.644  0.00  0.00    -0.033 A 
ATOM     19  C   UNL     1     -11.419  -9.910  17.167  0.00  0.00    +0.005 A 
ATOM     20  C   UNL     1      -9.945  -8.027  17.506  0.00  0.00    +0.005 A 
ATOM     21  C   UNL     1     -12.348  -9.071  16.552  0.00  0.00    +0.000 A 
ATOM     22  C   UNL     1     -10.874  -7.188  16.891  0.00  0.00    +0.000 A 
ATOM     23  C   UNL     1     -12.076  -7.710  16.414  0.00  0.00    +0.000 A 
ENDBRANCH  17  18
ENDBRANCH   4  17
TORSDOF 3
ENDMDL
MODEL 10
REMARK VINA RESULT:      -5.8     22.957     24.925
REMARK  Name = 75537120
REMARK  3 active torsions:
REMARK  status: ('A' for Active; 'I' for Inactive)
REMARK    1  A    between atoms: N_2  and  C_6
REMARK    2  A    between atoms: N_4  and  C_17
REMARK    3  A    between atoms: C_17  and  C_18
REMARK                            x       y       z     vdW  Elec       q    Type
REMARK                         _______ _______ _______ _____ _____    ______ ____
ROOT
ATOM      1  O   UNL     1      12.778   7.461   4.458  0.00  0.00    -0.252 OA
ATOM      2  N   UNL     1      11.069   5.906   4.927  0.00  0.00    -0.281 N 
ATOM      3  N   UNL     1      11.999   5.903   2.883  0.00  0.00    -0.278 N 
ATOM      4  N   UNL     1      11.120   4.882   0.414  0.00  0.00    -0.295 NA
ATOM      5  C   UNL     1      11.098   4.770   2.872  0.00  0.00    +0.109 C 
ATOM      7  C   UNL     1      10.310   4.921   4.173  0.00  0.00    +0.133 C 
ATOM      8  C   UNL     1      10.249   4.778   1.602  0.00  0.00    +0.109 C 
ATOM     11  C   UNL     1      12.046   6.538   4.130  0.00  0.00    +0.305 C 
ATOM     12  C   UNL     1      12.795   6.186   1.706  0.00  0.00    +0.125 C 
ATOM     13  C   UNL     1      11.918   6.124   0.453  0.00  0.00    +0.104 C 
ENDROOT
BRANCH   2   6
ATOM      6  C   UNL     1      10.722   6.265   6.280  0.00  0.00    +0.078 C 
ATOM      9  C   UNL     1       9.729   7.430   6.294  0.00  0.00    +0.022 C 
ATOM     10  C   UNL     1      10.167   5.052   7.031  0.00  0.00    +0.022 C 
ATOM     14  C   UNL     1       9.306   7.791   7.716  0.00  0.00    +0.002 C 
ATOM     15  C   UNL     1       9.742   5.415   8.451  0.00  0.00    +0.002 C 
ATOM     16  C   UNL     1       8.756   6.579   8.464  0.00  0.00    +0.000 C 
ENDBRANCH   2   6
BRANCH   4  17
ATOM     17  C   UNL     1      10.320   4.828  -0.810  0.00  0.00    +0.119 C 
BRANCH  17  18
ATOM     18  C   UNL     1      11.049   4.128  -1.925  0.00  0.00    -0.033 A 
ATOM     19  C   UNL     1      11.029   4.661  -3.215  0.00  0.00    +0.005 A 
ATOM     20  C   UNL     1      11.743   2.946  -1.670  0.00  0.00    +0.005 A 
ATOM     21  C   UNL     1      11.704   4.011  -4.248  0.00  0.00    +0.000 A 
ATOM     22  C   UNL     1      12.417   2.296  -2.704  0.00  0.00    +0.000 A 
ATOM     23  C   UNL     1      12.399   2.828  -3.993  0.00  0.00    +0.000 A 
ENDBRANCH  17  18
ENDBRANCH   4  17
TORSDOF 3
ENDMDL
