MODEL 1
REMARK VINA RESULT:      -6.8      0.000      0.000
REMARK  Name = 7049274
REMARK  8 active torsions:
REMARK  status: ('A' for Active; 'I' for Inactive)
REMARK    1  A    between atoms: O_2  and  C_10
REMARK    2  A    between atoms: O_3  and  C_12
REMARK    3  A    between atoms: N_7  and  C_11
REMARK    4  A    between atoms: N_8  and  C_18
REMARK    5  A    between atoms: C_14  and  C_16
REMARK    6  A    between atoms: C_17  and  C_19
REMARK    7  A    between atoms: C_18  and  C_20
REMARK    8  A    between atoms: C_18  and  C_21
REMARK                            x       y       z     vdW  Elec       q    Type
REMARK                         _______ _______ _______ _____ _____    ______ ____
ROOT
ATOM     10  C   UNL     1      12.326   7.200  20.469  0.00  0.00    +0.167 C 
ATOM     11  C   UNL     1      13.376   8.327  20.457  0.00  0.00    +0.128 C 
ATOM     12  C   UNL     1      10.903   7.759  20.595  0.00  0.00    +0.149 C 
ATOM     13  C   UNL     1      10.742   8.651  21.839  0.00  0.00    +0.074 C 
ATOM     14  C   UNL     1      11.939   9.515  22.112  0.00  0.00    +0.015 C 
ATOM     15  C   UNL     1      13.123   9.387  21.494  0.00  0.00    +0.006 C 
ENDROOT
BRANCH  14  16
ATOM      4  O   UNL     1      10.747  10.764  23.705  0.00  0.00    -0.271 OA
ATOM      8  N   UNL     1      12.965  11.327  23.259  0.00  0.00    -0.301 N 
ATOM     16  C   UNL     1      11.806  10.586  23.103  0.00  0.00    +0.240 C 
ATOM     28  H   UNL     1      13.775  11.145  22.677  0.00  0.00    +0.150 HD
BRANCH   8  18
ATOM     18  C   UNL     1      13.075  12.437  24.178  0.00  0.00    +0.156 C 
ATOM     20  C   UNL     1      13.781  13.617  23.528  0.00  0.00    +0.038 C 
BRANCH  18  21
ATOM      6  O   UNL     1      13.609  12.376  26.547  0.00  0.00    -0.274 OA
ATOM      9  N   UNL     1      14.754  10.981  25.126  0.00  0.00    -0.328 N 
ATOM     21  C   UNL     1      13.828  11.961  25.410  0.00  0.00    +0.231 C 
ATOM     29  H   UNL     1      15.316  10.567  25.862  0.00  0.00    +0.145 HD
ATOM     30  H   UNL     1      14.910  10.632  24.185  0.00  0.00    +0.145 HD
ENDBRANCH  18  21
ENDBRANCH   8  18
ENDBRANCH  14  16
BRANCH  11   7
ATOM      5  O   UNL     1      15.029   7.296  18.417  0.00  0.00    -0.270 OA
ATOM      7  N   UNL     1      14.712   7.812  20.634  0.00  0.00    -0.302 N 
ATOM     17  C   UNL     1      15.466   7.318  19.570  0.00  0.00    +0.251 C 
ATOM     25  H   UNL     1      15.079   7.786  21.579  0.00  0.00    +0.150 HD
BRANCH  17  19
ATOM      1  S   UNL     1      17.635   7.645  21.162  0.00  0.00    -0.092 S 
ATOM     19  C   UNL     1      16.822   6.859  19.904  0.00  0.00    +0.074 A 
ATOM     22  C   UNL     1      17.519   5.862  19.317  0.00  0.00    +0.021 A 
ATOM     23  C   UNL     1      18.801   5.720  19.924  0.00  0.00    +0.008 A 
ATOM     24  C   UNL     1      18.994   6.628  20.942  0.00  0.00    +0.046 A 
ENDBRANCH  17  19
ENDBRANCH  11   7
BRANCH  10   2
ATOM      2  O   UNL     1      12.575   6.323  21.569  0.00  0.00    -0.387 OA
ATOM     26  H   UNL     1      12.807   6.874  22.335  0.00  0.00    +0.210 HD
ENDBRANCH  10   2
BRANCH  12   3
ATOM      3  O   UNL     1      10.555   8.488  19.421  0.00  0.00    -0.389 OA
ATOM     27  H   UNL     1       9.650   8.231  19.175  0.00  0.00    +0.210 HD
ENDBRANCH  12   3
TORSDOF 7
ENDMDL
MODEL 2
REMARK VINA RESULT:      -6.4      1.865      2.442
REMARK  Name = 7049274
REMARK  8 active torsions:
REMARK  status: ('A' for Active; 'I' for Inactive)
REMARK    1  A    between atoms: O_2  and  C_10
REMARK    2  A    between atoms: O_3  and  C_12
REMARK    3  A    between atoms: N_7  and  C_11
REMARK    4  A    between atoms: N_8  and  C_18
REMARK    5  A    between atoms: C_14  and  C_16
REMARK    6  A    between atoms: C_17  and  C_19
REMARK    7  A    between atoms: C_18  and  C_20
REMARK    8  A    between atoms: C_18  and  C_21
REMARK                            x       y       z     vdW  Elec       q    Type
REMARK                         _______ _______ _______ _____ _____    ______ ____
ROOT
ATOM     10  C   UNL     1      13.727   6.611  19.712  0.00  0.00    +0.167 C 
ATOM     11  C   UNL     1      14.716   7.751  19.403  0.00  0.00    +0.128 C 
ATOM     12  C   UNL     1      12.290   6.997  19.343  0.00  0.00    +0.149 C 
ATOM     13  C   UNL     1      11.843   8.294  20.041  0.00  0.00    +0.074 C 
ATOM     14  C   UNL     1      12.927   9.331  20.121  0.00  0.00    +0.015 C 
ATOM     15  C   UNL     1      14.216   9.104  19.830  0.00  0.00    +0.006 C 
ENDROOT
BRANCH  14  16
ATOM      4  O   UNL     1      12.616  11.627  19.729  0.00  0.00    -0.271 OA
ATOM      8  N   UNL     1      12.145  10.769  21.845  0.00  0.00    -0.301 N 
ATOM     16  C   UNL     1      12.553  10.690  20.524  0.00  0.00    +0.240 C 
ATOM     28  H   UNL     1      12.178   9.953  22.445  0.00  0.00    +0.150 HD
BRANCH   8  18
ATOM     18  C   UNL     1      11.730  12.004  22.471  0.00  0.00    +0.156 C 
ATOM     20  C   UNL     1      12.933  12.843  22.875  0.00  0.00    +0.038 C 
BRANCH  18  21
ATOM      6  O   UNL     1      11.059  10.676  24.390  0.00  0.00    -0.274 OA
ATOM      9  N   UNL     1       9.890  12.596  23.921  0.00  0.00    -0.328 N 
ATOM     21  C   UNL     1      10.873  11.661  23.679  0.00  0.00    +0.231 C 
ATOM     29  H   UNL     1       9.256  12.493  24.706  0.00  0.00    +0.145 HD
ATOM     30  H   UNL     1       9.761  13.417  23.337  0.00  0.00    +0.145 HD
ENDBRANCH  18  21
ENDBRANCH   8  18
ENDBRANCH  14  16
BRANCH  11   7
ATOM      5  O   UNL     1      16.573   5.778  18.618  0.00  0.00    -0.270 OA
ATOM      7  N   UNL     1      16.004   7.517  20.008  0.00  0.00    -0.302 N 
ATOM     17  C   UNL     1      16.866   6.518  19.559  0.00  0.00    +0.251 C 
ATOM     25  H   UNL     1      16.253   8.090  20.808  0.00  0.00    +0.150 HD
BRANCH  17  19
ATOM      1  S   UNL     1      18.523   7.613  21.405  0.00  0.00    -0.092 S 
ATOM     19  C   UNL     1      18.158   6.425  20.257  0.00  0.00    +0.074 A 
ATOM     22  C   UNL     1      19.115   5.487  20.091  0.00  0.00    +0.021 A 
ATOM     23  C   UNL     1      20.223   5.741  20.951  0.00  0.00    +0.008 A 
ATOM     24  C   UNL     1      20.032   6.868  21.720  0.00  0.00    +0.046 A 
ENDBRANCH  17  19
ENDBRANCH  11   7
BRANCH  10   2
ATOM      2  O   UNL     1      13.776   6.298  21.106  0.00  0.00    -0.387 OA
ATOM     26  H   UNL     1      13.796   5.330  21.188  0.00  0.00    +0.210 HD
ENDBRANCH  10   2
BRANCH  12   3
ATOM      3  O   UNL     1      12.165   7.134  17.929  0.00  0.00    -0.389 OA
ATOM     27  H   UNL     1      13.059   7.252  17.567  0.00  0.00    +0.210 HD
ENDBRANCH  12   3
TORSDOF 7
ENDMDL
MODEL 3
REMARK VINA RESULT:      -6.4      4.249      7.665
REMARK  Name = 7049274
REMARK  8 active torsions:
REMARK  status: ('A' for Active; 'I' for Inactive)
REMARK    1  A    between atoms: O_2  and  C_10
REMARK    2  A    between atoms: O_3  and  C_12
REMARK    3  A    between atoms: N_7  and  C_11
REMARK    4  A    between atoms: N_8  and  C_18
REMARK    5  A    between atoms: C_14  and  C_16
REMARK    6  A    between atoms: C_17  and  C_19
REMARK    7  A    between atoms: C_18  and  C_20
REMARK    8  A    between atoms: C_18  and  C_21
REMARK                            x       y       z     vdW  Elec       q    Type
REMARK                         _______ _______ _______ _____ _____    ______ ____
ROOT
ATOM     10  C   UNL     1      11.900   8.108  20.148  0.00  0.00    +0.167 C 
ATOM     11  C   UNL     1      12.740   9.397  20.070  0.00  0.00    +0.128 C 
ATOM     12  C   UNL     1      12.515   6.983  19.306  0.00  0.00    +0.149 C 
ATOM     13  C   UNL     1      12.713   7.403  17.838  0.00  0.00    +0.074 C 
ATOM     14  C   UNL     1      13.169   8.825  17.682  0.00  0.00    +0.015 C 
ATOM     15  C   UNL     1      13.194   9.727  18.674  0.00  0.00    +0.006 C 
ENDROOT
BRANCH  14  16
ATOM      4  O   UNL     1      13.395   8.595  15.354  0.00  0.00    -0.271 OA
ATOM      8  N   UNL     1      14.354  10.443  16.404  0.00  0.00    -0.301 N 
ATOM     16  C   UNL     1      13.639   9.258  16.362  0.00  0.00    +0.240 C 
ATOM     28  H   UNL     1      14.555  10.892  17.290  0.00  0.00    +0.150 HD
BRANCH   8  18
ATOM     18  C   UNL     1      14.920  11.066  15.229  0.00  0.00    +0.156 C 
ATOM     20  C   UNL     1      16.162  11.870  15.581  0.00  0.00    +0.038 C 
BRANCH  18  21
ATOM      6  O   UNL     1      13.232  11.655  13.584  0.00  0.00    -0.274 OA
ATOM      9  N   UNL     1      13.628  13.106  15.319  0.00  0.00    -0.328 N 
ATOM     21  C   UNL     1      13.855  11.952  14.602  0.00  0.00    +0.231 C 
ATOM     29  H   UNL     1      12.933  13.780  15.016  0.00  0.00    +0.145 HD
ATOM     30  H   UNL     1      14.136  13.329  16.170  0.00  0.00    +0.145 HD
ENDBRANCH  18  21
ENDBRANCH   8  18
ENDBRANCH  14  16
BRANCH  11   7
ATOM      5  O   UNL     1      12.874  10.313  22.734  0.00  0.00    -0.270 OA
ATOM      7  N   UNL     1      12.028  10.529  20.609  0.00  0.00    -0.302 N 
ATOM     17  C   UNL     1      12.149  10.918  21.942  0.00  0.00    +0.251 C 
ATOM     25  H   UNL     1      11.398  11.022  19.985  0.00  0.00    +0.150 HD
BRANCH  17  19
ATOM      1  S   UNL     1      10.905  12.250  23.949  0.00  0.00    -0.092 S 
ATOM     19  C   UNL     1      11.386  12.113  22.333  0.00  0.00    +0.074 A 
ATOM     22  C   UNL     1      11.011  13.142  21.542  0.00  0.00    +0.021 A 
ATOM     23  C   UNL     1      10.283  14.112  22.292  0.00  0.00    +0.008 A 
ATOM     24  C   UNL     1      10.152  13.751  23.615  0.00  0.00    +0.046 A 
ENDBRANCH  17  19
ENDBRANCH  11   7
BRANCH  10   2
ATOM      2  O   UNL     1      10.578   8.367  19.672  0.00  0.00    -0.387 OA
ATOM     26  H   UNL     1      10.038   7.583  19.867  0.00  0.00    +0.210 HD
ENDBRANCH  10   2
BRANCH  12   3
ATOM      3  O   UNL     1      13.758   6.571  19.869  0.00  0.00    -0.389 OA
ATOM     27  H   UNL     1      13.669   6.613  20.836  0.00  0.00    +0.210 HD
ENDBRANCH  12   3
TORSDOF 7
ENDMDL
MODEL 4
REMARK VINA RESULT:      -6.2      4.500      7.747
REMARK  Name = 7049274
REMARK  8 active torsions:
REMARK  status: ('A' for Active; 'I' for Inactive)
REMARK    1  A    between atoms: O_2  and  C_10
REMARK    2  A    between atoms: O_3  and  C_12
REMARK    3  A    between atoms: N_7  and  C_11
REMARK    4  A    between atoms: N_8  and  C_18
REMARK    5  A    between atoms: C_14  and  C_16
REMARK    6  A    between atoms: C_17  and  C_19
REMARK    7  A    between atoms: C_18  and  C_20
REMARK    8  A    between atoms: C_18  and  C_21
REMARK                            x       y       z     vdW  Elec       q    Type
REMARK                         _______ _______ _______ _____ _____    ______ ____
ROOT
ATOM     10  C   UNL     1      20.780   7.584  21.662  0.00  0.00    +0.167 C 
ATOM     11  C   UNL     1      20.356   6.104  21.625  0.00  0.00    +0.128 C 
ATOM     12  C   UNL     1      19.575   8.510  21.869  0.00  0.00    +0.149 C 
ATOM     13  C   UNL     1      18.489   8.293  20.801  0.00  0.00    +0.074 C 
ATOM     14  C   UNL     1      18.302   6.850  20.426  0.00  0.00    +0.015 C 
ATOM     15  C   UNL     1      19.126   5.858  20.795  0.00  0.00    +0.006 C 
ENDROOT
BRANCH  14  16
ATOM      4  O   UNL     1      17.173   5.562  18.817  0.00  0.00    -0.271 OA
ATOM      8  N   UNL     1      16.035   7.303  19.871  0.00  0.00    -0.301 N 
ATOM     16  C   UNL     1      17.131   6.493  19.620  0.00  0.00    +0.240 C 
ATOM     28  H   UNL     1      16.108   8.086  20.510  0.00  0.00    +0.150 HD
BRANCH   8  18
ATOM     18  C   UNL     1      14.767   7.145  19.196  0.00  0.00    +0.156 C 
ATOM     20  C   UNL     1      14.454   8.357  18.331  0.00  0.00    +0.038 C 
BRANCH  18  21
ATOM      6  O   UNL     1      13.814   7.264  21.427  0.00  0.00    -0.274 OA
ATOM      9  N   UNL     1      12.542   6.373  19.736  0.00  0.00    -0.328 N 
ATOM     21  C   UNL     1      13.691   6.934  20.249  0.00  0.00    +0.231 C 
ATOM     29  H   UNL     1      11.741   6.190  20.331  0.00  0.00    +0.145 HD
ATOM     30  H   UNL     1      12.446   6.125  18.755  0.00  0.00    +0.145 HD
ENDBRANCH  18  21
ENDBRANCH   8  18
ENDBRANCH  14  16
BRANCH  11   7
ATOM      5  O   UNL     1      21.904   4.345  23.195  0.00  0.00    -0.270 OA
ATOM      7  N   UNL     1      21.420   5.257  21.143  0.00  0.00    -0.302 N 
ATOM     17  C   UNL     1      22.139   4.413  21.988  0.00  0.00    +0.251 C 
ATOM     25  H   UNL     1      21.656   5.322  20.159  0.00  0.00    +0.150 HD
BRANCH  17  19
ATOM      1  S   UNL     1      24.177   4.329  20.203  0.00  0.00    -0.092 S 
ATOM     19  C   UNL     1      23.170   3.587  21.342  0.00  0.00    +0.074 A 
ATOM     22  C   UNL     1      23.421   2.276  21.549  0.00  0.00    +0.021 A 
ATOM     23  C   UNL     1      24.503   1.836  20.731  0.00  0.00    +0.008 A 
ATOM     24  C   UNL     1      25.006   2.853  19.949  0.00  0.00    +0.046 A 
ENDBRANCH  17  19
ENDBRANCH  11   7
BRANCH  10   2
ATOM      2  O   UNL     1      21.419   7.931  20.432  0.00  0.00    -0.387 OA
ATOM     26  H   UNL     1      22.078   7.242  20.241  0.00  0.00    +0.210 HD
ENDBRANCH  10   2
BRANCH  12   3
ATOM      3  O   UNL     1      19.026   8.318  23.171  0.00  0.00    -0.389 OA
ATOM     27  H   UNL     1      18.058   8.336  23.086  0.00  0.00    +0.210 HD
ENDBRANCH  12   3
TORSDOF 7
ENDMDL
MODEL 5
REMARK VINA RESULT:      -6.1     17.680     19.816
REMARK  Name = 7049274
REMARK  8 active torsions:
REMARK  status: ('A' for Active; 'I' for Inactive)
REMARK    1  A    between atoms: O_2  and  C_10
REMARK    2  A    between atoms: O_3  and  C_12
REMARK    3  A    between atoms: N_7  and  C_11
REMARK    4  A    between atoms: N_8  and  C_18
REMARK    5  A    between atoms: C_14  and  C_16
REMARK    6  A    between atoms: C_17  and  C_19
REMARK    7  A    between atoms: C_18  and  C_20
REMARK    8  A    between atoms: C_18  and  C_21
REMARK                            x       y       z     vdW  Elec       q    Type
REMARK                         _______ _______ _______ _____ _____    ______ ____
ROOT
ATOM     10  C   UNL     1      12.913   6.736   2.039  0.00  0.00    +0.167 C 
ATOM     11  C   UNL     1      12.445   5.268   2.048  0.00  0.00    +0.128 C 
ATOM     12  C   UNL     1      13.201   7.243   3.458  0.00  0.00    +0.149 C 
ATOM     13  C   UNL     1      11.987   7.076   4.388  0.00  0.00    +0.074 C 
ATOM     14  C   UNL     1      11.235   5.796   4.162  0.00  0.00    +0.015 C 
ATOM     15  C   UNL     1      11.435   4.972   3.122  0.00  0.00    +0.006 C 
ENDROOT
BRANCH  14  16
ATOM      4  O   UNL     1       9.424   4.502   4.915  0.00  0.00    -0.271 OA
ATOM      8  N   UNL     1      10.295   6.147   6.317  0.00  0.00    -0.301 N 
ATOM     16  C   UNL     1      10.226   5.404   5.151  0.00  0.00    +0.240 C 
ATOM     28  H   UNL     1      10.954   6.913   6.403  0.00  0.00    +0.150 HD
BRANCH   8  18
ATOM     18  C   UNL     1       9.403   5.946   7.436  0.00  0.00    +0.156 C 
ATOM     20  C   UNL     1       9.006   7.273   8.065  0.00  0.00    +0.038 C 
BRANCH  18  21
ATOM      6  O   UNL     1      10.522   5.443   9.532  0.00  0.00    -0.274 OA
ATOM      9  N   UNL     1      10.174   3.736   8.036  0.00  0.00    -0.328 N 
ATOM     21  C   UNL     1      10.101   5.050   8.446  0.00  0.00    +0.231 C 
ATOM     29  H   UNL     1      10.605   3.031   8.624  0.00  0.00    +0.145 HD
ATOM     30  H   UNL     1       9.804   3.421   7.145  0.00  0.00    +0.145 HD
ENDBRANCH  18  21
ENDBRANCH   8  18
ENDBRANCH  14  16
BRANCH  11   7
ATOM      5  O   UNL     1      13.500   3.288   0.338  0.00  0.00    -0.270 OA
ATOM      7  N   UNL     1      11.897   4.876   0.773  0.00  0.00    -0.302 N 
ATOM     17  C   UNL     1      12.481   3.885  -0.015  0.00  0.00    +0.251 C 
ATOM     25  H   UNL     1      11.079   5.378   0.444  0.00  0.00    +0.150 HD
BRANCH  17  19
ATOM      1  S   UNL     1      10.590   4.648  -1.801  0.00  0.00    -0.092 S 
ATOM     19  C   UNL     1      11.786   3.575  -1.274  0.00  0.00    +0.074 A 
ATOM     22  C   UNL     1      11.988   2.512  -2.082  0.00  0.00    +0.021 A 
ATOM     23  C   UNL     1      11.117   2.566  -3.209  0.00  0.00    +0.008 A 
ATOM     24  C   UNL     1      10.302   3.676  -3.181  0.00  0.00    +0.046 A 
ENDBRANCH  17  19
ENDBRANCH  11   7
BRANCH  10   2
ATOM      2  O   UNL     1      11.902   7.558   1.453  0.00  0.00    -0.387 OA
ATOM     26  H   UNL     1      12.228   7.849   0.585  0.00  0.00    +0.210 HD
ENDBRANCH  10   2
BRANCH  12   3
ATOM      3  O   UNL     1      14.332   6.566   4.001  0.00  0.00    -0.389 OA
ATOM     27  H   UNL     1      14.397   5.703   3.559  0.00  0.00    +0.210 HD
ENDBRANCH  12   3
TORSDOF 7
ENDMDL
MODEL 6
REMARK VINA RESULT:      -6.0     28.545     30.800
REMARK  Name = 7049274
REMARK  8 active torsions:
REMARK  status: ('A' for Active; 'I' for Inactive)
REMARK    1  A    between atoms: O_2  and  C_10
REMARK    2  A    between atoms: O_3  and  C_12
REMARK    3  A    between atoms: N_7  and  C_11
REMARK    4  A    between atoms: N_8  and  C_18
REMARK    5  A    between atoms: C_14  and  C_16
REMARK    6  A    between atoms: C_17  and  C_19
REMARK    7  A    between atoms: C_18  and  C_20
REMARK    8  A    between atoms: C_18  and  C_21
REMARK                            x       y       z     vdW  Elec       q    Type
REMARK                         _______ _______ _______ _____ _____    ______ ____
ROOT
ATOM     10  C   UNL     1     -17.294   1.838  26.440  0.00  0.00    +0.167 C 
ATOM     11  C   UNL     1     -16.501   3.116  26.775  0.00  0.00    +0.128 C 
ATOM     12  C   UNL     1     -17.840   1.166  27.706  0.00  0.00    +0.149 C 
ATOM     13  C   UNL     1     -16.725   0.852  28.719  0.00  0.00    +0.074 C 
ATOM     14  C   UNL     1     -15.676   1.923  28.803  0.00  0.00    +0.015 C 
ATOM     15  C   UNL     1     -15.569   2.948  27.943  0.00  0.00    +0.006 C 
ENDROOT
BRANCH  14  16
ATOM      4  O   UNL     1     -13.668   1.224  29.802  0.00  0.00    -0.271 OA
ATOM      8  N   UNL     1     -15.123   2.578  31.020  0.00  0.00    -0.301 N 
ATOM     16  C   UNL     1     -14.715   1.863  29.907  0.00  0.00    +0.240 C 
ATOM     28  H   UNL     1     -16.031   3.029  31.039  0.00  0.00    +0.150 HD
BRANCH   8  18
ATOM     18  C   UNL     1     -14.343   2.664  32.234  0.00  0.00    +0.156 C 
ATOM     20  C   UNL     1     -15.240   2.838  33.450  0.00  0.00    +0.038 C 
BRANCH  18  21
ATOM      6  O   UNL     1     -13.638   4.978  32.449  0.00  0.00    -0.274 OA
ATOM      9  N   UNL     1     -12.157   3.456  31.575  0.00  0.00    -0.328 N 
ATOM     21  C   UNL     1     -13.377   3.830  32.096  0.00  0.00    +0.231 C 
ATOM     29  H   UNL     1     -11.417   4.137  31.442  0.00  0.00    +0.145 HD
ATOM     30  H   UNL     1     -11.948   2.499  31.306  0.00  0.00    +0.145 HD
ENDBRANCH  18  21
ENDBRANCH   8  18
ENDBRANCH  14  16
BRANCH  11   7
ATOM      5  O   UNL     1     -17.395   4.982  24.858  0.00  0.00    -0.270 OA
ATOM      7  N   UNL     1     -15.746   3.586  25.640  0.00  0.00    -0.302 N 
ATOM     17  C   UNL     1     -16.262   4.513  24.736  0.00  0.00    +0.251 C 
ATOM     25  H   UNL     1     -14.823   3.188  25.498  0.00  0.00    +0.150 HD
BRANCH  17  19
ATOM      1  S   UNL     1     -16.027   5.740  22.330  0.00  0.00    -0.092 S 
ATOM     19  C   UNL     1     -15.358   4.920  23.649  0.00  0.00    +0.074 A 
ATOM     22  C   UNL     1     -14.025   4.715  23.570  0.00  0.00    +0.021 A 
ATOM     23  C   UNL     1     -13.504   5.258  22.359  0.00  0.00    +0.008 A 
ATOM     24  C   UNL     1     -14.486   5.845  21.591  0.00  0.00    +0.046 A 
ENDBRANCH  17  19
ENDBRANCH  11   7
BRANCH  10   2
ATOM      2  O   UNL     1     -16.446   0.912  25.758  0.00  0.00    -0.387 OA
ATOM     26  H   UNL     1     -15.730   0.667  26.368  0.00  0.00    +0.210 HD
ENDBRANCH  10   2
BRANCH  12   3
ATOM      3  O   UNL     1     -18.833   1.991  28.311  0.00  0.00    -0.389 OA
ATOM     27  H   UNL     1     -19.230   2.534  27.608  0.00  0.00    +0.210 HD
ENDBRANCH  12   3
TORSDOF 7
ENDMDL
MODEL 7
REMARK VINA RESULT:      -5.9     27.623     28.845
REMARK  Name = 7049274
REMARK  8 active torsions:
REMARK  status: ('A' for Active; 'I' for Inactive)
REMARK    1  A    between atoms: O_2  and  C_10
REMARK    2  A    between atoms: O_3  and  C_12
REMARK    3  A    between atoms: N_7  and  C_11
REMARK    4  A    between atoms: N_8  and  C_18
REMARK    5  A    between atoms: C_14  and  C_16
REMARK    6  A    between atoms: C_17  and  C_19
REMARK    7  A    between atoms: C_18  and  C_20
REMARK    8  A    between atoms: C_18  and  C_21
REMARK                            x       y       z     vdW  Elec       q    Type
REMARK                         _______ _______ _______ _____ _____    ______ ____
ROOT
ATOM     10  C   UNL     1      -3.880 -11.138  16.230  0.00  0.00    +0.167 C 
ATOM     11  C   UNL     1      -5.155 -11.216  15.368  0.00  0.00    +0.128 C 
ATOM     12  C   UNL     1      -4.116 -11.705  17.635  0.00  0.00    +0.149 C 
ATOM     13  C   UNL     1      -5.286 -11.008  18.350  0.00  0.00    +0.074 C 
ATOM     14  C   UNL     1      -6.439 -10.694  17.440  0.00  0.00    +0.015 C 
ATOM     15  C   UNL     1      -6.396 -10.790  16.102  0.00  0.00    +0.006 C 
ENDROOT
BRANCH  14  16
ATOM      4  O   UNL     1      -7.979 -10.569  19.210  0.00  0.00    -0.271 OA
ATOM      8  N   UNL     1      -8.500  -9.538  17.185  0.00  0.00    -0.301 N 
ATOM     16  C   UNL     1      -7.704 -10.272  18.048  0.00  0.00    +0.240 C 
ATOM     28  H   UNL     1      -8.217  -9.388  16.223  0.00  0.00    +0.150 HD
BRANCH   8  18
ATOM     18  C   UNL     1      -9.795  -9.015  17.558  0.00  0.00    +0.156 C 
ATOM     20  C   UNL     1     -10.882 -10.062  17.371  0.00  0.00    +0.038 C 
BRANCH  18  21
ATOM      6  O   UNL     1     -10.877  -6.907  17.023  0.00  0.00    -0.274 OA
ATOM      9  N   UNL     1      -9.291  -7.725  15.578  0.00  0.00    -0.328 N 
ATOM     21  C   UNL     1     -10.072  -7.782  16.712  0.00  0.00    +0.231 C 
ATOM     29  H   UNL     1      -9.367  -6.946  14.932  0.00  0.00    +0.145 HD
ATOM     30  H   UNL     1      -8.614  -8.445  15.344  0.00  0.00    +0.145 HD
ENDBRANCH  18  21
ENDBRANCH   8  18
ENDBRANCH  14  16
BRANCH  11   7
ATOM      5  O   UNL     1      -4.204 -12.147  12.881  0.00  0.00    -0.270 OA
ATOM      7  N   UNL     1      -5.032 -10.431  14.165  0.00  0.00    -0.302 N 
ATOM     17  C   UNL     1      -4.551 -10.968  12.971  0.00  0.00    +0.251 C 
ATOM     25  H   UNL     1      -5.278  -9.448  14.224  0.00  0.00    +0.150 HD
BRANCH  17  19
ATOM      1  S   UNL     1      -5.822  -8.993  11.618  0.00  0.00    -0.092 S 
ATOM     19  C   UNL     1      -4.517 -10.050  11.823  0.00  0.00    +0.074 A 
ATOM     22  C   UNL     1      -3.549  -9.942  10.887  0.00  0.00    +0.021 A 
ATOM     23  C   UNL     1      -3.882  -8.934   9.935  0.00  0.00    +0.008 A 
ATOM     24  C   UNL     1      -5.092  -8.339  10.214  0.00  0.00    +0.046 A 
ENDBRANCH  17  19
ENDBRANCH  11   7
BRANCH  10   2
ATOM      2  O   UNL     1      -3.463  -9.776  16.347  0.00  0.00    -0.387 OA
ATOM     26  H   UNL     1      -2.585  -9.774  16.763  0.00  0.00    +0.210 HD
ENDBRANCH  10   2
BRANCH  12   3
ATOM      3  O   UNL     1      -4.351 -13.109  17.566  0.00  0.00    -0.389 OA
ATOM     27  H   UNL     1      -3.585 -13.554  17.967  0.00  0.00    +0.210 HD
ENDBRANCH  12   3
TORSDOF 7
ENDMDL
MODEL 8
REMARK VINA RESULT:      -5.8     27.527     29.592
REMARK  Name = 7049274
REMARK  8 active torsions:
REMARK  status: ('A' for Active; 'I' for Inactive)
REMARK    1  A    between atoms: O_2  and  C_10
REMARK    2  A    between atoms: O_3  and  C_12
REMARK    3  A    between atoms: N_7  and  C_11
REMARK    4  A    between atoms: N_8  and  C_18
REMARK    5  A    between atoms: C_14  and  C_16
REMARK    6  A    between atoms: C_17  and  C_19
REMARK    7  A    between atoms: C_18  and  C_20
REMARK    8  A    between atoms: C_18  and  C_21
REMARK                            x       y       z     vdW  Elec       q    Type
REMARK                         _______ _______ _______ _____ _____    ______ ____
ROOT
ATOM     10  C   UNL     1      -8.071 -10.400  18.155  0.00  0.00    +0.167 C 
ATOM     11  C   UNL     1      -7.629  -9.249  17.231  0.00  0.00    +0.128 C 
ATOM     12  C   UNL     1      -6.909 -10.903  19.021  0.00  0.00    +0.149 C 
ATOM     13  C   UNL     1      -5.700 -11.335  18.171  0.00  0.00    +0.074 C 
ATOM     14  C   UNL     1      -5.454 -10.442  16.989  0.00  0.00    +0.015 C 
ATOM     15  C   UNL     1      -6.305  -9.498  16.562  0.00  0.00    +0.006 C 
ENDROOT
BRANCH  14  16
ATOM      4  O   UNL     1      -3.125 -10.726  16.862  0.00  0.00    -0.271 OA
ATOM      8  N   UNL     1      -4.352 -10.566  14.887  0.00  0.00    -0.301 N 
ATOM     16  C   UNL     1      -4.191 -10.594  16.262  0.00  0.00    +0.240 C 
ATOM     28  H   UNL     1      -5.263 -10.394  14.477  0.00  0.00    +0.150 HD
BRANCH   8  18
ATOM     18  C   UNL     1      -3.250 -10.694  13.960  0.00  0.00    +0.156 C 
ATOM     20  C   UNL     1      -3.675 -10.316  12.549  0.00  0.00    +0.038 C 
BRANCH  18  21
ATOM      6  O   UNL     1      -3.332 -13.076  13.492  0.00  0.00    -0.274 OA
ATOM      9  N   UNL     1      -1.543 -12.250  14.669  0.00  0.00    -0.328 N 
ATOM     21  C   UNL     1      -2.748 -12.129  14.013  0.00  0.00    +0.231 C 
ATOM     29  H   UNL     1      -1.091 -13.153  14.765  0.00  0.00    +0.145 HD
ATOM     30  H   UNL     1      -1.060 -11.454  15.078  0.00  0.00    +0.145 HD
ENDBRANCH  18  21
ENDBRANCH   8  18
ENDBRANCH  14  16
BRANCH  11   7
ATOM      5  O   UNL     1      -9.876  -7.571  17.539  0.00  0.00    -0.270 OA
ATOM      7  N   UNL     1      -8.618  -8.970  16.219  0.00  0.00    -0.302 N 
ATOM     17  C   UNL     1      -9.703  -8.126  16.452  0.00  0.00    +0.251 C 
ATOM     25  H   UNL     1      -8.517  -9.443  15.327  0.00  0.00    +0.150 HD
BRANCH  17  19
ATOM      1  S   UNL     1     -11.456  -6.453  15.236  0.00  0.00    -0.092 S 
ATOM     19  C   UNL     1     -10.607  -7.914  15.311  0.00  0.00    +0.074 A 
ATOM     22  C   UNL     1     -10.850  -8.762  14.288  0.00  0.00    +0.021 A 
ATOM     23  C   UNL     1     -11.789  -8.195  13.378  0.00  0.00    +0.008 A 
ATOM     24  C   UNL     1     -12.200  -6.941  13.774  0.00  0.00    +0.046 A 
ENDBRANCH  17  19
ENDBRANCH  11   7
BRANCH  10   2
ATOM      2  O   UNL     1      -8.561 -11.486  17.367  0.00  0.00    -0.387 OA
ATOM     26  H   UNL     1      -8.128 -11.436  16.498  0.00  0.00    +0.210 HD
ENDBRANCH  10   2
BRANCH  12   3
ATOM      3  O   UNL     1      -6.519  -9.898  19.953  0.00  0.00    -0.389 OA
ATOM     27  H   UNL     1      -6.384  -9.074  19.455  0.00  0.00    +0.210 HD
ENDBRANCH  12   3
TORSDOF 7
ENDMDL
MODEL 9
REMARK VINA RESULT:      -5.6     29.559     31.035
REMARK  Name = 7049274
REMARK  8 active torsions:
REMARK  status: ('A' for Active; 'I' for Inactive)
REMARK    1  A    between atoms: O_2  and  C_10
REMARK    2  A    between atoms: O_3  and  C_12
REMARK    3  A    between atoms: N_7  and  C_11
REMARK    4  A    between atoms: N_8  and  C_18
REMARK    5  A    between atoms: C_14  and  C_16
REMARK    6  A    between atoms: C_17  and  C_19
REMARK    7  A    between atoms: C_18  and  C_20
REMARK    8  A    between atoms: C_18  and  C_21
REMARK                            x       y       z     vdW  Elec       q    Type
REMARK                         _______ _______ _______ _____ _____    ______ ____
ROOT
ATOM     10  C   UNL     1     -14.349   1.774  30.830  0.00  0.00    +0.167 C 
ATOM     11  C   UNL     1     -15.620   2.575  30.488  0.00  0.00    +0.128 C 
ATOM     12  C   UNL     1     -13.971   1.925  32.308  0.00  0.00    +0.149 C 
ATOM     13  C   UNL     1     -13.798   3.399  32.713  0.00  0.00    +0.074 C 
ATOM     14  C   UNL     1     -14.803   4.314  32.075  0.00  0.00    +0.015 C 
ATOM     15  C   UNL     1     -15.632   3.956  31.083  0.00  0.00    +0.006 C 
ENDROOT
BRANCH  14  16
ATOM      4  O   UNL     1     -15.910   6.365  32.374  0.00  0.00    -0.271 OA
ATOM      8  N   UNL     1     -13.780   6.091  33.278  0.00  0.00    -0.301 N 
ATOM     16  C   UNL     1     -14.905   5.686  32.580  0.00  0.00    +0.240 C 
ATOM     28  H   UNL     1     -12.971   5.483  33.351  0.00  0.00    +0.150 HD
BRANCH   8  18
ATOM     18  C   UNL     1     -13.645   7.403  33.868  0.00  0.00    +0.156 C 
ATOM     20  C   UNL     1     -12.697   8.273  33.058  0.00  0.00    +0.038 C 
BRANCH  18  21
ATOM      6  O   UNL     1     -13.246   6.188  35.934  0.00  0.00    -0.274 OA
ATOM      9  N   UNL     1     -12.531   8.366  35.784  0.00  0.00    -0.328 N 
ATOM     21  C   UNL     1     -13.147   7.234  35.295  0.00  0.00    +0.231 C 
ATOM     29  H   UNL     1     -12.142   8.383  36.721  0.00  0.00    +0.145 HD
ATOM     30  H   UNL     1     -12.438   9.217  35.238  0.00  0.00    +0.145 HD
ENDBRANCH  18  21
ENDBRANCH   8  18
ENDBRANCH  14  16
BRANCH  11   7
ATOM      5  O   UNL     1     -16.880   0.655  28.850  0.00  0.00    -0.270 OA
ATOM      7  N   UNL     1     -15.816   2.680  29.063  0.00  0.00    -0.302 N 
ATOM     17  C   UNL     1     -16.451   1.683  28.323  0.00  0.00    +0.251 C 
ATOM     25  H   UNL     1     -15.439   3.501  28.601  0.00  0.00    +0.150 HD
BRANCH  17  19
ATOM      1  S   UNL     1     -17.404   0.793  25.946  0.00  0.00    -0.092 S 
ATOM     19  C   UNL     1     -16.604   1.951  26.885  0.00  0.00    +0.074 A 
ATOM     22  C   UNL     1     -16.174   3.034  26.202  0.00  0.00    +0.021 A 
ATOM     23  C   UNL     1     -16.514   2.924  24.822  0.00  0.00    +0.008 A 
ATOM     24  C   UNL     1     -17.186   1.754  24.546  0.00  0.00    +0.046 A 
ENDBRANCH  17  19
ENDBRANCH  11   7
BRANCH  10   2
ATOM      2  O   UNL     1     -13.261   2.237  30.028  0.00  0.00    -0.387 OA
ATOM     26  H   UNL     1     -12.438   1.988  30.480  0.00  0.00    +0.210 HD
ENDBRANCH  10   2
BRANCH  12   3
ATOM      3  O   UNL     1     -14.953   1.302  33.133  0.00  0.00    -0.389 OA
ATOM     27  H   UNL     1     -15.724   1.107  32.573  0.00  0.00    +0.210 HD
ENDBRANCH  12   3
TORSDOF 7
ENDMDL
MODEL 10
REMARK VINA RESULT:      -5.6      3.845      7.422
REMARK  Name = 7049274
REMARK  8 active torsions:
REMARK  status: ('A' for Active; 'I' for Inactive)
REMARK    1  A    between atoms: O_2  and  C_10
REMARK    2  A    between atoms: O_3  and  C_12
REMARK    3  A    between atoms: N_7  and  C_11
REMARK    4  A    between atoms: N_8  and  C_18
REMARK    5  A    between atoms: C_14  and  C_16
REMARK    6  A    between atoms: C_17  and  C_19
REMARK    7  A    between atoms: C_18  and  C_20
REMARK    8  A    between atoms: C_18  and  C_21
REMARK                            x       y       z     vdW  Elec       q    Type
REMARK                         _______ _______ _______ _____ _____    ______ ____
ROOT
ATOM     10  C   UNL     1      20.124   7.147  22.155  0.00  0.00    +0.167 C 
ATOM     11  C   UNL     1      19.392   8.392  21.619  0.00  0.00    +0.128 C 
ATOM     12  C   UNL     1      20.211   6.044  21.093  0.00  0.00    +0.149 C 
ATOM     13  C   UNL     1      18.825   5.655  20.549  0.00  0.00    +0.074 C 
ATOM     14  C   UNL     1      17.903   6.828  20.373  0.00  0.00    +0.015 C 
ATOM     15  C   UNL     1      18.149   8.062  20.840  0.00  0.00    +0.006 C 
ENDROOT
BRANCH  14  16
ATOM      4  O   UNL     1      16.549   5.696  18.823  0.00  0.00    -0.271 OA
ATOM      8  N   UNL     1      15.688   7.562  19.923  0.00  0.00    -0.301 N 
ATOM     16  C   UNL     1      16.660   6.623  19.624  0.00  0.00    +0.240 C 
ATOM     28  H   UNL     1      15.887   8.328  20.556  0.00  0.00    +0.150 HD
BRANCH   8  18
ATOM     18  C   UNL     1      14.379   7.566  19.309  0.00  0.00    +0.156 C 
ATOM     20  C   UNL     1      13.998   8.963  18.844  0.00  0.00    +0.038 C 
BRANCH  18  21
ATOM      6  O   UNL     1      13.440   7.261  21.528  0.00  0.00    -0.274 OA
ATOM      9  N   UNL     1      12.361   6.310  19.739  0.00  0.00    -0.328 N 
ATOM     21  C   UNL     1      13.376   7.035  20.322  0.00  0.00    +0.231 C 
ATOM     29  H   UNL     1      11.618   5.909  20.302  0.00  0.00    +0.145 HD
ATOM     30  H   UNL     1      12.309   6.148  18.737  0.00  0.00    +0.145 HD
ENDBRANCH  18  21
ENDBRANCH   8  18
ENDBRANCH  14  16
BRANCH  11   7
ATOM      5  O   UNL     1      20.382  11.016  21.920  0.00  0.00    -0.270 OA
ATOM      7  N   UNL     1      19.049   9.306  22.680  0.00  0.00    -0.302 N 
ATOM     17  C   UNL     1      19.584  10.591  22.758  0.00  0.00    +0.251 C 
ATOM     25  H   UNL     1      18.421   8.966  23.401  0.00  0.00    +0.150 HD
BRANCH  17  19
ATOM      1  S   UNL     1      17.731  12.364  23.637  0.00  0.00    -0.092 S 
ATOM     19  C   UNL     1      19.111  11.415  23.880  0.00  0.00    +0.074 A 
ATOM     22  C   UNL     1      19.654  11.514  25.113  0.00  0.00    +0.021 A 
ATOM     23  C   UNL     1      18.905  12.418  25.921  0.00  0.00    +0.008 A 
ATOM     24  C   UNL     1      17.832  12.952  25.242  0.00  0.00    +0.046 A 
ENDBRANCH  17  19
ENDBRANCH  11   7
BRANCH  10   2
ATOM      2  O   UNL     1      19.427   6.635  23.293  0.00  0.00    -0.387 OA
ATOM     26  H   UNL     1      18.964   5.827  23.013  0.00  0.00    +0.210 HD
ENDBRANCH  10   2
BRANCH  12   3
ATOM      3  O   UNL     1      21.058   6.457  20.024  0.00  0.00    -0.389 OA
ATOM     27  H   UNL     1      20.594   6.266  19.192  0.00  0.00    +0.210 HD
ENDBRANCH  12   3
TORSDOF 7
ENDMDL
