MODEL 1
REMARK VINA RESULT:      -7.0      0.000      0.000
REMARK  Name = 44716362
REMARK  8 active torsions:
REMARK  status: ('A' for Active; 'I' for Inactive)
REMARK    1  A    between atoms: O_4  and  C_18
REMARK    2  A    between atoms: O_4  and  C_23
REMARK    3  A    between atoms: N_7  and  C_21
REMARK    4  A    between atoms: N_9  and  C_29
REMARK    5  A    between atoms: C_11  and  C_17
REMARK    6  A    between atoms: C_12  and  C_18
REMARK    7  A    between atoms: C_20  and  C_22
REMARK    8  A    between atoms: C_36  and  C_39
REMARK                            x       y       z     vdW  Elec       q    Type
REMARK                         _______ _______ _______ _____ _____    ______ ____
ROOT
ATOM      6  N   UNL     1      10.611   5.675   7.614  0.00  0.00    -0.296 NA
ATOM     10  C   UNL     1       9.320   7.679   6.565  0.00  0.00    +0.002 C 
ATOM     11  C   UNL     1       9.211   6.424   5.654  0.00  0.00    +0.055 C 
ATOM     12  C   UNL     1      11.477   6.883   7.592  0.00  0.00    +0.095 C 
ATOM     13  C   UNL     1      10.808   8.020   6.790  0.00  0.00    +0.026 C 
ATOM     14  C   UNL     1       8.733   7.284   7.938  0.00  0.00    +0.019 C 
ATOM     15  C   UNL     1      10.165   5.343   6.238  0.00  0.00    +0.094 C 
ATOM     16  C   UNL     1       9.411   5.993   8.426  0.00  0.00    +0.085 C 
ENDROOT
BRANCH  11  17
ATOM      7  N   UNL     1       8.742   7.564   3.436  0.00  0.00    -0.270 N 
ATOM      8  N   UNL     1       9.042   7.559   2.126  0.00  0.00    -0.171 NA
ATOM     17  C   UNL     1       9.397   6.607   4.154  0.00  0.00    +0.044 A 
ATOM     19  C   UNL     1      10.180   5.930   3.252  0.00  0.00    +0.053 A 
ATOM     20  C   UNL     1       9.922   6.560   2.019  0.00  0.00    +0.093 A 
ATOM     21  C   UNL     1       7.796   8.532   3.939  0.00  0.00    +0.172 C 
BRANCH  20  22
ATOM     22  C   UNL     1      10.497   6.223   0.743  0.00  0.00    +0.003 A 
ATOM     24  C   UNL     1      10.659   4.885   0.382  0.00  0.00    +0.018 A 
ATOM     25  C   UNL     1      10.891   7.233  -0.130  0.00  0.00    +0.011 A 
ATOM     26  C   UNL     1      11.219   4.541  -0.859  0.00  0.00    -0.017 A 
ATOM     27  C   UNL     1      11.448   6.909  -1.367  0.00  0.00    +0.009 A 
ATOM     28  C   UNL     1      11.618   5.568  -1.747  0.00  0.00    -0.018 A 
ATOM     30  C   UNL     1      11.389   3.200  -1.239  0.00  0.00    +0.008 A 
ATOM     31  C   UNL     1      12.178   5.224  -2.988  0.00  0.00    +0.008 A 
ATOM     34  C   UNL     1      11.947   2.876  -2.476  0.00  0.00    +0.001 A 
ATOM     35  C   UNL     1      12.340   3.886  -3.349  0.00  0.00    +0.001 A 
ENDBRANCH  20  22
ENDBRANCH  11  17
BRANCH  12  18
ATOM     18  C   UNL     1      12.887   6.578   7.081  0.00  0.00    +0.252 C 
BRANCH  18   4
ATOM      4  O   UNL     1      13.344   7.693   6.339  0.00  0.00    -0.449 OA
BRANCH   4  23
ATOM      5  O   UNL     1      15.379   7.441   5.326  0.00  0.00    -0.226 OA
ATOM      9  N   UNL     1      13.372   7.158   4.153  0.00  0.00    -0.251 N 
ATOM     23  C   UNL     1      14.156   7.427   5.258  0.00  0.00    +0.405 C 
ATOM     40  H   UNL     1      12.366   7.195   4.295  0.00  0.00    +0.158 HD
BRANCH   9  29
ATOM     29  C   UNL     1      13.796   6.837   2.843  0.00  0.00    +0.037 A 
ATOM     32  C   UNL     1      13.944   5.503   2.464  0.00  0.00    +0.035 A 
ATOM     33  C   UNL     1      14.065   7.856   1.928  0.00  0.00    +0.023 A 
ATOM     36  C   UNL     1      14.361   5.187   1.171  0.00  0.00    +0.057 A 
ATOM     37  C   UNL     1      14.483   7.539   0.635  0.00  0.00    +0.002 A 
ATOM     38  C   UNL     1      14.631   6.205   0.257  0.00  0.00    +0.012 A 
BRANCH  36  39
ATOM      1  F   UNL     1      15.669   3.203   1.251  0.00  0.00    -0.166 F 
ATOM      2  F   UNL     1      13.510   2.950   1.199  0.00  0.00    -0.166 F 
ATOM      3  F   UNL     1      14.570   3.579  -0.586  0.00  0.00    -0.166 F 
ATOM     39  C   UNL     1      14.522   3.761   0.767  0.00  0.00    +0.417 C 
ENDBRANCH  36  39
ENDBRANCH   9  29
ENDBRANCH   4  23
ENDBRANCH  18   4
ENDBRANCH  12  18
TORSDOF 7
ENDMDL
MODEL 2
REMARK VINA RESULT:      -6.9     24.238     26.829
REMARK  Name = 44716362
REMARK  8 active torsions:
REMARK  status: ('A' for Active; 'I' for Inactive)
REMARK    1  A    between atoms: O_4  and  C_18
REMARK    2  A    between atoms: O_4  and  C_23
REMARK    3  A    between atoms: N_7  and  C_21
REMARK    4  A    between atoms: N_9  and  C_29
REMARK    5  A    between atoms: C_11  and  C_17
REMARK    6  A    between atoms: C_12  and  C_18
REMARK    7  A    between atoms: C_20  and  C_22
REMARK    8  A    between atoms: C_36  and  C_39
REMARK                            x       y       z     vdW  Elec       q    Type
REMARK                         _______ _______ _______ _____ _____    ______ ____
ROOT
ATOM      6  N   UNL     1      -6.396 -10.517  17.980  0.00  0.00    -0.296 NA
ATOM     10  C   UNL     1      -4.356 -12.046  17.446  0.00  0.00    +0.002 C 
ATOM     11  C   UNL     1      -4.220 -10.681  16.714  0.00  0.00    +0.055 C 
ATOM     12  C   UNL     1      -6.865 -11.862  17.557  0.00  0.00    +0.095 C 
ATOM     13  C   UNL     1      -5.686 -12.714  17.040  0.00  0.00    +0.026 C 
ATOM     14  C   UNL     1      -4.449 -11.733  18.956  0.00  0.00    +0.019 C 
ATOM     15  C   UNL     1      -5.556  -9.912  16.915  0.00  0.00    +0.094 C 
ATOM     16  C   UNL     1      -5.555 -10.689  19.189  0.00  0.00    +0.085 C 
ENDROOT
BRANCH  11  17
ATOM      7  N   UNL     1      -2.461 -10.671  14.885  0.00  0.00    -0.270 N 
ATOM      8  N   UNL     1      -2.275 -10.681  13.554  0.00  0.00    -0.171 NA
ATOM     17  C   UNL     1      -3.772 -10.689  15.259  0.00  0.00    +0.044 A 
ATOM     19  C   UNL     1      -4.495 -10.712  14.091  0.00  0.00    +0.053 A 
ATOM     20  C   UNL     1      -3.522 -10.707  13.074  0.00  0.00    +0.093 A 
ATOM     21  C   UNL     1      -1.309 -10.642  15.757  0.00  0.00    +0.172 C 
BRANCH  20  22
ATOM     22  C   UNL     1      -3.760 -10.722  11.655  0.00  0.00    +0.003 A 
ATOM     24  C   UNL     1      -3.976 -11.933  10.996  0.00  0.00    +0.018 A 
ATOM     25  C   UNL     1      -3.774  -9.528  10.939  0.00  0.00    +0.011 A 
ATOM     26  C   UNL     1      -4.209 -11.965   9.612  0.00  0.00    -0.017 A 
ATOM     27  C   UNL     1      -4.005  -9.540   9.563  0.00  0.00    +0.009 A 
ATOM     28  C   UNL     1      -4.225 -10.750   8.885  0.00  0.00    -0.018 A 
ATOM     30  C   UNL     1      -4.428 -13.175   8.933  0.00  0.00    +0.008 A 
ATOM     31  C   UNL     1      -4.458 -10.782   7.501  0.00  0.00    +0.008 A 
ATOM     34  C   UNL     1      -4.659 -13.187   7.558  0.00  0.00    +0.001 A 
ATOM     35  C   UNL     1      -4.674 -11.993   6.842  0.00  0.00    +0.001 A 
ENDBRANCH  20  22
ENDBRANCH  11  17
BRANCH  12  18
ATOM     18  C   UNL     1      -8.004 -11.787  16.537  0.00  0.00    +0.252 C 
BRANCH  18   4
ATOM      4  O   UNL     1      -7.564 -12.382  15.332  0.00  0.00    -0.449 OA
BRANCH   4  23
ATOM      5  O   UNL     1      -9.244 -11.388  14.140  0.00  0.00    -0.226 OA
ATOM      9  N   UNL     1      -7.297 -12.177  13.106  0.00  0.00    -0.251 N 
ATOM     23  C   UNL     1      -8.144 -11.926  14.168  0.00  0.00    +0.405 C 
ATOM     40  H   UNL     1      -6.418 -12.636  13.330  0.00  0.00    +0.158 HD
BRANCH   9  29
ATOM     29  C   UNL     1      -7.501 -11.873  11.740  0.00  0.00    +0.037 A 
ATOM     32  C   UNL     1      -7.433 -10.551  11.301  0.00  0.00    +0.035 A 
ATOM     33  C   UNL     1      -7.768 -12.897  10.831  0.00  0.00    +0.023 A 
ATOM     36  C   UNL     1      -7.633 -10.252   9.954  0.00  0.00    +0.057 A 
ATOM     37  C   UNL     1      -7.968 -12.598   9.483  0.00  0.00    +0.002 A 
ATOM     38  C   UNL     1      -7.901 -11.276   9.045  0.00  0.00    +0.012 A 
BRANCH  36  39
ATOM      1  F   UNL     1      -7.072  -8.730   8.216  0.00  0.00    -0.166 F 
ATOM      2  F   UNL     1      -8.773  -8.206   9.465  0.00  0.00    -0.166 F 
ATOM      3  F   UNL     1      -6.759  -8.046  10.255  0.00  0.00    -0.166 F 
ATOM     39  C   UNL     1      -7.562  -8.839   9.485  0.00  0.00    +0.417 C 
ENDBRANCH  36  39
ENDBRANCH   9  29
ENDBRANCH   4  23
ENDBRANCH  18   4
ENDBRANCH  12  18
TORSDOF 7
ENDMDL
MODEL 3
REMARK VINA RESULT:      -6.8     24.179     26.855
REMARK  Name = 44716362
REMARK  8 active torsions:
REMARK  status: ('A' for Active; 'I' for Inactive)
REMARK    1  A    between atoms: O_4  and  C_18
REMARK    2  A    between atoms: O_4  and  C_23
REMARK    3  A    between atoms: N_7  and  C_21
REMARK    4  A    between atoms: N_9  and  C_29
REMARK    5  A    between atoms: C_11  and  C_17
REMARK    6  A    between atoms: C_12  and  C_18
REMARK    7  A    between atoms: C_20  and  C_22
REMARK    8  A    between atoms: C_36  and  C_39
REMARK                            x       y       z     vdW  Elec       q    Type
REMARK                         _______ _______ _______ _____ _____    ______ ____
ROOT
ATOM      6  N   UNL     1      -6.524 -12.665  18.565  0.00  0.00    -0.296 NA
ATOM     10  C   UNL     1      -7.751 -10.456  17.932  0.00  0.00    +0.002 C 
ATOM     11  C   UNL     1      -8.045 -11.563  16.881  0.00  0.00    +0.055 C 
ATOM     12  C   UNL     1      -5.572 -11.524  18.609  0.00  0.00    +0.095 C 
ATOM     13  C   UNL     1      -6.226 -10.246  18.039  0.00  0.00    +0.026 C 
ATOM     14  C   UNL     1      -8.231 -10.999  19.296  0.00  0.00    +0.019 C 
ATOM     15  C   UNL     1      -7.126 -12.774  17.212  0.00  0.00    +0.094 C 
ATOM     16  C   UNL     1      -7.611 -12.387  19.534  0.00  0.00    +0.085 C 
ENDROOT
BRANCH  11  17
ATOM      7  N   UNL     1      -8.608 -10.080  14.901  0.00  0.00    -0.270 N 
ATOM      8  N   UNL     1      -8.444  -9.925  13.576  0.00  0.00    -0.171 NA
ATOM     17  C   UNL     1      -7.993 -11.186  15.407  0.00  0.00    +0.044 A 
ATOM     19  C   UNL     1      -7.383 -11.798  14.339  0.00  0.00    +0.053 A 
ATOM     20  C   UNL     1      -7.693 -10.977  13.238  0.00  0.00    +0.093 A 
ATOM     21  C   UNL     1      -9.387  -9.108  15.632  0.00  0.00    +0.172 C 
BRANCH  20  22
ATOM     22  C   UNL     1      -7.290 -11.181  11.872  0.00  0.00    +0.003 A 
ATOM     24  C   UNL     1      -7.244 -10.101  10.989  0.00  0.00    +0.018 A 
ATOM     25  C   UNL     1      -6.945 -12.456  11.431  0.00  0.00    +0.011 A 
ATOM     26  C   UNL     1      -6.853 -10.284   9.652  0.00  0.00    -0.017 A 
ATOM     27  C   UNL     1      -6.553 -12.655  10.107  0.00  0.00    +0.009 A 
ATOM     28  C   UNL     1      -6.502 -11.580   9.206  0.00  0.00    -0.018 A 
ATOM     30  C   UNL     1      -6.802  -9.209   8.751  0.00  0.00    +0.008 A 
ATOM     31  C   UNL     1      -6.111 -11.763   7.869  0.00  0.00    +0.008 A 
ATOM     34  C   UNL     1      -6.412  -9.408   7.427  0.00  0.00    +0.001 A 
ATOM     35  C   UNL     1      -6.066 -10.683   6.986  0.00  0.00    +0.001 A 
ENDBRANCH  20  22
ENDBRANCH  11  17
BRANCH  12  18
ATOM     18  C   UNL     1      -4.247 -11.844  17.914  0.00  0.00    +0.252 C 
BRANCH  18   4
ATOM      4  O   UNL     1      -3.830 -10.697  17.198  0.00  0.00    -0.449 OA
BRANCH   4  23
ATOM      5  O   UNL     1      -1.915 -10.901  15.964  0.00  0.00    -0.226 OA
ATOM      9  N   UNL     1      -4.035 -11.145  15.001  0.00  0.00    -0.251 N 
ATOM     23  C   UNL     1      -3.138 -10.917  16.027  0.00  0.00    +0.405 C 
ATOM     40  H   UNL     1      -5.020 -11.118  15.251  0.00  0.00    +0.158 HD
BRANCH   9  29
ATOM     29  C   UNL     1      -3.753 -11.412  13.642  0.00  0.00    +0.037 A 
ATOM     32  C   UNL     1      -3.676 -10.363  12.725  0.00  0.00    +0.035 A 
ATOM     33  C   UNL     1      -3.551 -12.726  13.217  0.00  0.00    +0.023 A 
ATOM     36  C   UNL     1      -3.397 -10.628  11.385  0.00  0.00    +0.057 A 
ATOM     37  C   UNL     1      -3.273 -12.990  11.876  0.00  0.00    +0.002 A 
ATOM     38  C   UNL     1      -3.195 -11.941  10.960  0.00  0.00    +0.012 A 
BRANCH  36  39
ATOM      1  F   UNL     1      -3.587  -9.905   9.128  0.00  0.00    -0.166 F 
ATOM      2  F   UNL     1      -4.187  -8.487  10.664  0.00  0.00    -0.166 F 
ATOM      3  F   UNL     1      -2.085  -8.918  10.349  0.00  0.00    -0.166 F 
ATOM     39  C   UNL     1      -3.316  -9.507  10.405  0.00  0.00    +0.417 C 
ENDBRANCH  36  39
ENDBRANCH   9  29
ENDBRANCH   4  23
ENDBRANCH  18   4
ENDBRANCH  12  18
TORSDOF 7
ENDMDL
MODEL 4
REMARK VINA RESULT:      -6.7      3.508      8.205
REMARK  Name = 44716362
REMARK  8 active torsions:
REMARK  status: ('A' for Active; 'I' for Inactive)
REMARK    1  A    between atoms: O_4  and  C_18
REMARK    2  A    between atoms: O_4  and  C_23
REMARK    3  A    between atoms: N_7  and  C_21
REMARK    4  A    between atoms: N_9  and  C_29
REMARK    5  A    between atoms: C_11  and  C_17
REMARK    6  A    between atoms: C_12  and  C_18
REMARK    7  A    between atoms: C_20  and  C_22
REMARK    8  A    between atoms: C_36  and  C_39
REMARK                            x       y       z     vdW  Elec       q    Type
REMARK                         _______ _______ _______ _____ _____    ______ ____
ROOT
ATOM      6  N   UNL     1      14.801   3.825  -0.074  0.00  0.00    -0.296 NA
ATOM     10  C   UNL     1      14.228   6.341  -0.430  0.00  0.00    +0.002 C 
ATOM     11  C   UNL     1      15.156   6.164   0.804  0.00  0.00    +0.055 C 
ATOM     12  C   UNL     1      13.333   3.995  -0.234  0.00  0.00    +0.095 C 
ATOM     13  C   UNL     1      12.954   5.492  -0.238  0.00  0.00    +0.026 C 
ATOM     14  C   UNL     1      14.985   5.756  -1.643  0.00  0.00    +0.019 C 
ATOM     15  C   UNL     1      15.286   4.637   1.071  0.00  0.00    +0.094 C 
ATOM     16  C   UNL     1      15.453   4.330  -1.307  0.00  0.00    +0.085 C 
ENDROOT
BRANCH  11  17
ATOM      7  N   UNL     1      15.711   7.784   2.676  0.00  0.00    -0.270 N 
ATOM      8  N   UNL     1      15.227   8.377   3.781  0.00  0.00    -0.171 NA
ATOM     17  C   UNL     1      14.826   6.944   2.069  0.00  0.00    +0.044 A 
ATOM     19  C   UNL     1      13.683   6.989   2.829  0.00  0.00    +0.053 A 
ATOM     20  C   UNL     1      13.987   7.888   3.869  0.00  0.00    +0.093 A 
ATOM     21  C   UNL     1      17.062   8.076   2.254  0.00  0.00    +0.172 C 
BRANCH  20  22
ATOM     22  C   UNL     1      13.118   8.285   4.946  0.00  0.00    +0.003 A 
ATOM     24  C   UNL     1      11.970   9.030   4.677  0.00  0.00    +0.018 A 
ATOM     25  C   UNL     1      13.425   7.925   6.256  0.00  0.00    +0.011 A 
ATOM     26  C   UNL     1      11.112   9.426   5.717  0.00  0.00    -0.017 A 
ATOM     27  C   UNL     1      12.584   8.309   7.300  0.00  0.00    +0.009 A 
ATOM     28  C   UNL     1      11.424   9.059   7.048  0.00  0.00    -0.018 A 
ATOM     30  C   UNL     1       9.952  10.176   5.464  0.00  0.00    +0.008 A 
ATOM     31  C   UNL     1      10.566   9.455   8.087  0.00  0.00    +0.008 A 
ATOM     34  C   UNL     1       9.112  10.560   6.509  0.00  0.00    +0.001 A 
ATOM     35  C   UNL     1       9.418  10.200   7.818  0.00  0.00    +0.001 A 
ENDBRANCH  20  22
ENDBRANCH  11  17
BRANCH  12  18
ATOM     18  C   UNL     1      12.540   3.209   0.812  0.00  0.00    +0.252 C 
BRANCH  18   4
ATOM      4  O   UNL     1      12.520   3.958   2.013  0.00  0.00    -0.449 OA
BRANCH   4  23
ATOM      5  O   UNL     1      10.233   3.953   1.978  0.00  0.00    -0.226 OA
ATOM      9  N   UNL     1      11.440   5.080   3.638  0.00  0.00    -0.251 N 
ATOM     23  C   UNL     1      11.281   4.306   2.505  0.00  0.00    +0.405 C 
ATOM     40  H   UNL     1      12.398   5.267   3.924  0.00  0.00    +0.158 HD
BRANCH   9  29
ATOM     29  C   UNL     1      10.434   5.647   4.454  0.00  0.00    +0.037 A 
ATOM     32  C   UNL     1      10.459   5.448   5.834  0.00  0.00    +0.035 A 
ATOM     33  C   UNL     1       9.415   6.406   3.876  0.00  0.00    +0.023 A 
ATOM     36  C   UNL     1       9.466   6.008   6.637  0.00  0.00    +0.057 A 
ATOM     37  C   UNL     1       8.422   6.966   4.680  0.00  0.00    +0.002 A 
ATOM     38  C   UNL     1       8.447   6.767   6.061  0.00  0.00    +0.012 A 
BRANCH  36  39
ATOM      1  F   UNL     1       9.102   4.536   8.468  0.00  0.00    -0.166 F 
ATOM      2  F   UNL     1      10.726   5.967   8.671  0.00  0.00    -0.166 F 
ATOM      3  F   UNL     1       8.668   6.640   8.801  0.00  0.00    -0.166 F 
ATOM     39  C   UNL     1       9.491   5.795   8.113  0.00  0.00    +0.417 C 
ENDBRANCH  36  39
ENDBRANCH   9  29
ENDBRANCH   4  23
ENDBRANCH  18   4
ENDBRANCH  12  18
TORSDOF 7
ENDMDL
MODEL 5
REMARK VINA RESULT:      -6.7      3.006      7.252
REMARK  Name = 44716362
REMARK  8 active torsions:
REMARK  status: ('A' for Active; 'I' for Inactive)
REMARK    1  A    between atoms: O_4  and  C_18
REMARK    2  A    between atoms: O_4  and  C_23
REMARK    3  A    between atoms: N_7  and  C_21
REMARK    4  A    between atoms: N_9  and  C_29
REMARK    5  A    between atoms: C_11  and  C_17
REMARK    6  A    between atoms: C_12  and  C_18
REMARK    7  A    between atoms: C_20  and  C_22
REMARK    8  A    between atoms: C_36  and  C_39
REMARK                            x       y       z     vdW  Elec       q    Type
REMARK                         _______ _______ _______ _____ _____    ______ ____
ROOT
ATOM      6  N   UNL     1      13.830   4.871  -1.890  0.00  0.00    -0.296 NA
ATOM     10  C   UNL     1      11.928   3.550  -0.698  0.00  0.00    +0.002 C 
ATOM     11  C   UNL     1      11.497   5.023  -0.942  0.00  0.00    +0.055 C 
ATOM     12  C   UNL     1      14.374   4.147  -0.712  0.00  0.00    +0.095 C 
ATOM     13  C   UNL     1      13.233   3.529   0.125  0.00  0.00    +0.026 C 
ATOM     14  C   UNL     1      12.254   2.946  -2.081  0.00  0.00    +0.019 C 
ATOM     15  C   UNL     1      12.744   5.790  -1.466  0.00  0.00    +0.094 C 
ATOM     16  C   UNL     1      13.249   3.864  -2.812  0.00  0.00    +0.085 C 
ENDROOT
BRANCH  11  17
ATOM      7  N   UNL     1      10.026   6.870  -0.013  0.00  0.00    -0.270 N 
ATOM      8  N   UNL     1       9.498   7.376   1.114  0.00  0.00    -0.171 NA
ATOM     17  C   UNL     1      10.797   5.764   0.188  0.00  0.00    +0.044 A 
ATOM     19  C   UNL     1      10.772   5.530   1.542  0.00  0.00    +0.053 A 
ATOM     20  C   UNL     1       9.956   6.553   2.061  0.00  0.00    +0.093 A 
ATOM     21  C   UNL     1       9.744   7.515  -1.275  0.00  0.00    +0.172 C 
BRANCH  20  22
ATOM     22  C   UNL     1       9.609   6.760   3.443  0.00  0.00    +0.003 A 
ATOM     24  C   UNL     1       9.973   5.815   4.403  0.00  0.00    +0.018 A 
ATOM     25  C   UNL     1       8.911   7.904   3.820  0.00  0.00    +0.011 A 
ATOM     26  C   UNL     1       9.642   6.003   5.755  0.00  0.00    -0.017 A 
ATOM     27  C   UNL     1       8.574   8.107   5.159  0.00  0.00    +0.009 A 
ATOM     28  C   UNL     1       8.933   7.166   6.138  0.00  0.00    -0.018 A 
ATOM     30  C   UNL     1      10.000   5.062   6.734  0.00  0.00    +0.008 A 
ATOM     31  C   UNL     1       8.601   7.354   7.490  0.00  0.00    +0.008 A 
ATOM     34  C   UNL     1       9.663   5.265   8.072  0.00  0.00    +0.001 A 
ATOM     35  C   UNL     1       8.965   6.409   8.450  0.00  0.00    +0.001 A 
ENDBRANCH  20  22
ENDBRANCH  11  17
BRANCH  12  18
ATOM     18  C   UNL     1      15.292   5.028   0.139  0.00  0.00    +0.252 C 
BRANCH  18   4
ATOM      4  O   UNL     1      14.860   4.955   1.484  0.00  0.00    -0.449 OA
BRANCH   4  23
ATOM      5  O   UNL     1      13.918   7.037   1.575  0.00  0.00    -0.226 OA
ATOM      9  N   UNL     1      15.130   6.152   3.371  0.00  0.00    -0.251 N 
ATOM     23  C   UNL     1      14.573   6.150   2.107  0.00  0.00    +0.405 C 
ATOM     40  H   UNL     1      15.643   5.315   3.638  0.00  0.00    +0.158 HD
BRANCH   9  29
ATOM     29  C   UNL     1      15.078   7.176   4.344  0.00  0.00    +0.037 A 
ATOM     32  C   UNL     1      13.885   7.440   5.017  0.00  0.00    +0.035 A 
ATOM     33  C   UNL     1      16.221   7.923   4.632  0.00  0.00    +0.023 A 
ATOM     36  C   UNL     1      13.834   8.450   5.978  0.00  0.00    +0.057 A 
ATOM     37  C   UNL     1      16.169   8.934   5.592  0.00  0.00    +0.002 A 
ATOM     38  C   UNL     1      14.976   9.197   6.265  0.00  0.00    +0.012 A 
BRANCH  36  39
ATOM      1  F   UNL     1      12.036   7.624   7.295  0.00  0.00    -0.166 F 
ATOM      2  F   UNL     1      12.683   9.662   7.690  0.00  0.00    -0.166 F 
ATOM      3  F   UNL     1      11.569   9.211   5.885  0.00  0.00    -0.166 F 
ATOM     39  C   UNL     1      12.559   8.733   6.696  0.00  0.00    +0.417 C 
ENDBRANCH  36  39
ENDBRANCH   9  29
ENDBRANCH   4  23
ENDBRANCH  18   4
ENDBRANCH  12  18
TORSDOF 7
ENDMDL
MODEL 6
REMARK VINA RESULT:      -6.5     25.402     29.115
REMARK  Name = 44716362
REMARK  8 active torsions:
REMARK  status: ('A' for Active; 'I' for Inactive)
REMARK    1  A    between atoms: O_4  and  C_18
REMARK    2  A    between atoms: O_4  and  C_23
REMARK    3  A    between atoms: N_7  and  C_21
REMARK    4  A    between atoms: N_9  and  C_29
REMARK    5  A    between atoms: C_11  and  C_17
REMARK    6  A    between atoms: C_12  and  C_18
REMARK    7  A    between atoms: C_20  and  C_22
REMARK    8  A    between atoms: C_36  and  C_39
REMARK                            x       y       z     vdW  Elec       q    Type
REMARK                         _______ _______ _______ _____ _____    ______ ____
ROOT
ATOM      6  N   UNL     1      -5.677 -10.759   9.173  0.00  0.00    -0.296 NA
ATOM     10  C   UNL     1      -4.447  -8.980  10.624  0.00  0.00    +0.002 C 
ATOM     11  C   UNL     1      -4.343 -10.385  11.281  0.00  0.00    +0.055 C 
ATOM     12  C   UNL     1      -6.563  -9.588   9.399  0.00  0.00    +0.095 C 
ATOM     13  C   UNL     1      -5.934  -8.618  10.424  0.00  0.00    +0.026 C 
ATOM     14  C   UNL     1      -3.817  -9.098   9.219  0.00  0.00    +0.019 C 
ATOM     15  C   UNL     1      -5.263 -11.344  10.473  0.00  0.00    +0.094 C 
ATOM     16  C   UNL     1      -4.461 -10.279   8.473  0.00  0.00    +0.085 C 
ENDROOT
BRANCH  11  17
ATOM      7  N   UNL     1      -3.554 -10.523  13.689  0.00  0.00    -0.270 N 
ATOM      8  N   UNL     1      -3.966 -10.624  14.964  0.00  0.00    -0.171 NA
ATOM     17  C   UNL     1      -4.572 -10.494  12.782  0.00  0.00    +0.044 A 
ATOM     19  C   UNL     1      -5.731 -10.583  13.514  0.00  0.00    +0.053 A 
ATOM     20  C   UNL     1      -5.297 -10.659  14.852  0.00  0.00    +0.093 A 
ATOM     21  C   UNL     1      -2.139 -10.459  13.408  0.00  0.00    +0.172 C 
BRANCH  20  22
ATOM     22  C   UNL     1      -6.128 -10.769  16.022  0.00  0.00    +0.003 A 
ATOM     24  C   UNL     1      -6.569 -12.022  16.450  0.00  0.00    +0.018 A 
ATOM     25  C   UNL     1      -6.492  -9.624  16.726  0.00  0.00    +0.011 A 
ATOM     26  C   UNL     1      -7.380 -12.145  17.590  0.00  0.00    -0.017 A 
ATOM     27  C   UNL     1      -7.297  -9.728  17.860  0.00  0.00    +0.009 A 
ATOM     28  C   UNL     1      -7.749 -10.981  18.305  0.00  0.00    -0.018 A 
ATOM     30  C   UNL     1      -7.833 -13.398  18.034  0.00  0.00    +0.008 A 
ATOM     31  C   UNL     1      -8.561 -11.104  19.444  0.00  0.00    +0.008 A 
ATOM     34  C   UNL     1      -8.638 -13.502  19.168  0.00  0.00    +0.001 A 
ATOM     35  C   UNL     1      -9.001 -12.357  19.873  0.00  0.00    +0.001 A 
ENDBRANCH  20  22
ENDBRANCH  11  17
BRANCH  12  18
ATOM     18  C   UNL     1      -7.981  -9.999   9.801  0.00  0.00    +0.252 C 
BRANCH  18   4
ATOM      4  O   UNL     1      -8.397  -9.180  10.877  0.00  0.00    -0.449 OA
BRANCH   4  23
ATOM      5  O   UNL     1     -10.441 -10.096  11.337  0.00  0.00    -0.226 OA
ATOM      9  N   UNL     1      -8.855  -9.709  13.016  0.00  0.00    -0.251 N 
ATOM     23  C   UNL     1      -9.346  -9.706  11.725  0.00  0.00    +0.405 C 
ATOM     40  H   UNL     1      -7.916  -9.342  13.141  0.00  0.00    +0.158 HD
BRANCH   9  29
ATOM     29  C   UNL     1      -9.499 -10.161  14.191  0.00  0.00    +0.037 A 
ATOM     32  C   UNL     1      -9.903  -9.245  15.163  0.00  0.00    +0.035 A 
ATOM     33  C   UNL     1      -9.732 -11.525  14.377  0.00  0.00    +0.023 A 
ATOM     36  C   UNL     1     -10.539  -9.692  16.321  0.00  0.00    +0.057 A 
ATOM     37  C   UNL     1     -10.367 -11.970  15.536  0.00  0.00    +0.002 A 
ATOM     38  C   UNL     1     -10.771 -11.054  16.508  0.00  0.00    +0.012 A 
BRANCH  36  39
ATOM      1  F   UNL     1     -12.101  -8.038  17.010  0.00  0.00    -0.166 F 
ATOM      2  F   UNL     1     -11.241  -9.284  18.571  0.00  0.00    -0.166 F 
ATOM      3  F   UNL     1     -10.036  -7.750  17.623  0.00  0.00    -0.166 F 
ATOM     39  C   UNL     1     -10.968  -8.713  17.360  0.00  0.00    +0.417 C 
ENDBRANCH  36  39
ENDBRANCH   9  29
ENDBRANCH   4  23
ENDBRANCH  18   4
ENDBRANCH  12  18
TORSDOF 7
ENDMDL
MODEL 7
REMARK VINA RESULT:      -6.5      3.233      7.163
REMARK  Name = 44716362
REMARK  8 active torsions:
REMARK  status: ('A' for Active; 'I' for Inactive)
REMARK    1  A    between atoms: O_4  and  C_18
REMARK    2  A    between atoms: O_4  and  C_23
REMARK    3  A    between atoms: N_7  and  C_21
REMARK    4  A    between atoms: N_9  and  C_29
REMARK    5  A    between atoms: C_11  and  C_17
REMARK    6  A    between atoms: C_12  and  C_18
REMARK    7  A    between atoms: C_20  and  C_22
REMARK    8  A    between atoms: C_36  and  C_39
REMARK                            x       y       z     vdW  Elec       q    Type
REMARK                         _______ _______ _______ _____ _____    ______ ____
ROOT
ATOM      6  N   UNL     1      11.428   8.036  -1.702  0.00  0.00    -0.296 NA
ATOM     10  C   UNL     1       8.879   7.598  -1.390  0.00  0.00    +0.002 C 
ATOM     11  C   UNL     1       9.378   8.661  -0.371  0.00  0.00    +0.055 C 
ATOM     12  C   UNL     1      11.170   6.575  -1.611  0.00  0.00    +0.095 C 
ATOM     13  C   UNL     1       9.702   6.303  -1.221  0.00  0.00    +0.026 C 
ATOM     14  C   UNL     1       9.190   8.151  -2.798  0.00  0.00    +0.019 C 
ATOM     15  C   UNL     1      10.928   8.718  -0.481  0.00  0.00    +0.094 C 
ATOM     16  C   UNL     1      10.672   8.559  -2.866  0.00  0.00    +0.085 C 
ENDROOT
BRANCH  11  17
ATOM      7  N   UNL     1       7.767   9.143   1.530  0.00  0.00    -0.270 N 
ATOM      8  N   UNL     1       7.527   8.925   2.834  0.00  0.00    -0.171 NA
ATOM     17  C   UNL     1       8.906   8.549   1.072  0.00  0.00    +0.044 A 
ATOM     19  C   UNL     1       9.449   7.897   2.152  0.00  0.00    +0.053 A 
ATOM     20  C   UNL     1       8.558   8.162   3.209  0.00  0.00    +0.093 A 
ATOM     21  C   UNL     1       6.843   9.951   0.768  0.00  0.00    +0.172 C 
BRANCH  20  22
ATOM     22  C   UNL     1       8.673   7.704   4.569  0.00  0.00    +0.003 A 
ATOM     24  C   UNL     1       9.187   6.434   4.836  0.00  0.00    +0.018 A 
ATOM     25  C   UNL     1       8.273   8.528   5.616  0.00  0.00    +0.011 A 
ATOM     26  C   UNL     1       9.306   5.973   6.157  0.00  0.00    -0.017 A 
ATOM     27  C   UNL     1       8.385   8.087   6.935  0.00  0.00    +0.009 A 
ATOM     28  C   UNL     1       8.899   6.812   7.222  0.00  0.00    -0.018 A 
ATOM     30  C   UNL     1       9.820   4.698   6.444  0.00  0.00    +0.008 A 
ATOM     31  C   UNL     1       9.018   6.351   8.543  0.00  0.00    +0.008 A 
ATOM     34  C   UNL     1       9.931   4.256   7.763  0.00  0.00    +0.001 A 
ATOM     35  C   UNL     1       9.531   5.081   8.811  0.00  0.00    +0.001 A 
ENDBRANCH  20  22
ENDBRANCH  11  17
BRANCH  12  18
ATOM     18  C   UNL     1      12.150   5.868  -0.672  0.00  0.00    +0.252 C 
BRANCH  18   4
ATOM      4  O   UNL     1      11.407   5.206   0.333  0.00  0.00    -0.449 OA
BRANCH   4  23
ATOM      5  O   UNL     1      11.801   4.250   2.373  0.00  0.00    -0.226 OA
ATOM      9  N   UNL     1      12.669   6.349   1.805  0.00  0.00    -0.251 N 
ATOM     23  C   UNL     1      11.955   5.185   1.597  0.00  0.00    +0.405 C 
ATOM     40  H   UNL     1      12.682   7.013   1.035  0.00  0.00    +0.158 HD
BRANCH   9  29
ATOM     29  C   UNL     1      13.387   6.735   2.961  0.00  0.00    +0.037 A 
ATOM     32  C   UNL     1      12.702   7.093   4.121  0.00  0.00    +0.035 A 
ATOM     33  C   UNL     1      14.782   6.756   2.939  0.00  0.00    +0.023 A 
ATOM     36  C   UNL     1      13.410   7.472   5.261  0.00  0.00    +0.057 A 
ATOM     37  C   UNL     1      15.491   7.137   4.079  0.00  0.00    +0.002 A 
ATOM     38  C   UNL     1      14.805   7.494   5.240  0.00  0.00    +0.012 A 
BRANCH  36  39
ATOM      1  F   UNL     1      12.285   6.776   7.236  0.00  0.00    -0.166 F 
ATOM      2  F   UNL     1      13.412   8.631   7.354  0.00  0.00    -0.166 F 
ATOM      3  F   UNL     1      11.538   8.570   6.264  0.00  0.00    -0.166 F 
ATOM     39  C   UNL     1      12.678   7.856   6.501  0.00  0.00    +0.417 C 
ENDBRANCH  36  39
ENDBRANCH   9  29
ENDBRANCH   4  23
ENDBRANCH  18   4
ENDBRANCH  12  18
TORSDOF 7
ENDMDL
MODEL 8
REMARK VINA RESULT:      -6.4     24.098     27.985
REMARK  Name = 44716362
REMARK  8 active torsions:
REMARK  status: ('A' for Active; 'I' for Inactive)
REMARK    1  A    between atoms: O_4  and  C_18
REMARK    2  A    between atoms: O_4  and  C_23
REMARK    3  A    between atoms: N_7  and  C_21
REMARK    4  A    between atoms: N_9  and  C_29
REMARK    5  A    between atoms: C_11  and  C_17
REMARK    6  A    between atoms: C_12  and  C_18
REMARK    7  A    between atoms: C_20  and  C_22
REMARK    8  A    between atoms: C_36  and  C_39
REMARK                            x       y       z     vdW  Elec       q    Type
REMARK                         _______ _______ _______ _____ _____    ______ ____
ROOT
ATOM      6  N   UNL     1      15.157  -7.586  32.087  0.00  0.00    -0.296 NA
ATOM     10  C   UNL     1      13.562  -7.100  30.086  0.00  0.00    +0.002 C 
ATOM     11  C   UNL     1      14.731  -8.021  29.639  0.00  0.00    +0.055 C 
ATOM     12  C   UNL     1      14.907  -6.125  31.979  0.00  0.00    +0.095 C 
ATOM     13  C   UNL     1      14.136  -5.798  30.682  0.00  0.00    +0.026 C 
ATOM     14  C   UNL     1      12.828  -7.836  31.229  0.00  0.00    +0.019 C 
ATOM     15  C   UNL     1      15.739  -8.099  30.821  0.00  0.00    +0.094 C 
ATOM     16  C   UNL     1      13.850  -8.255  32.300  0.00  0.00    +0.085 C 
ENDROOT
BRANCH  11  17
ATOM      7  N   UNL     1      15.892  -8.690  27.484  0.00  0.00    -0.270 N 
ATOM      8  N   UNL     1      16.465  -8.216  26.365  0.00  0.00    -0.171 NA
ATOM     17  C   UNL     1      15.417  -7.718  28.315  0.00  0.00    +0.044 A 
ATOM     19  C   UNL     1      15.700  -6.525  27.696  0.00  0.00    +0.053 A 
ATOM     20  C   UNL     1      16.344  -6.892  26.500  0.00  0.00    +0.093 A 
ATOM     21  C   UNL     1      15.836 -10.118  27.696  0.00  0.00    +0.172 C 
BRANCH  20  22
ATOM     22  C   UNL     1      16.849  -6.003  25.486  0.00  0.00    +0.003 A 
ATOM     24  C   UNL     1      16.264  -4.750  25.302  0.00  0.00    +0.018 A 
ATOM     25  C   UNL     1      17.920  -6.396  24.688  0.00  0.00    +0.011 A 
ATOM     26  C   UNL     1      16.744  -3.872  24.317  0.00  0.00    -0.017 A 
ATOM     27  C   UNL     1      18.411  -5.536  23.705  0.00  0.00    +0.009 A 
ATOM     28  C   UNL     1      17.834  -4.271  23.507  0.00  0.00    -0.018 A 
ATOM     30  C   UNL     1      16.168  -2.607  24.119  0.00  0.00    +0.008 A 
ATOM     31  C   UNL     1      18.315  -3.393  22.522  0.00  0.00    +0.008 A 
ATOM     34  C   UNL     1      16.658  -1.748  23.135  0.00  0.00    +0.001 A 
ATOM     35  C   UNL     1      17.730  -2.140  22.339  0.00  0.00    +0.001 A 
ENDBRANCH  20  22
ENDBRANCH  11  17
BRANCH  12  18
ATOM     18  C   UNL     1      16.194  -5.305  32.099  0.00  0.00    +0.252 C 
BRANCH  18   4
ATOM      4  O   UNL     1      16.245  -4.393  31.019  0.00  0.00    -0.449 OA
BRANCH   4  23
ATOM      5  O   UNL     1      18.464  -3.856  31.154  0.00  0.00    -0.226 OA
ATOM      9  N   UNL     1      17.419  -4.280  29.102  0.00  0.00    -0.251 N 
ATOM     23  C   UNL     1      17.486  -4.145  30.475  0.00  0.00    +0.405 C 
ATOM     40  H   UNL     1      16.511  -4.528  28.718  0.00  0.00    +0.158 HD
BRANCH   9  29
ATOM     29  C   UNL     1      18.460  -4.115  28.159  0.00  0.00    +0.037 A 
ATOM     32  C   UNL     1      18.571  -2.923  27.444  0.00  0.00    +0.035 A 
ATOM     33  C   UNL     1      19.377  -5.145  27.947  0.00  0.00    +0.023 A 
ATOM     36  C   UNL     1      19.599  -2.760  26.515  0.00  0.00    +0.057 A 
ATOM     37  C   UNL     1      20.404  -4.982  27.017  0.00  0.00    +0.002 A 
ATOM     38  C   UNL     1      20.515  -3.790  26.301  0.00  0.00    +0.012 A 
BRANCH  36  39
ATOM      1  F   UNL     1      18.510  -0.885  25.541  0.00  0.00    -0.166 F 
ATOM      2  F   UNL     1      20.495  -0.547  26.362  0.00  0.00    -0.166 F 
ATOM      3  F   UNL     1      20.265  -1.645  24.507  0.00  0.00    -0.166 F 
ATOM     39  C   UNL     1      19.717  -1.487  25.748  0.00  0.00    +0.417 C 
ENDBRANCH  36  39
ENDBRANCH   9  29
ENDBRANCH   4  23
ENDBRANCH  18   4
ENDBRANCH  12  18
TORSDOF 7
ENDMDL
MODEL 9
REMARK VINA RESULT:      -6.4      3.236      7.468
REMARK  Name = 44716362
REMARK  8 active torsions:
REMARK  status: ('A' for Active; 'I' for Inactive)
REMARK    1  A    between atoms: O_4  and  C_18
REMARK    2  A    between atoms: O_4  and  C_23
REMARK    3  A    between atoms: N_7  and  C_21
REMARK    4  A    between atoms: N_9  and  C_29
REMARK    5  A    between atoms: C_11  and  C_17
REMARK    6  A    between atoms: C_12  and  C_18
REMARK    7  A    between atoms: C_20  and  C_22
REMARK    8  A    between atoms: C_36  and  C_39
REMARK                            x       y       z     vdW  Elec       q    Type
REMARK                         _______ _______ _______ _____ _____    ______ ____
ROOT
ATOM      6  N   UNL     1      15.451   6.715  -1.125  0.00  0.00    -0.296 NA
ATOM     10  C   UNL     1      14.457   4.387  -0.508  0.00  0.00    +0.002 C 
ATOM     11  C   UNL     1      13.320   5.425  -0.724  0.00  0.00    +0.055 C 
ATOM     12  C   UNL     1      16.129   6.176   0.083  0.00  0.00    +0.095 C 
ATOM     13  C   UNL     1      15.418   4.901   0.585  0.00  0.00    +0.026 C 
ATOM     14  C   UNL     1      15.261   4.328  -1.826  0.00  0.00    +0.019 C 
ATOM     15  C   UNL     1      13.990   6.820  -0.885  0.00  0.00    +0.094 C 
ATOM     16  C   UNL     1      15.670   5.754  -2.233  0.00  0.00    +0.085 C 
ENDROOT
BRANCH  11  17
ATOM      7  N   UNL     1      11.003   4.775   0.079  0.00  0.00    -0.270 N 
ATOM      8  N   UNL     1      10.115   4.925   1.077  0.00  0.00    -0.171 NA
ATOM     17  C   UNL     1      12.172   5.449   0.275  0.00  0.00    +0.044 A 
ATOM     19  C   UNL     1      12.040   6.086   1.485  0.00  0.00    +0.053 A 
ATOM     20  C   UNL     1      10.755   5.727   1.934  0.00  0.00    +0.093 A 
ATOM     21  C   UNL     1      10.654   3.953  -1.057  0.00  0.00    +0.172 C 
BRANCH  20  22
ATOM     22  C   UNL     1      10.126   6.137   3.162  0.00  0.00    +0.003 A 
ATOM     24  C   UNL     1      10.500   5.547   4.369  0.00  0.00    +0.018 A 
ATOM     25  C   UNL     1       9.143   7.123   3.144  0.00  0.00    +0.011 A 
ATOM     26  C   UNL     1       9.896   5.936   5.576  0.00  0.00    -0.017 A 
ATOM     27  C   UNL     1       8.533   7.523   4.333  0.00  0.00    +0.009 A 
ATOM     28  C   UNL     1       8.898   6.939   5.556  0.00  0.00    -0.018 A 
ATOM     30  C   UNL     1      10.261   5.352   6.799  0.00  0.00    +0.008 A 
ATOM     31  C   UNL     1       8.293   7.328   6.763  0.00  0.00    +0.008 A 
ATOM     34  C   UNL     1       9.649   5.751   7.988  0.00  0.00    +0.001 A 
ATOM     35  C   UNL     1       8.668   6.738   7.970  0.00  0.00    +0.001 A 
ENDBRANCH  20  22
ENDBRANCH  11  17
BRANCH  12  18
ATOM     18  C   UNL     1      16.266   7.225   1.189  0.00  0.00    +0.252 C 
BRANCH  18   4
ATOM      4  O   UNL     1      15.638   6.728   2.356  0.00  0.00    -0.449 OA
BRANCH   4  23
ATOM      5  O   UNL     1      15.575   8.805   3.312  0.00  0.00    -0.226 OA
ATOM      9  N   UNL     1      14.114   7.098   3.971  0.00  0.00    -0.251 N 
ATOM     23  C   UNL     1      15.139   7.663   3.236  0.00  0.00    +0.405 C 
ATOM     40  H   UNL     1      13.894   6.128   3.763  0.00  0.00    +0.158 HD
BRANCH   9  29
ATOM     29  C   UNL     1      13.331   7.703   4.981  0.00  0.00    +0.037 A 
ATOM     32  C   UNL     1      12.408   8.696   4.648  0.00  0.00    +0.035 A 
ATOM     33  C   UNL     1      13.480   7.306   6.310  0.00  0.00    +0.023 A 
ATOM     36  C   UNL     1      11.635   9.291   5.645  0.00  0.00    +0.057 A 
ATOM     37  C   UNL     1      12.708   7.903   7.306  0.00  0.00    +0.002 A 
ATOM     38  C   UNL     1      11.785   8.895   6.974  0.00  0.00    +0.012 A 
BRANCH  36  39
ATOM      1  F   UNL     1      11.149  11.611   5.465  0.00  0.00    -0.166 F 
ATOM      2  F   UNL     1      10.232  10.302   3.991  0.00  0.00    -0.166 F 
ATOM      3  F   UNL     1       9.506  10.307   6.034  0.00  0.00    -0.166 F 
ATOM     39  C   UNL     1      10.651  10.353   5.290  0.00  0.00    +0.417 C 
ENDBRANCH  36  39
ENDBRANCH   9  29
ENDBRANCH   4  23
ENDBRANCH  18   4
ENDBRANCH  12  18
TORSDOF 7
ENDMDL
MODEL 10
REMARK VINA RESULT:      -6.3     13.815     17.322
REMARK  Name = 44716362
REMARK  8 active torsions:
REMARK  status: ('A' for Active; 'I' for Inactive)
REMARK    1  A    between atoms: O_4  and  C_18
REMARK    2  A    between atoms: O_4  and  C_23
REMARK    3  A    between atoms: N_7  and  C_21
REMARK    4  A    between atoms: N_9  and  C_29
REMARK    5  A    between atoms: C_11  and  C_17
REMARK    6  A    between atoms: C_12  and  C_18
REMARK    7  A    between atoms: C_20  and  C_22
REMARK    8  A    between atoms: C_36  and  C_39
REMARK                            x       y       z     vdW  Elec       q    Type
REMARK                         _______ _______ _______ _____ _____    ______ ____
ROOT
ATOM      6  N   UNL     1      12.965   6.911  21.107  0.00  0.00    -0.296 NA
ATOM     10  C   UNL     1      11.455   8.871  20.291  0.00  0.00    +0.002 C 
ATOM     11  C   UNL     1      12.067   8.113  19.079  0.00  0.00    +0.055 C 
ATOM     12  C   UNL     1      13.329   8.165  21.819  0.00  0.00    +0.095 C 
ATOM     13  C   UNL     1      12.592   9.374  21.205  0.00  0.00    +0.026 C 
ATOM     14  C   UNL     1      10.648   7.834  21.102  0.00  0.00    +0.019 C 
ATOM     15  C   UNL     1      13.104   7.100  19.641  0.00  0.00    +0.094 C 
ATOM     16  C   UNL     1      11.542   6.619  21.403  0.00  0.00    +0.085 C 
ENDROOT
BRANCH  11  17
ATOM      7  N   UNL     1      11.957   9.132  16.758  0.00  0.00    -0.270 N 
ATOM      8  N   UNL     1      12.625   9.885  15.868  0.00  0.00    -0.171 NA
ATOM     17  C   UNL     1      12.628   8.935  17.928  0.00  0.00    +0.044 A 
ATOM     19  C   UNL     1      13.819   9.607  17.795  0.00  0.00    +0.053 A 
ATOM     20  C   UNL     1      13.761  10.174  16.508  0.00  0.00    +0.093 A 
ATOM     21  C   UNL     1      10.652   8.620  16.409  0.00  0.00    +0.172 C 
BRANCH  20  22
ATOM     22  C   UNL     1      14.772  10.982  15.877  0.00  0.00    +0.003 A 
ATOM     24  C   UNL     1      14.887  10.996  14.486  0.00  0.00    +0.018 A 
ATOM     25  C   UNL     1      15.634  11.751  16.654  0.00  0.00    +0.011 A 
ATOM     26  C   UNL     1      15.868  11.779  13.855  0.00  0.00    -0.017 A 
ATOM     27  C   UNL     1      16.613  12.535  16.045  0.00  0.00    +0.009 A 
ATOM     28  C   UNL     1      16.743  12.560  14.647  0.00  0.00    -0.018 A 
ATOM     30  C   UNL     1      15.998  11.804  12.458  0.00  0.00    +0.008 A 
ATOM     31  C   UNL     1      17.724  13.342  14.017  0.00  0.00    +0.008 A 
ATOM     34  C   UNL     1      16.979  12.587  11.848  0.00  0.00    +0.001 A 
ATOM     35  C   UNL     1      17.840  13.356  12.626  0.00  0.00    +0.001 A 
ENDBRANCH  20  22
ENDBRANCH  11  17
BRANCH  12  18
ATOM     18  C   UNL     1      14.842   8.386  21.871  0.00  0.00    +0.252 C 
BRANCH  18   4
ATOM      4  O   UNL     1      15.480   7.123  21.839  0.00  0.00    -0.449 OA
BRANCH   4  23
ATOM      5  O   UNL     1      16.630   6.800  19.889  0.00  0.00    -0.226 OA
ATOM      9  N   UNL     1      17.727   7.235  21.911  0.00  0.00    -0.251 N 
ATOM     23  C   UNL     1      16.633   7.030  21.092  0.00  0.00    +0.405 C 
ATOM     40  H   UNL     1      17.526   7.414  22.892  0.00  0.00    +0.158 HD
BRANCH   9  29
ATOM     29  C   UNL     1      19.095   7.226  21.555  0.00  0.00    +0.037 A 
ATOM     32  C   UNL     1      19.775   6.016  21.422  0.00  0.00    +0.035 A 
ATOM     33  C   UNL     1      19.765   8.431  21.335  0.00  0.00    +0.023 A 
ATOM     36  C   UNL     1      21.124   6.008  21.070  0.00  0.00    +0.057 A 
ATOM     37  C   UNL     1      21.115   8.423  20.984  0.00  0.00    +0.002 A 
ATOM     38  C   UNL     1      21.794   7.212  20.851  0.00  0.00    +0.012 A 
BRANCH  36  39
ATOM      1  F   UNL     1      22.814   4.755  19.964  0.00  0.00    -0.166 F 
ATOM      2  F   UNL     1      22.492   4.318  22.070  0.00  0.00    -0.166 F 
ATOM      3  F   UNL     1      21.042   3.666  20.594  0.00  0.00    -0.166 F 
ATOM     39  C   UNL     1      21.851   4.714  20.930  0.00  0.00    +0.417 C 
ENDBRANCH  36  39
ENDBRANCH   9  29
ENDBRANCH   4  23
ENDBRANCH  18   4
ENDBRANCH  12  18
TORSDOF 7
ENDMDL
