MODEL 1
REMARK VINA RESULT:      -6.9      0.000      0.000
REMARK  Name = 75368465
REMARK  7 active torsions:
REMARK  status: ('A' for Active; 'I' for Inactive)
REMARK    1  A    between atoms: S_1  and  N_7
REMARK    2  A    between atoms: S_1  and  C_16
REMARK    3  A    between atoms: O_5  and  C_27
REMARK    4  A    between atoms: O_5  and  C_29
REMARK    5  A    between atoms: N_8  and  C_15
REMARK    6  A    between atoms: C_15  and  C_17
REMARK    7  A    between atoms: C_24  and  C_28
REMARK                            x       y       z     vdW  Elec       q    Type
REMARK                         _______ _______ _______ _____ _____    ______ ____
ROOT
ATOM      2  O   UNL     1      -1.307 -11.372  15.057  0.00  0.00    -0.252 OA
ATOM      6  N   UNL     1      -3.513 -11.099  15.818  0.00  0.00    -0.278 N 
ATOM      7  N   UNL     1      -5.711 -11.322  17.532  0.00  0.00    -0.173 NA
ATOM      8  N   UNL     1      -3.192 -11.721  13.683  0.00  0.00    -0.279 N 
ATOM      9  C   UNL     1      -4.843 -11.112  15.238  0.00  0.00    +0.111 C 
ATOM     10  C   UNL     1      -5.809 -11.873  16.139  0.00  0.00    +0.133 C 
ATOM     11  C   UNL     1      -4.634 -11.734  13.860  0.00  0.00    +0.133 C 
ATOM     12  C   UNL     1      -3.337 -10.703  17.202  0.00  0.00    +0.127 C 
ATOM     13  C   UNL     1      -4.324 -11.455  18.089  0.00  0.00    +0.128 C 
ATOM     14  C   UNL     1      -2.518 -11.391  14.876  0.00  0.00    +0.305 C 
ENDROOT
BRANCH   7   1
ATOM      1  S   UNL     1      -6.972 -11.793  18.593  0.00  0.00    +0.061 S 
ATOM      3  O   UNL     1      -6.569 -11.518  19.955  0.00  0.00    -0.153 OA
ATOM      4  O   UNL     1      -7.447 -13.103  18.204  0.00  0.00    -0.153 OA
BRANCH   1  16
ATOM     16  C   UNL     1      -8.206 -10.612  18.145  0.00  0.00    +0.105 A 
ATOM     18  C   UNL     1      -7.852  -9.473  17.422  0.00  0.00    +0.029 A 
ATOM     19  C   UNL     1      -9.536 -10.822  18.511  0.00  0.00    +0.029 A 
ATOM     22  C   UNL     1      -8.828  -8.542  17.066  0.00  0.00    +0.005 A 
ATOM     23  C   UNL     1     -10.511  -9.890  18.156  0.00  0.00    +0.005 A 
ATOM     24  C   UNL     1     -10.158  -8.750  17.433  0.00  0.00    -0.050 A 
ATOM     28  C   UNL     1     -11.202  -7.756  17.052  0.00  0.00    +0.044 C 
ENDBRANCH   1  16
ENDBRANCH   7   1
BRANCH   8  15
ATOM     15  C   UNL     1      -2.568 -12.137  12.447  0.00  0.00    +0.144 C 
BRANCH  15  17
ATOM     17  C   UNL     1      -3.156 -11.434  11.257  0.00  0.00    -0.030 A 
ATOM     20  C   UNL     1      -3.867 -12.159  10.300  0.00  0.00    +0.009 A 
ATOM     21  C   UNL     1      -2.992 -10.057  11.109  0.00  0.00    +0.009 A 
ATOM     25  C   UNL     1      -4.412 -11.507   9.194  0.00  0.00    +0.046 A 
ATOM     26  C   UNL     1      -3.538  -9.404  10.003  0.00  0.00    +0.046 A 
ATOM     27  C   UNL     1      -4.248 -10.130   9.046  0.00  0.00    +0.120 A 
BRANCH  27   5
ATOM      5  O   UNL     1      -4.779  -9.493   7.967  0.00  0.00    -0.495 OA
ATOM     29  C   UNL     1      -5.526 -10.289   7.046  0.00  0.00    +0.277 C 
ENDBRANCH  27   5
ENDBRANCH  15  17
ENDBRANCH   8  15
TORSDOF 5
ENDMDL
MODEL 2
REMARK VINA RESULT:      -6.8     20.258     22.657
REMARK  Name = 75368465
REMARK  7 active torsions:
REMARK  status: ('A' for Active; 'I' for Inactive)
REMARK    1  A    between atoms: S_1  and  N_7
REMARK    2  A    between atoms: S_1  and  C_16
REMARK    3  A    between atoms: O_5  and  C_27
REMARK    4  A    between atoms: O_5  and  C_29
REMARK    5  A    between atoms: N_8  and  C_15
REMARK    6  A    between atoms: C_15  and  C_17
REMARK    7  A    between atoms: C_24  and  C_28
REMARK                            x       y       z     vdW  Elec       q    Type
REMARK                         _______ _______ _______ _____ _____    ______ ____
ROOT
ATOM      2  O   UNL     1     -18.348   4.212  27.513  0.00  0.00    -0.252 OA
ATOM      6  N   UNL     1     -17.202   4.567  25.492  0.00  0.00    -0.278 N 
ATOM      7  N   UNL     1     -16.812   5.344  22.835  0.00  0.00    -0.173 NA
ATOM      8  N   UNL     1     -16.911   2.608  26.554  0.00  0.00    -0.279 N 
ATOM      9  C   UNL     1     -16.192   3.877  24.713  0.00  0.00    +0.111 C 
ATOM     10  C   UNL     1     -16.544   3.920  23.229  0.00  0.00    +0.133 C 
ATOM     11  C   UNL     1     -16.158   2.476  25.318  0.00  0.00    +0.133 C 
ATOM     12  C   UNL     1     -17.620   5.901  25.107  0.00  0.00    +0.127 C 
ATOM     13  C   UNL     1     -17.948   5.936  23.618  0.00  0.00    +0.128 C 
ATOM     14  C   UNL     1     -17.581   3.845  26.632  0.00  0.00    +0.305 C 
ENDROOT
BRANCH   7   1
ATOM      1  S   UNL     1     -16.859   5.636  21.147  0.00  0.00    +0.061 S 
ATOM      3  O   UNL     1     -17.771   6.728  20.883  0.00  0.00    -0.153 OA
ATOM      4  O   UNL     1     -16.987   4.372  20.456  0.00  0.00    -0.153 OA
BRANCH   1  16
ATOM     16  C   UNL     1     -15.216   6.231  20.893  0.00  0.00    +0.105 A 
ATOM     18  C   UNL     1     -14.972   7.220  19.941  0.00  0.00    +0.029 A 
ATOM     19  C   UNL     1     -14.163   5.714  21.649  0.00  0.00    +0.029 A 
ATOM     22  C   UNL     1     -13.674   7.692  19.743  0.00  0.00    +0.005 A 
ATOM     23  C   UNL     1     -12.866   6.186  21.449  0.00  0.00    +0.005 A 
ATOM     24  C   UNL     1     -12.621   7.174  20.496  0.00  0.00    -0.050 A 
ATOM     28  C   UNL     1     -11.234   7.678  20.286  0.00  0.00    +0.044 C 
ENDBRANCH   1  16
ENDBRANCH   7   1
BRANCH   8  15
ATOM     15  C   UNL     1     -17.034   1.518  27.495  0.00  0.00    +0.144 C 
BRANCH  15  17
ATOM     17  C   UNL     1     -16.101   1.674  28.661  0.00  0.00    -0.030 A 
ATOM     20  C   UNL     1     -15.937   0.626  29.568  0.00  0.00    +0.009 A 
ATOM     21  C   UNL     1     -15.400   2.867  28.839  0.00  0.00    +0.009 A 
ATOM     25  C   UNL     1     -15.071   0.771  30.652  0.00  0.00    +0.046 A 
ATOM     26  C   UNL     1     -14.534   3.012  29.924  0.00  0.00    +0.046 A 
ATOM     27  C   UNL     1     -14.369   1.963  30.829  0.00  0.00    +0.120 A 
BRANCH  27   5
ATOM      5  O   UNL     1     -13.525   2.106  31.887  0.00  0.00    -0.495 OA
ATOM     29  C   UNL     1     -13.157   3.438  32.247  0.00  0.00    +0.277 C 
ENDBRANCH  27   5
ENDBRANCH  15  17
ENDBRANCH   8  15
TORSDOF 5
ENDMDL
MODEL 3
REMARK VINA RESULT:      -6.6     20.534     23.991
REMARK  Name = 75368465
REMARK  7 active torsions:
REMARK  status: ('A' for Active; 'I' for Inactive)
REMARK    1  A    between atoms: S_1  and  N_7
REMARK    2  A    between atoms: S_1  and  C_16
REMARK    3  A    between atoms: O_5  and  C_27
REMARK    4  A    between atoms: O_5  and  C_29
REMARK    5  A    between atoms: N_8  and  C_15
REMARK    6  A    between atoms: C_15  and  C_17
REMARK    7  A    between atoms: C_24  and  C_28
REMARK                            x       y       z     vdW  Elec       q    Type
REMARK                         _______ _______ _______ _____ _____    ______ ____
ROOT
ATOM      2  O   UNL     1     -14.349   0.668  29.488  0.00  0.00    -0.252 OA
ATOM      6  N   UNL     1     -14.697   2.664  30.678  0.00  0.00    -0.278 N 
ATOM      7  N   UNL     1     -14.683   4.424  32.851  0.00  0.00    -0.173 NA
ATOM      8  N   UNL     1     -16.349   1.909  29.355  0.00  0.00    -0.279 N 
ATOM      9  C   UNL     1     -15.712   3.700  30.735  0.00  0.00    +0.111 C 
ATOM     10  C   UNL     1     -15.986   4.097  32.181  0.00  0.00    +0.133 C 
ATOM     11  C   UNL     1     -16.904   3.083  30.007  0.00  0.00    +0.133 C 
ATOM     12  C   UNL     1     -13.453   2.836  31.403  0.00  0.00    +0.127 C 
ATOM     13  C   UNL     1     -13.741   3.255  32.841  0.00  0.00    +0.128 C 
ATOM     14  C   UNL     1     -15.042   1.628  29.799  0.00  0.00    +0.305 C 
ENDROOT
BRANCH   7   1
ATOM      1  S   UNL     1     -14.819   5.239  34.352  0.00  0.00    +0.061 S 
ATOM      3  O   UNL     1     -14.176   4.448  35.378  0.00  0.00    -0.153 OA
ATOM      4  O   UNL     1     -16.179   5.706  34.510  0.00  0.00    -0.153 OA
BRANCH   1  16
ATOM     16  C   UNL     1     -13.797   6.643  34.032  0.00  0.00    +0.105 A 
ATOM     18  C   UNL     1     -13.518   7.019  32.718  0.00  0.00    +0.029 A 
ATOM     19  C   UNL     1     -13.272   7.379  35.095  0.00  0.00    +0.029 A 
ATOM     22  C   UNL     1     -12.713   8.129  32.466  0.00  0.00    +0.005 A 
ATOM     23  C   UNL     1     -12.466   8.489  34.842  0.00  0.00    +0.005 A 
ATOM     24  C   UNL     1     -12.187   8.865  33.528  0.00  0.00    -0.050 A 
ATOM     28  C   UNL     1     -11.327  10.053  33.259  0.00  0.00    +0.044 C 
ENDBRANCH   1  16
ENDBRANCH   7   1
BRANCH   8  15
ATOM     15  C   UNL     1     -17.135   1.086  28.464  0.00  0.00    +0.144 C 
BRANCH  15  17
ATOM     17  C   UNL     1     -16.987   1.507  27.031  0.00  0.00    -0.030 A 
ATOM     20  C   UNL     1     -17.540   0.728  26.014  0.00  0.00    +0.009 A 
ATOM     21  C   UNL     1     -16.297   2.678  26.715  0.00  0.00    +0.009 A 
ATOM     25  C   UNL     1     -17.402   1.119  24.682  0.00  0.00    +0.046 A 
ATOM     26  C   UNL     1     -16.159   3.069  25.383  0.00  0.00    +0.046 A 
ATOM     27  C   UNL     1     -16.712   2.290  24.367  0.00  0.00    +0.120 A 
BRANCH  27   5
ATOM      5  O   UNL     1     -16.576   2.672  23.068  0.00  0.00    -0.495 OA
ATOM     29  C   UNL     1     -17.502   3.641  22.577  0.00  0.00    +0.277 C 
ENDBRANCH  27   5
ENDBRANCH  15  17
ENDBRANCH   8  15
TORSDOF 5
ENDMDL
MODEL 4
REMARK VINA RESULT:      -6.4      2.674      8.813
REMARK  Name = 75368465
REMARK  7 active torsions:
REMARK  status: ('A' for Active; 'I' for Inactive)
REMARK    1  A    between atoms: S_1  and  N_7
REMARK    2  A    between atoms: S_1  and  C_16
REMARK    3  A    between atoms: O_5  and  C_27
REMARK    4  A    between atoms: O_5  and  C_29
REMARK    5  A    between atoms: N_8  and  C_15
REMARK    6  A    between atoms: C_15  and  C_17
REMARK    7  A    between atoms: C_24  and  C_28
REMARK                            x       y       z     vdW  Elec       q    Type
REMARK                         _______ _______ _______ _____ _____    ______ ____
ROOT
ATOM      2  O   UNL     1      -7.370 -14.175  17.621  0.00  0.00    -0.252 OA
ATOM      6  N   UNL     1      -5.975 -12.610  16.560  0.00  0.00    -0.278 N 
ATOM      7  N   UNL     1      -3.781 -11.653  15.115  0.00  0.00    -0.173 NA
ATOM      8  N   UNL     1      -6.774 -12.114  18.600  0.00  0.00    -0.279 N 
ATOM      9  C   UNL     1      -5.522 -11.254  16.809  0.00  0.00    +0.111 C 
ATOM     10  C   UNL     1      -4.035 -11.124  16.497  0.00  0.00    +0.133 C 
ATOM     11  C   UNL     1      -5.889 -11.010  18.270  0.00  0.00    +0.133 C 
ATOM     12  C   UNL     1      -5.662 -13.251  15.297  0.00  0.00    +0.127 C 
ATOM     13  C   UNL     1      -4.177 -13.095  14.986  0.00  0.00    +0.128 C 
ATOM     14  C   UNL     1      -6.783 -13.101  17.594  0.00  0.00    +0.305 C 
ENDROOT
BRANCH   7   1
ATOM      1  S   UNL     1      -2.252 -11.254  14.451  0.00  0.00    +0.061 S 
ATOM      3  O   UNL     1      -1.532 -12.474  14.162  0.00  0.00    -0.153 OA
ATOM      4  O   UNL     1      -1.655 -10.204  15.248  0.00  0.00    -0.153 OA
BRANCH   1  16
ATOM     16  C   UNL     1      -2.759 -10.548  12.915  0.00  0.00    +0.105 A 
ATOM     18  C   UNL     1      -1.802 -10.112  11.997  0.00  0.00    +0.029 A 
ATOM     19  C   UNL     1      -4.116 -10.430  12.616  0.00  0.00    +0.029 A 
ATOM     22  C   UNL     1      -2.203  -9.557  10.783  0.00  0.00    +0.005 A 
ATOM     23  C   UNL     1      -4.516  -9.874  11.401  0.00  0.00    +0.005 A 
ATOM     24  C   UNL     1      -3.560  -9.438  10.484  0.00  0.00    -0.050 A 
ATOM     28  C   UNL     1      -3.989  -8.845   9.185  0.00  0.00    +0.044 C 
ENDBRANCH   1  16
ENDBRANCH   7   1
BRANCH   8  15
ATOM     15  C   UNL     1      -7.438 -12.206  19.881  0.00  0.00    +0.144 C 
BRANCH  15  17
ATOM     17  C   UNL     1      -8.915 -11.957  19.767  0.00  0.00    -0.030 A 
ATOM     20  C   UNL     1      -9.820 -12.958  20.121  0.00  0.00    +0.009 A 
ATOM     21  C   UNL     1      -9.381 -10.725  19.309  0.00  0.00    +0.009 A 
ATOM     25  C   UNL     1     -11.192 -12.727  20.015  0.00  0.00    +0.046 A 
ATOM     26  C   UNL     1     -10.753 -10.494  19.203  0.00  0.00    +0.046 A 
ATOM     27  C   UNL     1     -11.658 -11.495  19.557  0.00  0.00    +0.120 A 
BRANCH  27   5
ATOM      5  O   UNL     1     -12.996 -11.269  19.452  0.00  0.00    -0.495 OA
ATOM     29  C   UNL     1     -13.830 -11.836  20.463  0.00  0.00    +0.277 C 
ENDBRANCH  27   5
ENDBRANCH  15  17
ENDBRANCH   8  15
TORSDOF 5
ENDMDL
MODEL 5
REMARK VINA RESULT:      -6.4     28.213     30.845
REMARK  Name = 75368465
REMARK  7 active torsions:
REMARK  status: ('A' for Active; 'I' for Inactive)
REMARK    1  A    between atoms: S_1  and  N_7
REMARK    2  A    between atoms: S_1  and  C_16
REMARK    3  A    between atoms: O_5  and  C_27
REMARK    4  A    between atoms: O_5  and  C_29
REMARK    5  A    between atoms: N_8  and  C_15
REMARK    6  A    between atoms: C_15  and  C_17
REMARK    7  A    between atoms: C_24  and  C_28
REMARK                            x       y       z     vdW  Elec       q    Type
REMARK                         _______ _______ _______ _____ _____    ______ ____
ROOT
ATOM      2  O   UNL     1      11.123  10.755  25.206  0.00  0.00    -0.252 OA
ATOM      6  N   UNL     1      11.206  10.300  22.902  0.00  0.00    -0.278 N 
ATOM      7  N   UNL     1      11.881   8.951  20.548  0.00  0.00    -0.173 NA
ATOM      8  N   UNL     1      11.548  12.413  23.585  0.00  0.00    -0.279 N 
ATOM      9  C   UNL     1      11.317  11.066  21.675  0.00  0.00    +0.111 C 
ATOM     10  C   UNL     1      12.285  10.388  20.711  0.00  0.00    +0.133 C 
ATOM     11  C   UNL     1      11.756  12.450  22.148  0.00  0.00    +0.133 C 
ATOM     12  C   UNL     1      10.945   8.875  22.839  0.00  0.00    +0.127 C 
ATOM     13  C   UNL     1      11.904   8.213  21.855  0.00  0.00    +0.128 C 
ATOM     14  C   UNL     1      11.270  11.110  24.044  0.00  0.00    +0.305 C 
ENDROOT
BRANCH   7   1
ATOM      1  S   UNL     1      12.614   8.132  19.234  0.00  0.00    +0.061 S 
ATOM      3  O   UNL     1      12.686   9.029  18.101  0.00  0.00    -0.153 OA
ATOM      4  O   UNL     1      12.021   6.818  19.110  0.00  0.00    -0.153 OA
BRANCH   1  16
ATOM     16  C   UNL     1      14.249   7.932  19.870  0.00  0.00    +0.105 A 
ATOM     18  C   UNL     1      15.119   9.022  19.912  0.00  0.00    +0.029 A 
ATOM     19  C   UNL     1      14.668   6.686  20.335  0.00  0.00    +0.029 A 
ATOM     22  C   UNL     1      16.409   8.864  20.417  0.00  0.00    +0.005 A 
ATOM     23  C   UNL     1      15.959   6.529  20.840  0.00  0.00    +0.005 A 
ATOM     24  C   UNL     1      16.830   7.618  20.881  0.00  0.00    -0.050 A 
ATOM     28  C   UNL     1      18.209   7.449  21.422  0.00  0.00    +0.044 C 
ENDBRANCH   1  16
ENDBRANCH   7   1
BRANCH   8  15
ATOM     15  C   UNL     1      11.747  13.578  24.417  0.00  0.00    +0.144 C 
BRANCH  15  17
ATOM     17  C   UNL     1      13.122  13.611  25.019  0.00  0.00    -0.030 A 
ATOM     20  C   UNL     1      14.202  14.075  24.266  0.00  0.00    +0.009 A 
ATOM     21  C   UNL     1      13.322  13.177  26.329  0.00  0.00    +0.009 A 
ATOM     25  C   UNL     1      15.480  14.105  24.825  0.00  0.00    +0.046 A 
ATOM     26  C   UNL     1      14.600  13.207  26.888  0.00  0.00    +0.046 A 
ATOM     27  C   UNL     1      15.679  13.672  26.135  0.00  0.00    +0.120 A 
BRANCH  27   5
ATOM      5  O   UNL     1      16.925  13.699  26.680  0.00  0.00    -0.495 OA
ATOM     29  C   UNL     1      18.010  13.308  25.839  0.00  0.00    +0.277 C 
ENDBRANCH  27   5
ENDBRANCH  15  17
ENDBRANCH   8  15
TORSDOF 5
ENDMDL
MODEL 6
REMARK VINA RESULT:      -6.4     28.584     30.601
REMARK  Name = 75368465
REMARK  7 active torsions:
REMARK  status: ('A' for Active; 'I' for Inactive)
REMARK    1  A    between atoms: S_1  and  N_7
REMARK    2  A    between atoms: S_1  and  C_16
REMARK    3  A    between atoms: O_5  and  C_27
REMARK    4  A    between atoms: O_5  and  C_29
REMARK    5  A    between atoms: N_8  and  C_15
REMARK    6  A    between atoms: C_15  and  C_17
REMARK    7  A    between atoms: C_24  and  C_28
REMARK                            x       y       z     vdW  Elec       q    Type
REMARK                         _______ _______ _______ _____ _____    ______ ____
ROOT
ATOM      2  O   UNL     1      14.811  13.686  18.041  0.00  0.00    -0.252 OA
ATOM      6  N   UNL     1      13.838  11.552  18.194  0.00  0.00    -0.278 N 
ATOM      7  N   UNL     1      13.162   9.085  19.324  0.00  0.00    -0.173 NA
ATOM      8  N   UNL     1      14.906  12.103  16.296  0.00  0.00    -0.279 N 
ATOM      9  C   UNL     1      13.612  10.425  17.308  0.00  0.00    +0.111 C 
ATOM     10  C   UNL     1      13.917   9.115  18.026  0.00  0.00    +0.133 C 
ATOM     11  C   UNL     1      14.511  10.718  16.109  0.00  0.00    +0.133 C 
ATOM     12  C   UNL     1      13.253  11.551  19.521  0.00  0.00    +0.127 C 
ATOM     13  C   UNL     1      13.546  10.227  20.219  0.00  0.00    +0.128 C 
ATOM     14  C   UNL     1      14.548  12.587  17.570  0.00  0.00    +0.305 C 
ENDROOT
BRANCH   7   1
ATOM      1  S   UNL     1      13.084   7.553  20.087  0.00  0.00    +0.061 S 
ATOM      3  O   UNL     1      12.451   6.611  19.190  0.00  0.00    -0.153 OA
ATOM      4  O   UNL     1      12.610   7.728  21.443  0.00  0.00    -0.153 OA
BRANCH   1  16
ATOM     16  C   UNL     1      14.803   7.159  20.160  0.00  0.00    +0.105 A 
ATOM     18  C   UNL     1      15.544   7.473  21.299  0.00  0.00    +0.029 A 
ATOM     19  C   UNL     1      15.420   6.527  19.079  0.00  0.00    +0.029 A 
ATOM     22  C   UNL     1      16.902   7.158  21.357  0.00  0.00    +0.005 A 
ATOM     23  C   UNL     1      16.778   6.214  19.137  0.00  0.00    +0.005 A 
ATOM     24  C   UNL     1      17.519   6.529  20.276  0.00  0.00    -0.050 A 
ATOM     28  C   UNL     1      18.970   6.192  20.337  0.00  0.00    +0.044 C 
ENDBRANCH   1  16
ENDBRANCH   7   1
BRANCH   8  15
ATOM     15  C   UNL     1      15.690  12.814  15.311  0.00  0.00    +0.144 C 
BRANCH  15  17
ATOM     17  C   UNL     1      17.156  12.516  15.439  0.00  0.00    -0.030 A 
ATOM     20  C   UNL     1      17.792  11.719  14.485  0.00  0.00    +0.009 A 
ATOM     21  C   UNL     1      17.884  13.036  16.509  0.00  0.00    +0.009 A 
ATOM     25  C   UNL     1      19.154  11.442  14.604  0.00  0.00    +0.046 A 
ATOM     26  C   UNL     1      19.246  12.758  16.628  0.00  0.00    +0.046 A 
ATOM     27  C   UNL     1      19.880  11.962  15.674  0.00  0.00    +0.120 A 
BRANCH  27   5
ATOM      5  O   UNL     1      21.209  11.690  15.791  0.00  0.00    -0.495 OA
ATOM     29  C   UNL     1      22.049  12.086  14.707  0.00  0.00    +0.277 C 
ENDBRANCH  27   5
ENDBRANCH  15  17
ENDBRANCH   8  15
TORSDOF 5
ENDMDL
MODEL 7
REMARK VINA RESULT:      -6.4     19.670     20.961
REMARK  Name = 75368465
REMARK  7 active torsions:
REMARK  status: ('A' for Active; 'I' for Inactive)
REMARK    1  A    between atoms: S_1  and  N_7
REMARK    2  A    between atoms: S_1  and  C_16
REMARK    3  A    between atoms: O_5  and  C_27
REMARK    4  A    between atoms: O_5  and  C_29
REMARK    5  A    between atoms: N_8  and  C_15
REMARK    6  A    between atoms: C_15  and  C_17
REMARK    7  A    between atoms: C_24  and  C_28
REMARK                            x       y       z     vdW  Elec       q    Type
REMARK                         _______ _______ _______ _____ _____    ______ ____
ROOT
ATOM      2  O   UNL     1     -16.874   6.741  21.030  0.00  0.00    -0.252 OA
ATOM      6  N   UNL     1     -16.395   4.840  22.326  0.00  0.00    -0.278 N 
ATOM      7  N   UNL     1     -16.843   2.751  24.130  0.00  0.00    -0.173 NA
ATOM      8  N   UNL     1     -14.896   6.513  22.293  0.00  0.00    -0.279 N 
ATOM      9  C   UNL     1     -15.271   4.338  23.095  0.00  0.00    +0.111 C 
ATOM     10  C   UNL     1     -15.752   3.743  24.414  0.00  0.00    +0.133 C 
ATOM     11  C   UNL     1     -14.357   5.552  23.240  0.00  0.00    +0.133 C 
ATOM     12  C   UNL     1     -17.553   3.994  22.110  0.00  0.00    +0.127 C 
ATOM     13  C   UNL     1     -18.010   3.388  23.433  0.00  0.00    +0.128 C 
ATOM     14  C   UNL     1     -16.146   6.109  21.785  0.00  0.00    +0.305 C 
ENDROOT
BRANCH   7   1
ATOM      1  S   UNL     1     -17.248   1.719  25.437  0.00  0.00    +0.061 S 
ATOM      3  O   UNL     1     -16.247   0.679  25.543  0.00  0.00    -0.153 OA
ATOM      4  O   UNL     1     -18.656   1.397  25.361  0.00  0.00    -0.153 OA
BRANCH   1  16
ATOM     16  C   UNL     1     -17.017   2.830  26.789  0.00  0.00    +0.105 A 
ATOM     18  C   UNL     1     -17.916   3.878  26.993  0.00  0.00    +0.029 A 
ATOM     19  C   UNL     1     -15.939   2.658  27.657  0.00  0.00    +0.029 A 
ATOM     22  C   UNL     1     -17.736   4.753  28.063  0.00  0.00    +0.005 A 
ATOM     23  C   UNL     1     -15.758   3.535  28.726  0.00  0.00    +0.005 A 
ATOM     24  C   UNL     1     -16.656   4.583  28.930  0.00  0.00    -0.050 A 
ATOM     28  C   UNL     1     -16.463   5.518  30.074  0.00  0.00    +0.044 C 
ENDBRANCH   1  16
ENDBRANCH   7   1
BRANCH   8  15
ATOM     15  C   UNL     1     -14.250   7.782  22.039  0.00  0.00    +0.144 C 
BRANCH  15  17
ATOM     17  C   UNL     1     -13.364   7.729  20.829  0.00  0.00    -0.030 A 
ATOM     20  C   UNL     1     -12.031   7.335  20.956  0.00  0.00    +0.009 A 
ATOM     21  C   UNL     1     -13.872   8.074  19.576  0.00  0.00    +0.009 A 
ATOM     25  C   UNL     1     -11.207   7.287  19.831  0.00  0.00    +0.046 A 
ATOM     26  C   UNL     1     -13.048   8.026  18.451  0.00  0.00    +0.046 A 
ATOM     27  C   UNL     1     -11.716   7.632  18.580  0.00  0.00    +0.120 A 
BRANCH  27   5
ATOM      5  O   UNL     1     -10.913   7.586  17.482  0.00  0.00    -0.495 OA
ATOM     29  C   UNL     1     -10.312   8.813  17.067  0.00  0.00    +0.277 C 
ENDBRANCH  27   5
ENDBRANCH  15  17
ENDBRANCH   8  15
TORSDOF 5
ENDMDL
MODEL 8
REMARK VINA RESULT:      -6.3     25.846     28.892
REMARK  Name = 75368465
REMARK  7 active torsions:
REMARK  status: ('A' for Active; 'I' for Inactive)
REMARK    1  A    between atoms: S_1  and  N_7
REMARK    2  A    between atoms: S_1  and  C_16
REMARK    3  A    between atoms: O_5  and  C_27
REMARK    4  A    between atoms: O_5  and  C_29
REMARK    5  A    between atoms: N_8  and  C_15
REMARK    6  A    between atoms: C_15  and  C_17
REMARK    7  A    between atoms: C_24  and  C_28
REMARK                            x       y       z     vdW  Elec       q    Type
REMARK                         _______ _______ _______ _____ _____    ______ ____
ROOT
ATOM      2  O   UNL     1      15.494   8.474   2.206  0.00  0.00    -0.252 OA
ATOM      6  N   UNL     1      13.738   7.995   3.693  0.00  0.00    -0.278 N 
ATOM      7  N   UNL     1      11.106   7.651   4.572  0.00  0.00    -0.173 NA
ATOM      8  N   UNL     1      15.410   9.314   4.408  0.00  0.00    -0.279 N 
ATOM      9  C   UNL     1      13.440   8.234   5.093  0.00  0.00    +0.111 C 
ATOM     10  C   UNL     1      11.984   8.653   5.263  0.00  0.00    +0.133 C 
ATOM     11  C   UNL     1      14.460   9.292   5.507  0.00  0.00    +0.133 C 
ATOM     12  C   UNL     1      12.867   7.140   2.909  0.00  0.00    +0.127 C 
ATOM     13  C   UNL     1      11.413   7.556   3.106  0.00  0.00    +0.128 C 
ATOM     14  C   UNL     1      14.950   8.577   3.298  0.00  0.00    +0.305 C 
ENDROOT
BRANCH   7   1
ATOM      1  S   UNL     1       9.441   7.747   4.965  0.00  0.00    +0.061 S 
ATOM      3  O   UNL     1       8.681   7.009   3.980  0.00  0.00    -0.153 OA
ATOM      4  O   UNL     1       9.114   9.120   5.286  0.00  0.00    -0.153 OA
BRANCH   1  16
ATOM     16  C   UNL     1       9.425   6.819   6.466  0.00  0.00    +0.105 A 
ATOM     18  C   UNL     1       8.960   7.405   7.644  0.00  0.00    +0.029 A 
ATOM     19  C   UNL     1       9.873   5.498   6.474  0.00  0.00    +0.029 A 
ATOM     22  C   UNL     1       8.944   6.671   8.829  0.00  0.00    +0.005 A 
ATOM     23  C   UNL     1       9.858   4.765   7.660  0.00  0.00    +0.005 A 
ATOM     24  C   UNL     1       9.394   5.350   8.838  0.00  0.00    -0.050 A 
ATOM     28  C   UNL     1       9.378   4.564  10.105  0.00  0.00    +0.044 C 
ENDBRANCH   1  16
ENDBRANCH   7   1
BRANCH   8  15
ATOM     15  C   UNL     1      16.609  10.121   4.449  0.00  0.00    +0.144 C 
BRANCH  15  17
ATOM     17  C   UNL     1      17.832   9.298   4.734  0.00  0.00    -0.030 A 
ATOM     20  C   UNL     1      18.504   8.663   3.689  0.00  0.00    +0.009 A 
ATOM     21  C   UNL     1      18.296   9.168   6.042  0.00  0.00    +0.009 A 
ATOM     25  C   UNL     1      19.640   7.897   3.953  0.00  0.00    +0.046 A 
ATOM     26  C   UNL     1      19.432   8.403   6.307  0.00  0.00    +0.046 A 
ATOM     27  C   UNL     1      20.104   7.768   5.262  0.00  0.00    +0.120 A 
BRANCH  27   5
ATOM      5  O   UNL     1      21.211   7.021   5.521  0.00  0.00    -0.495 OA
ATOM     29  C   UNL     1      21.930   6.514   4.396  0.00  0.00    +0.277 C 
ENDBRANCH  27   5
ENDBRANCH  15  17
ENDBRANCH   8  15
TORSDOF 5
ENDMDL
MODEL 9
REMARK VINA RESULT:      -6.2     27.315     29.225
REMARK  Name = 75368465
REMARK  7 active torsions:
REMARK  status: ('A' for Active; 'I' for Inactive)
REMARK    1  A    between atoms: S_1  and  N_7
REMARK    2  A    between atoms: S_1  and  C_16
REMARK    3  A    between atoms: O_5  and  C_27
REMARK    4  A    between atoms: O_5  and  C_29
REMARK    5  A    between atoms: N_8  and  C_15
REMARK    6  A    between atoms: C_15  and  C_17
REMARK    7  A    between atoms: C_24  and  C_28
REMARK                            x       y       z     vdW  Elec       q    Type
REMARK                         _______ _______ _______ _____ _____    ______ ____
ROOT
ATOM      2  O   UNL     1      14.769  12.924  17.032  0.00  0.00    -0.252 OA
ATOM      6  N   UNL     1      13.610  11.022  17.784  0.00  0.00    -0.278 N 
ATOM      7  N   UNL     1      13.033   8.800  19.379  0.00  0.00    -0.173 NA
ATOM      8  N   UNL     1      13.971  11.247  15.577  0.00  0.00    -0.279 N 
ATOM      9  C   UNL     1      12.904   9.906  17.183  0.00  0.00    +0.111 C 
ATOM     10  C   UNL     1      13.250   8.608  17.906  0.00  0.00    +0.133 C 
ATOM     11  C   UNL     1      13.330   9.951  15.718  0.00  0.00    +0.133 C 
ATOM     12  C   UNL     1      13.564  11.213  19.220  0.00  0.00    +0.127 C 
ATOM     13  C   UNL     1      13.889   9.903  19.931  0.00  0.00    +0.128 C 
ATOM     14  C   UNL     1      14.187  11.866  16.825  0.00  0.00    +0.305 C 
ENDROOT
BRANCH   7   1
ATOM      1  S   UNL     1      13.012   7.359  20.306  0.00  0.00    +0.061 S 
ATOM      3  O   UNL     1      12.318   6.330  19.562  0.00  0.00    -0.153 OA
ATOM      4  O   UNL     1      12.635   7.682  21.665  0.00  0.00    -0.153 OA
BRANCH   1  16
ATOM     16  C   UNL     1      14.732   6.964  20.299  0.00  0.00    +0.105 A 
ATOM     18  C   UNL     1      15.347   6.541  19.120  0.00  0.00    +0.029 A 
ATOM     19  C   UNL     1      15.478   7.078  21.472  0.00  0.00    +0.029 A 
ATOM     22  C   UNL     1      16.706   6.232  19.114  0.00  0.00    +0.005 A 
ATOM     23  C   UNL     1      16.838   6.768  21.466  0.00  0.00    +0.005 A 
ATOM     24  C   UNL     1      17.453   6.345  20.287  0.00  0.00    -0.050 A 
ATOM     28  C   UNL     1      18.907   6.015  20.282  0.00  0.00    +0.044 C 
ENDBRANCH   1  16
ENDBRANCH   7   1
BRANCH   8  15
ATOM     15  C   UNL     1      14.434  11.737  14.299  0.00  0.00    +0.144 C 
BRANCH  15  17
ATOM     17  C   UNL     1      13.475  12.720  13.692  0.00  0.00    -0.030 A 
ATOM     20  C   UNL     1      13.787  14.080  13.676  0.00  0.00    +0.009 A 
ATOM     21  C   UNL     1      12.272  12.275  13.145  0.00  0.00    +0.009 A 
ATOM     25  C   UNL     1      12.896  14.994  13.113  0.00  0.00    +0.046 A 
ATOM     26  C   UNL     1      11.380  13.189  12.583  0.00  0.00    +0.046 A 
ATOM     27  C   UNL     1      11.693  14.548  12.566  0.00  0.00    +0.120 A 
BRANCH  27   5
ATOM      5  O   UNL     1      10.823  15.438  12.018  0.00  0.00    -0.495 OA
ATOM     29  C   UNL     1      10.565  15.317  10.619  0.00  0.00    +0.277 C 
ENDBRANCH  27   5
ENDBRANCH  15  17
ENDBRANCH   8  15
TORSDOF 5
ENDMDL
MODEL 10
REMARK VINA RESULT:      -6.2      5.106      8.338
REMARK  Name = 75368465
REMARK  7 active torsions:
REMARK  status: ('A' for Active; 'I' for Inactive)
REMARK    1  A    between atoms: S_1  and  N_7
REMARK    2  A    between atoms: S_1  and  C_16
REMARK    3  A    between atoms: O_5  and  C_27
REMARK    4  A    between atoms: O_5  and  C_29
REMARK    5  A    between atoms: N_8  and  C_15
REMARK    6  A    between atoms: C_15  and  C_17
REMARK    7  A    between atoms: C_24  and  C_28
REMARK                            x       y       z     vdW  Elec       q    Type
REMARK                         _______ _______ _______ _____ _____    ______ ____
ROOT
ATOM      2  O   UNL     1      -5.779 -12.198  11.064  0.00  0.00    -0.252 OA
ATOM      6  N   UNL     1      -6.904 -10.244  10.401  0.00  0.00    -0.278 N 
ATOM      7  N   UNL     1      -8.414  -8.548   8.771  0.00  0.00    -0.173 NA
ATOM      8  N   UNL     1      -4.859 -10.041  11.311  0.00  0.00    -0.279 N 
ATOM      9  C   UNL     1      -6.695  -8.812  10.512  0.00  0.00    +0.111 C 
ATOM     10  C   UNL     1      -7.040  -8.121   9.198  0.00  0.00    +0.133 C 
ATOM     11  C   UNL     1      -5.232  -8.689  10.931  0.00  0.00    +0.133 C 
ATOM     12  C   UNL     1      -8.157 -10.748   9.876  0.00  0.00    +0.127 C 
ATOM     13  C   UNL     1      -8.502 -10.033   8.573  0.00  0.00    +0.128 C 
ATOM     14  C   UNL     1      -5.842 -10.981  10.943  0.00  0.00    +0.305 C 
ENDROOT
BRANCH   7   1
ATOM      1  S   UNL     1      -9.117  -7.602   7.526  0.00  0.00    +0.061 S 
ATOM      3  O   UNL     1     -10.072  -8.413   6.802  0.00  0.00    -0.153 OA
ATOM      4  O   UNL     1      -8.069  -6.885   6.834  0.00  0.00    -0.153 OA
BRANCH   1  16
ATOM     16  C   UNL     1     -10.022  -6.439   8.498  0.00  0.00    +0.105 A 
ATOM     18  C   UNL     1      -9.691  -5.084   8.452  0.00  0.00    +0.029 A 
ATOM     19  C   UNL     1     -11.071  -6.874   9.308  0.00  0.00    +0.029 A 
ATOM     22  C   UNL     1     -10.408  -4.165   9.217  0.00  0.00    +0.005 A 
ATOM     23  C   UNL     1     -11.788  -5.954  10.074  0.00  0.00    +0.005 A 
ATOM     24  C   UNL     1     -11.457  -4.600  10.028  0.00  0.00    -0.050 A 
ATOM     28  C   UNL     1     -12.224  -3.618  10.847  0.00  0.00    +0.044 C 
ENDBRANCH   1  16
ENDBRANCH   7   1
BRANCH   8  15
ATOM     15  C   UNL     1      -3.563 -10.348  11.874  0.00  0.00    +0.144 C 
BRANCH  15  17
ATOM     17  C   UNL     1      -3.629 -10.542  13.361  0.00  0.00    -0.030 A 
ATOM     20  C   UNL     1      -2.453 -10.710  14.094  0.00  0.00    +0.009 A 
ATOM     21  C   UNL     1      -4.863 -10.554  14.010  0.00  0.00    +0.009 A 
ATOM     25  C   UNL     1      -2.513 -10.891  15.477  0.00  0.00    +0.046 A 
ATOM     26  C   UNL     1      -4.923 -10.735  15.392  0.00  0.00    +0.046 A 
ATOM     27  C   UNL     1      -3.748 -10.903  16.125  0.00  0.00    +0.120 A 
BRANCH  27   5
ATOM      5  O   UNL     1      -3.808 -11.081  17.473  0.00  0.00    -0.495 OA
ATOM     29  C   UNL     1      -5.034 -10.735  18.118  0.00  0.00    +0.277 C 
ENDBRANCH  27   5
ENDBRANCH  15  17
ENDBRANCH   8  15
TORSDOF 5
ENDMDL
