MODEL 1
REMARK VINA RESULT:      -8.1      0.000      0.000
REMARK  Name = 26743872
REMARK  8 active torsions:
REMARK  status: ('A' for Active; 'I' for Inactive)
REMARK    1  A    between atoms: O_1  and  C_10
REMARK    2  A    between atoms: N_4  and  C_12
REMARK    3  A    between atoms: N_7  and  C_21
REMARK    4  A    between atoms: C_8  and  C_13
REMARK    5  A    between atoms: C_12  and  C_14
REMARK    6  A    between atoms: C_17  and  C_20
REMARK    7  A    between atoms: C_24  and  C_28
REMARK    8  A    between atoms: C_27  and  C_29
REMARK                            x       y       z     vdW  Elec       q    Type
REMARK                         _______ _______ _______ _____ _____    ______ ____
ROOT
ATOM      4  N   UNL     1      12.538   8.685  18.663  0.00  0.00    -0.285 NA
ATOM      8  C   UNL     1      13.377   7.492  18.430  0.00  0.00    +0.149 C 
ATOM      9  C   UNL     1      13.919   7.665  16.998  0.00  0.00    +0.061 C 
ATOM     10  C   UNL     1      13.293   8.960  16.494  0.00  0.00    +0.130 C 
ATOM     11  C   UNL     1      12.051   9.112  17.351  0.00  0.00    +0.116 C 
ENDROOT
BRANCH   8  13
ATOM      2  O   UNL     1      14.087   7.064  20.729  0.00  0.00    -0.336 OA
ATOM      5  N   UNL     1      15.774   7.449  19.307  0.00  0.00    -0.190 NA
ATOM      6  N   UNL     1      15.261   6.976  21.486  0.00  0.00    -0.056 NA
ATOM     13  C   UNL     1      14.478   7.344  19.458  0.00  0.00    +0.245 A 
ATOM     17  C   UNL     1      16.213   7.215  20.579  0.00  0.00    +0.202 A 
BRANCH  17  20
ATOM     20  C   UNL     1      17.608   7.226  20.907  0.00  0.00    +0.023 A 
ATOM     22  C   UNL     1      18.422   6.156  20.535  0.00  0.00    +0.015 A 
ATOM     23  C   UNL     1      18.153   8.309  21.599  0.00  0.00    +0.012 A 
ATOM     24  C   UNL     1      19.780   6.169  20.854  0.00  0.00    -0.050 A 
ATOM     25  C   UNL     1      19.510   8.321  21.917  0.00  0.00    +0.001 A 
ATOM     26  C   UNL     1      20.324   7.251  21.545  0.00  0.00    +0.003 A 
ATOM     28  C   UNL     1      20.651   5.025  20.457  0.00  0.00    +0.044 C 
ENDBRANCH  17  20
ENDBRANCH   8  13
BRANCH  10   1
ATOM      1  O   UNL     1      12.972   8.860  15.120  0.00  0.00    -0.390 OA
ATOM     30  H   UNL     1      12.038   8.597  15.056  0.00  0.00    +0.210 HD
ENDBRANCH  10   1
BRANCH   4  12
ATOM     12  C   UNL     1      11.448   8.448  19.600  0.00  0.00    +0.120 C 
BRANCH  12  14
ATOM     14  C   UNL     1      11.514   9.377  20.783  0.00  0.00    -0.033 A 
ATOM     15  C   UNL     1      12.315  10.519  20.730  0.00  0.00    +0.007 A 
ATOM     16  C   UNL     1      10.773   9.097  21.932  0.00  0.00    +0.007 A 
ATOM     18  C   UNL     1      12.374  11.380  21.826  0.00  0.00    +0.023 A 
ATOM     19  C   UNL     1      10.833   9.958  23.027  0.00  0.00    +0.023 A 
ATOM     21  C   UNL     1      11.634  11.100  22.974  0.00  0.00    +0.033 A 
BRANCH  21   7
ATOM      3  O   UNL     1       9.840  13.385  23.763  0.00  0.00    -0.276 OA
ATOM      7  N   UNL     1      11.694  11.962  24.069  0.00  0.00    -0.286 N 
ATOM     27  C   UNL     1      10.828  13.016  24.390  0.00  0.00    +0.214 C 
ATOM     29  C   UNL     1      11.238  13.710  25.664  0.00  0.00    +0.109 C 
ATOM     31  H   UNL     1      12.467  11.797  24.711  0.00  0.00    +0.155 HD
ENDBRANCH  21   7
ENDBRANCH  12  14
ENDBRANCH   4  12
TORSDOF 6
ENDMDL
MODEL 2
REMARK VINA RESULT:      -7.7      2.729      5.507
REMARK  Name = 26743872
REMARK  8 active torsions:
REMARK  status: ('A' for Active; 'I' for Inactive)
REMARK    1  A    between atoms: O_1  and  C_10
REMARK    2  A    between atoms: N_4  and  C_12
REMARK    3  A    between atoms: N_7  and  C_21
REMARK    4  A    between atoms: C_8  and  C_13
REMARK    5  A    between atoms: C_12  and  C_14
REMARK    6  A    between atoms: C_17  and  C_20
REMARK    7  A    between atoms: C_24  and  C_28
REMARK    8  A    between atoms: C_27  and  C_29
REMARK                            x       y       z     vdW  Elec       q    Type
REMARK                         _______ _______ _______ _____ _____    ______ ____
ROOT
ATOM      4  N   UNL     1      12.349   8.794  20.259  0.00  0.00    -0.285 NA
ATOM      8  C   UNL     1      13.107   8.217  21.388  0.00  0.00    +0.149 C 
ATOM      9  C   UNL     1      12.186   7.125  21.964  0.00  0.00    +0.061 C 
ATOM     10  C   UNL     1      10.918   7.195  21.122  0.00  0.00    +0.130 C 
ATOM     11  C   UNL     1      10.933   8.609  20.574  0.00  0.00    +0.116 C 
ENDROOT
BRANCH   8  13
ATOM      2  O   UNL     1      14.464   6.764  19.965  0.00  0.00    -0.336 OA
ATOM      5  N   UNL     1      15.648   7.969  21.436  0.00  0.00    -0.190 NA
ATOM      6  N   UNL     1      15.805   6.421  19.759  0.00  0.00    -0.056 NA
ATOM     13  C   UNL     1      14.459   7.681  20.969  0.00  0.00    +0.245 A 
ATOM     17  C   UNL     1      16.442   7.172  20.663  0.00  0.00    +0.202 A 
BRANCH  17  20
ATOM     20  C   UNL     1      17.867   7.151  20.819  0.00  0.00    +0.023 A 
ATOM     22  C   UNL     1      18.579   5.976  20.574  0.00  0.00    +0.015 A 
ATOM     23  C   UNL     1      18.542   8.306  21.214  0.00  0.00    +0.012 A 
ATOM     24  C   UNL     1      19.966   5.958  20.725  0.00  0.00    -0.050 A 
ATOM     25  C   UNL     1      19.928   8.287  21.364  0.00  0.00    +0.001 A 
ATOM     26  C   UNL     1      20.640   7.113  21.119  0.00  0.00    +0.003 A 
ATOM     28  C   UNL     1      20.728   4.703  20.464  0.00  0.00    +0.044 C 
ENDBRANCH  17  20
ENDBRANCH   8  13
BRANCH  10   1
ATOM      1  O   UNL     1       9.773   6.954  21.918  0.00  0.00    -0.390 OA
ATOM     30  H   UNL     1       9.137   7.667  21.740  0.00  0.00    +0.210 HD
ENDBRANCH  10   1
BRANCH   4  12
ATOM     12  C   UNL     1      12.675  10.190  20.002  0.00  0.00    +0.120 C 
BRANCH  12  14
ATOM     14  C   UNL     1      13.327  10.375  18.657  0.00  0.00    -0.033 A 
ATOM     15  C   UNL     1      12.800   9.739  17.532  0.00  0.00    +0.007 A 
ATOM     16  C   UNL     1      14.459  11.181  18.536  0.00  0.00    +0.007 A 
ATOM     18  C   UNL     1      13.405   9.911  16.287  0.00  0.00    +0.023 A 
ATOM     19  C   UNL     1      15.063  11.353  17.291  0.00  0.00    +0.023 A 
ATOM     21  C   UNL     1      14.536  10.718  16.166  0.00  0.00    +0.033 A 
BRANCH  21   7
ATOM      3  O   UNL     1      13.953  12.690  13.967  0.00  0.00    -0.276 OA
ATOM      7  N   UNL     1      15.140  10.889  14.920  0.00  0.00    -0.286 N 
ATOM     27  C   UNL     1      14.826  11.829  13.929  0.00  0.00    +0.214 C 
ATOM     29  C   UNL     1      15.718  11.686  12.721  0.00  0.00    +0.109 C 
ATOM     31  H   UNL     1      15.903  10.247  14.715  0.00  0.00    +0.155 HD
ENDBRANCH  21   7
ENDBRANCH  12  14
ENDBRANCH   4  12
TORSDOF 6
ENDMDL
MODEL 3
REMARK VINA RESULT:      -7.2     26.825     30.302
REMARK  Name = 26743872
REMARK  8 active torsions:
REMARK  status: ('A' for Active; 'I' for Inactive)
REMARK    1  A    between atoms: O_1  and  C_10
REMARK    2  A    between atoms: N_4  and  C_12
REMARK    3  A    between atoms: N_7  and  C_21
REMARK    4  A    between atoms: C_8  and  C_13
REMARK    5  A    between atoms: C_12  and  C_14
REMARK    6  A    between atoms: C_17  and  C_20
REMARK    7  A    between atoms: C_24  and  C_28
REMARK    8  A    between atoms: C_27  and  C_29
REMARK                            x       y       z     vdW  Elec       q    Type
REMARK                         _______ _______ _______ _____ _____    ______ ____
ROOT
ATOM      4  N   UNL     1     -13.612   6.934  33.603  0.00  0.00    -0.285 NA
ATOM      8  C   UNL     1     -13.540   8.409  33.583  0.00  0.00    +0.149 C 
ATOM      9  C   UNL     1     -12.845   8.787  34.905  0.00  0.00    +0.061 C 
ATOM     10  C   UNL     1     -12.607   7.461  35.618  0.00  0.00    +0.130 C 
ATOM     11  C   UNL     1     -13.647   6.540  35.010  0.00  0.00    +0.116 C 
ENDROOT
BRANCH   8  13
ATOM      2  O   UNL     1     -11.592   8.404  32.106  0.00  0.00    -0.336 OA
ATOM      5  N   UNL     1     -13.186   9.861  31.513  0.00  0.00    -0.190 NA
ATOM      6  N   UNL     1     -11.123   9.045  30.954  0.00  0.00    -0.056 NA
ATOM     13  C   UNL     1     -12.812   8.942  32.367  0.00  0.00    +0.245 A 
ATOM     17  C   UNL     1     -12.117   9.890  30.664  0.00  0.00    +0.202 A 
BRANCH  17  20
ATOM     20  C   UNL     1     -12.076  10.774  29.536  0.00  0.00    +0.023 A 
ATOM     22  C   UNL     1     -11.657  10.300  28.292  0.00  0.00    +0.015 A 
ATOM     23  C   UNL     1     -12.456  12.109  29.681  0.00  0.00    +0.012 A 
ATOM     24  C   UNL     1     -11.619  11.160  27.195  0.00  0.00    -0.050 A 
ATOM     25  C   UNL     1     -12.418  12.968  28.584  0.00  0.00    +0.001 A 
ATOM     26  C   UNL     1     -12.000  12.494  27.340  0.00  0.00    +0.003 A 
ATOM     28  C   UNL     1     -11.171  10.654  25.866  0.00  0.00    +0.044 C 
ENDBRANCH  17  20
ENDBRANCH   8  13
BRANCH  10   1
ATOM      1  O   UNL     1     -12.785   7.604  37.014  0.00  0.00    -0.390 OA
ATOM     30  H   UNL     1     -12.009   7.211  37.449  0.00  0.00    +0.210 HD
ENDBRANCH  10   1
BRANCH   4  12
ATOM     12  C   UNL     1     -14.745   6.404  32.857  0.00  0.00    +0.120 C 
BRANCH  12  14
ATOM     14  C   UNL     1     -14.394   5.131  32.133  0.00  0.00    -0.033 A 
ATOM     15  C   UNL     1     -15.187   4.690  31.072  0.00  0.00    +0.007 A 
ATOM     16  C   UNL     1     -13.277   4.393  32.523  0.00  0.00    +0.007 A 
ATOM     18  C   UNL     1     -14.861   3.512  30.401  0.00  0.00    +0.023 A 
ATOM     19  C   UNL     1     -12.951   3.214  31.852  0.00  0.00    +0.023 A 
ATOM     21  C   UNL     1     -13.743   2.773  30.791  0.00  0.00    +0.033 A 
BRANCH  21   7
ATOM      3  O   UNL     1     -14.700  -0.049  31.221  0.00  0.00    -0.276 OA
ATOM      7  N   UNL     1     -13.418   1.595  30.120  0.00  0.00    -0.286 N 
ATOM     27  C   UNL     1     -13.895   0.300  30.363  0.00  0.00    +0.214 C 
ATOM     29  C   UNL     1     -13.296  -0.705  29.412  0.00  0.00    +0.109 C 
ATOM     31  H   UNL     1     -12.749   1.699  29.359  0.00  0.00    +0.155 HD
ENDBRANCH  21   7
ENDBRANCH  12  14
ENDBRANCH   4  12
TORSDOF 6
ENDMDL
MODEL 4
REMARK VINA RESULT:      -7.1     26.300     29.292
REMARK  Name = 26743872
REMARK  8 active torsions:
REMARK  status: ('A' for Active; 'I' for Inactive)
REMARK    1  A    between atoms: O_1  and  C_10
REMARK    2  A    between atoms: N_4  and  C_12
REMARK    3  A    between atoms: N_7  and  C_21
REMARK    4  A    between atoms: C_8  and  C_13
REMARK    5  A    between atoms: C_12  and  C_14
REMARK    6  A    between atoms: C_17  and  C_20
REMARK    7  A    between atoms: C_24  and  C_28
REMARK    8  A    between atoms: C_27  and  C_29
REMARK                            x       y       z     vdW  Elec       q    Type
REMARK                         _______ _______ _______ _____ _____    ______ ____
ROOT
ATOM      4  N   UNL     1      -2.994 -10.488  13.663  0.00  0.00    -0.285 NA
ATOM      8  C   UNL     1      -3.526 -11.389  14.705  0.00  0.00    +0.149 C 
ATOM      9  C   UNL     1      -2.684 -11.082  15.958  0.00  0.00    +0.061 C 
ATOM     10  C   UNL     1      -1.677 -10.031  15.508  0.00  0.00    +0.130 C 
ATOM     11  C   UNL     1      -1.596 -10.235  14.007  0.00  0.00    +0.116 C 
ENDROOT
BRANCH   8  13
ATOM      2  O   UNL     1      -5.799 -12.288  14.731  0.00  0.00    -0.336 OA
ATOM      5  N   UNL     1      -5.662 -10.129  15.311  0.00  0.00    -0.190 NA
ATOM      6  N   UNL     1      -7.109 -11.874  15.003  0.00  0.00    -0.056 NA
ATOM     13  C   UNL     1      -5.010 -11.201  14.937  0.00  0.00    +0.245 A 
ATOM     17  C   UNL     1      -6.946 -10.590  15.338  0.00  0.00    +0.202 A 
BRANCH  17  20
ATOM     20  C   UNL     1      -8.043  -9.744  15.705  0.00  0.00    +0.023 A 
ATOM     22  C   UNL     1      -9.066  -9.489  14.791  0.00  0.00    +0.015 A 
ATOM     23  C   UNL     1      -8.089  -9.175  16.979  0.00  0.00    +0.012 A 
ATOM     24  C   UNL     1     -10.134  -8.666  15.151  0.00  0.00    -0.050 A 
ATOM     25  C   UNL     1      -9.156  -8.353  17.338  0.00  0.00    +0.001 A 
ATOM     26  C   UNL     1     -10.179  -8.098  16.424  0.00  0.00    +0.003 A 
ATOM     28  C   UNL     1     -11.227  -8.393  14.174  0.00  0.00    +0.044 C 
ENDBRANCH  17  20
ENDBRANCH   8  13
BRANCH  10   1
ATOM      1  O   UNL     1      -0.425 -10.234  16.134  0.00  0.00    -0.390 OA
ATOM     30  H   UNL     1       0.190  -9.568  15.781  0.00  0.00    +0.210 HD
ENDBRANCH  10   1
BRANCH   4  12
ATOM     12  C   UNL     1      -3.138 -11.020  12.314  0.00  0.00    +0.120 C 
BRANCH  12  14
ATOM     14  C   UNL     1      -3.960 -10.113  11.438  0.00  0.00    -0.033 A 
ATOM     15  C   UNL     1      -5.224  -9.693  11.858  0.00  0.00    +0.007 A 
ATOM     16  C   UNL     1      -3.460  -9.691  10.206  0.00  0.00    +0.007 A 
ATOM     18  C   UNL     1      -5.984  -8.852  11.046  0.00  0.00    +0.023 A 
ATOM     19  C   UNL     1      -4.220  -8.850   9.395  0.00  0.00    +0.023 A 
ATOM     21  C   UNL     1      -5.484  -8.430   9.815  0.00  0.00    +0.033 A 
BRANCH  21   7
ATOM      3  O   UNL     1      -8.209  -8.829   8.599  0.00  0.00    -0.276 OA
ATOM      7  N   UNL     1      -6.245  -7.589   9.004  0.00  0.00    -0.286 N 
ATOM     27  C   UNL     1      -7.515  -7.827   8.462  0.00  0.00    +0.214 C 
ATOM     29  C   UNL     1      -7.998  -6.661   7.636  0.00  0.00    +0.109 C 
ATOM     31  H   UNL     1      -5.816  -6.692   8.784  0.00  0.00    +0.155 HD
ENDBRANCH  21   7
ENDBRANCH  12  14
ENDBRANCH   4  12
TORSDOF 6
ENDMDL
MODEL 5
REMARK VINA RESULT:      -7.1     25.253     27.326
REMARK  Name = 26743872
REMARK  8 active torsions:
REMARK  status: ('A' for Active; 'I' for Inactive)
REMARK    1  A    between atoms: O_1  and  C_10
REMARK    2  A    between atoms: N_4  and  C_12
REMARK    3  A    between atoms: N_7  and  C_21
REMARK    4  A    between atoms: C_8  and  C_13
REMARK    5  A    between atoms: C_12  and  C_14
REMARK    6  A    between atoms: C_17  and  C_20
REMARK    7  A    between atoms: C_24  and  C_28
REMARK    8  A    between atoms: C_27  and  C_29
REMARK                            x       y       z     vdW  Elec       q    Type
REMARK                         _______ _______ _______ _____ _____    ______ ____
ROOT
ATOM      4  N   UNL     1     -11.152   9.715  17.377  0.00  0.00    -0.285 NA
ATOM      8  C   UNL     1     -10.540  10.573  18.412  0.00  0.00    +0.149 C 
ATOM      9  C   UNL     1     -10.153  11.867  17.672  0.00  0.00    +0.061 C 
ATOM     10  C   UNL     1     -10.546  11.623  16.220  0.00  0.00    +0.130 C 
ATOM     11  C   UNL     1     -10.554  10.111  16.103  0.00  0.00    +0.116 C 
ENDROOT
BRANCH   8  13
ATOM      2  O   UNL     1     -12.539  11.620  19.349  0.00  0.00    -0.336 OA
ATOM      5  N   UNL     1     -11.383  10.381  20.814  0.00  0.00    -0.190 NA
ATOM      6  N   UNL     1     -13.233  11.704  20.563  0.00  0.00    -0.056 NA
ATOM     13  C   UNL     1     -11.464  10.823  19.584  0.00  0.00    +0.245 A 
ATOM     17  C   UNL     1     -12.489  10.948  21.377  0.00  0.00    +0.202 A 
BRANCH  17  20
ATOM     20  C   UNL     1     -12.824  10.738  22.755  0.00  0.00    +0.023 A 
ATOM     22  C   UNL     1     -11.884  11.002  23.751  0.00  0.00    +0.015 A 
ATOM     23  C   UNL     1     -14.093  10.270  23.101  0.00  0.00    +0.012 A 
ATOM     24  C   UNL     1     -12.212  10.798  25.092  0.00  0.00    -0.050 A 
ATOM     25  C   UNL     1     -14.420  10.067  24.440  0.00  0.00    +0.001 A 
ATOM     26  C   UNL     1     -13.480  10.331  25.436  0.00  0.00    +0.003 A 
ATOM     28  C   UNL     1     -11.207  11.080  26.157  0.00  0.00    +0.044 C 
ENDBRANCH  17  20
ENDBRANCH   8  13
BRANCH  10   1
ATOM      1  O   UNL     1      -9.608  12.213  15.340  0.00  0.00    -0.390 OA
ATOM     30  H   UNL     1      -8.766  11.737  15.449  0.00  0.00    +0.210 HD
ENDBRANCH  10   1
BRANCH   4  12
ATOM     12  C   UNL     1     -10.988   8.292  17.639  0.00  0.00    +0.120 C 
BRANCH  12  14
ATOM     14  C   UNL     1     -11.822   7.837  18.808  0.00  0.00    -0.033 A 
ATOM     15  C   UNL     1     -13.199   8.068  18.815  0.00  0.00    +0.007 A 
ATOM     16  C   UNL     1     -11.219   7.185  19.883  0.00  0.00    +0.007 A 
ATOM     18  C   UNL     1     -13.971   7.646  19.897  0.00  0.00    +0.023 A 
ATOM     19  C   UNL     1     -11.991   6.763  20.965  0.00  0.00    +0.023 A 
ATOM     21  C   UNL     1     -13.368   6.994  20.972  0.00  0.00    +0.033 A 
BRANCH  21   7
ATOM      3  O   UNL     1     -15.307   4.704  21.213  0.00  0.00    -0.276 OA
ATOM      7  N   UNL     1     -14.141   6.572  22.054  0.00  0.00    -0.286 N 
ATOM     27  C   UNL     1     -15.033   5.493  22.111  0.00  0.00    +0.214 C 
ATOM     29  C   UNL     1     -15.676   5.370  23.470  0.00  0.00    +0.109 C 
ATOM     31  H   UNL     1     -14.037   7.123  22.904  0.00  0.00    +0.155 HD
ENDBRANCH  21   7
ENDBRANCH  12  14
ENDBRANCH   4  12
TORSDOF 6
ENDMDL
MODEL 6
REMARK VINA RESULT:      -7.0      2.739      5.652
REMARK  Name = 26743872
REMARK  8 active torsions:
REMARK  status: ('A' for Active; 'I' for Inactive)
REMARK    1  A    between atoms: O_1  and  C_10
REMARK    2  A    between atoms: N_4  and  C_12
REMARK    3  A    between atoms: N_7  and  C_21
REMARK    4  A    between atoms: C_8  and  C_13
REMARK    5  A    between atoms: C_12  and  C_14
REMARK    6  A    between atoms: C_17  and  C_20
REMARK    7  A    between atoms: C_24  and  C_28
REMARK    8  A    between atoms: C_27  and  C_29
REMARK                            x       y       z     vdW  Elec       q    Type
REMARK                         _______ _______ _______ _____ _____    ______ ____
ROOT
ATOM      4  N   UNL     1      12.753   7.617  19.099  0.00  0.00    -0.285 NA
ATOM      8  C   UNL     1      13.825   8.622  18.950  0.00  0.00    +0.149 C 
ATOM      9  C   UNL     1      15.084   7.942  19.520  0.00  0.00    +0.061 C 
ATOM     10  C   UNL     1      14.610   6.578  20.004  0.00  0.00    +0.130 C 
ATOM     11  C   UNL     1      13.125   6.780  20.238  0.00  0.00    +0.116 C 
ENDROOT
BRANCH   8  13
ATOM      2  O   UNL     1      13.681   8.179  16.551  0.00  0.00    -0.336 OA
ATOM      5  N   UNL     1      14.432  10.227  17.059  0.00  0.00    -0.190 NA
ATOM      6  N   UNL     1      13.927   8.818  15.329  0.00  0.00    -0.056 NA
ATOM     13  C   UNL     1      14.004   9.078  17.518  0.00  0.00    +0.245 A 
ATOM     17  C   UNL     1      14.368  10.020  15.712  0.00  0.00    +0.202 A 
BRANCH  17  20
ATOM     20  C   UNL     1      14.749  11.036  14.775  0.00  0.00    +0.023 A 
ATOM     22  C   UNL     1      16.094  11.222  14.455  0.00  0.00    +0.015 A 
ATOM     23  C   UNL     1      13.774  11.839  14.182  0.00  0.00    +0.012 A 
ATOM     24  C   UNL     1      16.464  12.210  13.542  0.00  0.00    -0.050 A 
ATOM     25  C   UNL     1      14.144  12.826  13.270  0.00  0.00    +0.001 A 
ATOM     26  C   UNL     1      15.489  13.012  12.949  0.00  0.00    +0.003 A 
ATOM     28  C   UNL     1      17.901  12.409  13.200  0.00  0.00    +0.044 C 
ENDBRANCH  17  20
ENDBRANCH   8  13
BRANCH  10   1
ATOM      1  O   UNL     1      15.282   6.205  21.192  0.00  0.00    -0.390 OA
ATOM     30  H   UNL     1      16.011   5.611  20.942  0.00  0.00    +0.210 HD
ENDBRANCH  10   1
BRANCH   4  12
ATOM     12  C   UNL     1      11.431   8.206  19.261  0.00  0.00    +0.120 C 
BRANCH  12  14
ATOM     14  C   UNL     1      11.328   9.010  20.531  0.00  0.00    -0.033 A 
ATOM     15  C   UNL     1      10.639   8.493  21.630  0.00  0.00    +0.007 A 
ATOM     16  C   UNL     1      11.919  10.270  20.609  0.00  0.00    +0.007 A 
ATOM     18  C   UNL     1      10.544   9.237  22.805  0.00  0.00    +0.023 A 
ATOM     19  C   UNL     1      11.824  11.014  21.784  0.00  0.00    +0.023 A 
ATOM     21  C   UNL     1      11.136  10.497  22.883  0.00  0.00    +0.033 A 
BRANCH  21   7
ATOM      3  O   UNL     1      10.172  13.312  23.344  0.00  0.00    -0.276 OA
ATOM      7  N   UNL     1      11.041  11.241  24.060  0.00  0.00    -0.286 N 
ATOM     27  C   UNL     1      10.583  12.556  24.218  0.00  0.00    +0.214 C 
ATOM     29  C   UNL     1      10.638  12.997  25.659  0.00  0.00    +0.109 C 
ATOM     31  H   UNL     1      11.345  10.759  24.904  0.00  0.00    +0.155 HD
ENDBRANCH  21   7
ENDBRANCH  12  14
ENDBRANCH   4  12
TORSDOF 6
ENDMDL
MODEL 7
REMARK VINA RESULT:      -7.0     26.411     29.308
REMARK  Name = 26743872
REMARK  8 active torsions:
REMARK  status: ('A' for Active; 'I' for Inactive)
REMARK    1  A    between atoms: O_1  and  C_10
REMARK    2  A    between atoms: N_4  and  C_12
REMARK    3  A    between atoms: N_7  and  C_21
REMARK    4  A    between atoms: C_8  and  C_13
REMARK    5  A    between atoms: C_12  and  C_14
REMARK    6  A    between atoms: C_17  and  C_20
REMARK    7  A    between atoms: C_24  and  C_28
REMARK    8  A    between atoms: C_27  and  C_29
REMARK                            x       y       z     vdW  Elec       q    Type
REMARK                         _______ _______ _______ _____ _____    ______ ____
ROOT
ATOM      4  N   UNL     1      -3.318 -10.586  14.273  0.00  0.00    -0.285 NA
ATOM      8  C   UNL     1      -3.577 -11.224  15.579  0.00  0.00    +0.149 C 
ATOM      9  C   UNL     1      -2.369 -10.837  16.453  0.00  0.00    +0.061 C 
ATOM     10  C   UNL     1      -1.465 -10.021  15.536  0.00  0.00    +0.130 C 
ATOM     11  C   UNL     1      -1.865 -10.476  14.146  0.00  0.00    +0.116 C 
ENDROOT
BRANCH   8  13
ATOM      2  O   UNL     1      -5.345  -9.558  15.852  0.00  0.00    -0.336 OA
ATOM      5  N   UNL     1      -5.687 -11.452  16.999  0.00  0.00    -0.190 NA
ATOM      6  N   UNL     1      -6.562  -9.392  16.524  0.00  0.00    -0.056 NA
ATOM     13  C   UNL     1      -4.897 -10.797  16.185  0.00  0.00    +0.245 A 
ATOM     17  C   UNL     1      -6.695 -10.550  17.179  0.00  0.00    +0.202 A 
BRANCH  17  20
ATOM     20  C   UNL     1      -7.822 -10.838  18.018  0.00  0.00    +0.023 A 
ATOM     22  C   UNL     1      -8.979 -10.064  17.923  0.00  0.00    +0.015 A 
ATOM     23  C   UNL     1      -7.761 -11.893  18.929  0.00  0.00    +0.012 A 
ATOM     24  C   UNL     1     -10.075 -10.347  18.739  0.00  0.00    -0.050 A 
ATOM     25  C   UNL     1      -8.857 -12.174  19.744  0.00  0.00    +0.001 A 
ATOM     26  C   UNL     1     -10.014 -11.401  19.649  0.00  0.00    +0.003 A 
ATOM     28  C   UNL     1     -11.312  -9.520  18.638  0.00  0.00    +0.044 C 
ENDBRANCH  17  20
ENDBRANCH   8  13
BRANCH  10   1
ATOM      1  O   UNL     1      -0.103 -10.291  15.804  0.00  0.00    -0.390 OA
ATOM     30  H   UNL     1      -0.056 -11.166  16.227  0.00  0.00    +0.210 HD
ENDBRANCH  10   1
BRANCH   4  12
ATOM     12  C   UNL     1      -3.912 -11.305  13.154  0.00  0.00    +0.120 C 
BRANCH  12  14
ATOM     14  C   UNL     1      -4.530 -10.368  12.150  0.00  0.00    -0.033 A 
ATOM     15  C   UNL     1      -5.737  -9.729  12.442  0.00  0.00    +0.007 A 
ATOM     16  C   UNL     1      -3.897 -10.138  10.928  0.00  0.00    +0.007 A 
ATOM     18  C   UNL     1      -6.308  -8.861  11.512  0.00  0.00    +0.023 A 
ATOM     19  C   UNL     1      -4.469  -9.270   9.999  0.00  0.00    +0.023 A 
ATOM     21  C   UNL     1      -5.675  -8.631  10.290  0.00  0.00    +0.033 A 
BRANCH  21   7
ATOM      3  O   UNL     1      -8.292  -8.800   8.812  0.00  0.00    -0.276 OA
ATOM      7  N   UNL     1      -6.248  -7.763   9.361  0.00  0.00    -0.286 N 
ATOM     27  C   UNL     1      -7.476  -7.891   8.699  0.00  0.00    +0.214 C 
ATOM     29  C   UNL     1      -7.733  -6.732   7.768  0.00  0.00    +0.109 C 
ATOM     31  H   UNL     1      -5.697  -6.934   9.143  0.00  0.00    +0.155 HD
ENDBRANCH  21   7
ENDBRANCH  12  14
ENDBRANCH   4  12
TORSDOF 6
ENDMDL
MODEL 8
REMARK VINA RESULT:      -6.9     14.054     17.232
REMARK  Name = 26743872
REMARK  8 active torsions:
REMARK  status: ('A' for Active; 'I' for Inactive)
REMARK    1  A    between atoms: O_1  and  C_10
REMARK    2  A    between atoms: N_4  and  C_12
REMARK    3  A    between atoms: N_7  and  C_21
REMARK    4  A    between atoms: C_8  and  C_13
REMARK    5  A    between atoms: C_12  and  C_14
REMARK    6  A    between atoms: C_17  and  C_20
REMARK    7  A    between atoms: C_24  and  C_28
REMARK    8  A    between atoms: C_27  and  C_29
REMARK                            x       y       z     vdW  Elec       q    Type
REMARK                         _______ _______ _______ _____ _____    ______ ____
ROOT
ATOM      4  N   UNL     1      10.279   5.507   6.198  0.00  0.00    -0.285 NA
ATOM      8  C   UNL     1      10.048   6.670   7.078  0.00  0.00    +0.149 C 
ATOM      9  C   UNL     1       9.916   6.074   8.492  0.00  0.00    +0.061 C 
ATOM     10  C   UNL     1      10.041   4.568   8.298  0.00  0.00    +0.130 C 
ATOM     11  C   UNL     1       9.644   4.362   6.849  0.00  0.00    +0.116 C 
ENDROOT
BRANCH   8  13
ATOM      2  O   UNL     1      10.789   8.996   7.200  0.00  0.00    -0.336 OA
ATOM      5  N   UNL     1      12.419   7.541   6.706  0.00  0.00    -0.190 NA
ATOM      6  N   UNL     1      11.957   9.754   7.055  0.00  0.00    -0.056 NA
ATOM     13  C   UNL     1      11.149   7.704   6.979  0.00  0.00    +0.245 A 
ATOM     17  C   UNL     1      12.874   8.826   6.763  0.00  0.00    +0.202 A 
BRANCH  17  20
ATOM     20  C   UNL     1      14.251   9.149   6.527  0.00  0.00    +0.023 A 
ATOM     22  C   UNL     1      14.697  10.462   6.678  0.00  0.00    +0.015 A 
ATOM     23  C   UNL     1      15.146   8.148   6.146  0.00  0.00    +0.012 A 
ATOM     24  C   UNL     1      16.037  10.774   6.449  0.00  0.00    -0.050 A 
ATOM     25  C   UNL     1      16.485   8.461   5.918  0.00  0.00    +0.001 A 
ATOM     26  C   UNL     1      16.931   9.774   6.070  0.00  0.00    +0.003 A 
ATOM     28  C   UNL     1      16.514  12.178   6.611  0.00  0.00    +0.044 C 
ENDBRANCH  17  20
ENDBRANCH   8  13
BRANCH  10   1
ATOM      1  O   UNL     1       9.181   3.875   9.182  0.00  0.00    -0.390 OA
ATOM     30  H   UNL     1       9.689   3.674   9.987  0.00  0.00    +0.210 HD
ENDBRANCH  10   1
BRANCH   4  12
ATOM     12  C   UNL     1       9.789   5.706   4.841  0.00  0.00    +0.120 C 
BRANCH  12  14
ATOM     14  C   UNL     1      10.866   5.470   3.815  0.00  0.00    -0.033 A 
ATOM     15  C   UNL     1      10.907   4.267   3.109  0.00  0.00    +0.007 A 
ATOM     16  C   UNL     1      11.824   6.455   3.571  0.00  0.00    +0.007 A 
ATOM     18  C   UNL     1      11.905   4.050   2.159  0.00  0.00    +0.023 A 
ATOM     19  C   UNL     1      12.821   6.238   2.621  0.00  0.00    +0.023 A 
ATOM     21  C   UNL     1      12.862   5.035   1.915  0.00  0.00    +0.033 A 
BRANCH  21   7
ATOM      3  O   UNL     1      15.221   3.164   1.951  0.00  0.00    -0.276 OA
ATOM      7  N   UNL     1      13.859   4.817   0.964  0.00  0.00    -0.286 N 
ATOM     27  C   UNL     1      14.941   3.929   1.033  0.00  0.00    +0.214 C 
ATOM     29  C   UNL     1      15.797   3.993  -0.207  0.00  0.00    +0.109 C 
ATOM     31  H   UNL     1      13.783   5.377   0.118  0.00  0.00    +0.155 HD
ENDBRANCH  21   7
ENDBRANCH  12  14
ENDBRANCH   4  12
TORSDOF 6
ENDMDL
MODEL 9
REMARK VINA RESULT:      -6.9     26.948     29.255
REMARK  Name = 26743872
REMARK  8 active torsions:
REMARK  status: ('A' for Active; 'I' for Inactive)
REMARK    1  A    between atoms: O_1  and  C_10
REMARK    2  A    between atoms: N_4  and  C_12
REMARK    3  A    between atoms: N_7  and  C_21
REMARK    4  A    between atoms: C_8  and  C_13
REMARK    5  A    between atoms: C_12  and  C_14
REMARK    6  A    between atoms: C_17  and  C_20
REMARK    7  A    between atoms: C_24  and  C_28
REMARK    8  A    between atoms: C_27  and  C_29
REMARK                            x       y       z     vdW  Elec       q    Type
REMARK                         _______ _______ _______ _____ _____    ______ ____
ROOT
ATOM      4  N   UNL     1      -7.251 -10.748  17.445  0.00  0.00    -0.285 NA
ATOM      8  C   UNL     1      -5.897 -11.135  17.889  0.00  0.00    +0.149 C 
ATOM      9  C   UNL     1      -6.050 -12.578  18.406  0.00  0.00    +0.061 C 
ATOM     10  C   UNL     1      -7.532 -12.896  18.254  0.00  0.00    +0.130 C 
ATOM     11  C   UNL     1      -8.190 -11.529  18.249  0.00  0.00    +0.116 C 
ENDROOT
BRANCH   8  13
ATOM      2  O   UNL     1      -3.568 -11.188  17.151  0.00  0.00    -0.336 OA
ATOM      5  N   UNL     1      -5.036 -10.760  15.515  0.00  0.00    -0.190 NA
ATOM      6  N   UNL     1      -2.813 -11.031  15.982  0.00  0.00    -0.056 NA
ATOM     13  C   UNL     1      -4.866 -11.014  16.788  0.00  0.00    +0.245 A 
ATOM     17  C   UNL     1      -3.749 -10.781  15.061  0.00  0.00    +0.202 A 
BRANCH  17  20
ATOM     20  C   UNL     1      -3.433 -10.549  13.682  0.00  0.00    +0.023 A 
ATOM     22  C   UNL     1      -4.456 -10.360  12.753  0.00  0.00    +0.015 A 
ATOM     23  C   UNL     1      -2.101 -10.510  13.269  0.00  0.00    +0.012 A 
ATOM     24  C   UNL     1      -4.147 -10.133  11.411  0.00  0.00    -0.050 A 
ATOM     25  C   UNL     1      -1.792 -10.283  11.929  0.00  0.00    +0.001 A 
ATOM     26  C   UNL     1      -2.816 -10.094  11.000  0.00  0.00    +0.003 A 
ATOM     28  C   UNL     1      -5.241  -9.932  10.418  0.00  0.00    +0.044 C 
ENDBRANCH  17  20
ENDBRANCH   8  13
BRANCH  10   1
ATOM      1  O   UNL     1      -7.987 -13.693  19.331  0.00  0.00    -0.390 OA
ATOM     30  H   UNL     1      -8.112 -13.106  20.097  0.00  0.00    +0.210 HD
ENDBRANCH  10   1
BRANCH   4  12
ATOM     12  C   UNL     1      -7.503  -9.316  17.548  0.00  0.00    +0.120 C 
BRANCH  12  14
ATOM     14  C   UNL     1      -8.724  -8.904  16.769  0.00  0.00    -0.033 A 
ATOM     15  C   UNL     1      -8.857  -9.277  15.431  0.00  0.00    +0.007 A 
ATOM     16  C   UNL     1      -9.722  -8.150  17.385  0.00  0.00    +0.007 A 
ATOM     18  C   UNL     1      -9.988  -8.896  14.710  0.00  0.00    +0.023 A 
ATOM     19  C   UNL     1     -10.853  -7.768  16.664  0.00  0.00    +0.023 A 
ATOM     21  C   UNL     1     -10.986  -8.141  15.326  0.00  0.00    +0.033 A 
BRANCH  21   7
ATOM      3  O   UNL     1     -11.772  -5.465  14.193  0.00  0.00    -0.276 OA
ATOM      7  N   UNL     1     -12.118  -7.761  14.604  0.00  0.00    -0.286 N 
ATOM     27  C   UNL     1     -12.435  -6.493  14.098  0.00  0.00    +0.214 C 
ATOM     29  C   UNL     1     -13.757  -6.496  13.371  0.00  0.00    +0.109 C 
ATOM     31  H   UNL     1     -12.791  -8.504  14.427  0.00  0.00    +0.155 HD
ENDBRANCH  21   7
ENDBRANCH  12  14
ENDBRANCH   4  12
TORSDOF 6
ENDMDL
MODEL 10
REMARK VINA RESULT:      -6.8     24.728     27.140
REMARK  Name = 26743872
REMARK  8 active torsions:
REMARK  status: ('A' for Active; 'I' for Inactive)
REMARK    1  A    between atoms: O_1  and  C_10
REMARK    2  A    between atoms: N_4  and  C_12
REMARK    3  A    between atoms: N_7  and  C_21
REMARK    4  A    between atoms: C_8  and  C_13
REMARK    5  A    between atoms: C_12  and  C_14
REMARK    6  A    between atoms: C_17  and  C_20
REMARK    7  A    between atoms: C_24  and  C_28
REMARK    8  A    between atoms: C_27  and  C_29
REMARK                            x       y       z     vdW  Elec       q    Type
REMARK                         _______ _______ _______ _____ _____    ______ ____
ROOT
ATOM      4  N   UNL     1      21.845  -7.339   2.755  0.00  0.00    -0.285 NA
ATOM      8  C   UNL     1      21.910  -8.814   2.801  0.00  0.00    +0.149 C 
ATOM      9  C   UNL     1      21.957  -9.159   4.301  0.00  0.00    +0.061 C 
ATOM     10  C   UNL     1      21.960  -7.813   5.016  0.00  0.00    +0.130 C 
ATOM     11  C   UNL     1      22.501  -6.857   3.970  0.00  0.00    +0.116 C 
ENDROOT
BRANCH   8  13
ATOM      2  O   UNL     1      20.765  -9.418   0.728  0.00  0.00    -0.336 OA
ATOM      5  N   UNL     1      19.711 -10.094   2.585  0.00  0.00    -0.190 NA
ATOM      6  N   UNL     1      19.609 -10.082   0.300  0.00  0.00    -0.056 NA
ATOM     13  C   UNL     1      20.750  -9.471   2.086  0.00  0.00    +0.245 A 
ATOM     17  C   UNL     1      19.040 -10.450   1.452  0.00  0.00    +0.202 A 
BRANCH  17  20
ATOM     20  C   UNL     1      17.805 -11.176   1.505  0.00  0.00    +0.023 A 
ATOM     22  C   UNL     1      17.196 -11.431   2.735  0.00  0.00    +0.015 A 
ATOM     23  C   UNL     1      17.209 -11.626   0.327  0.00  0.00    +0.012 A 
ATOM     24  C   UNL     1      15.994 -12.135   2.785  0.00  0.00    -0.050 A 
ATOM     25  C   UNL     1      16.007 -12.330   0.377  0.00  0.00    +0.001 A 
ATOM     26  C   UNL     1      15.399 -12.585   1.607  0.00  0.00    +0.003 A 
ATOM     28  C   UNL     1      15.344 -12.408   4.099  0.00  0.00    +0.044 C 
ENDBRANCH  17  20
ENDBRANCH   8  13
BRANCH  10   1
ATOM      1  O   UNL     1      22.786  -7.856   6.164  0.00  0.00    -0.390 OA
ATOM     30  H   UNL     1      22.416  -7.234   6.814  0.00  0.00    +0.210 HD
ENDBRANCH  10   1
BRANCH   4  12
ATOM     12  C   UNL     1      22.440  -6.775   1.551  0.00  0.00    +0.120 C 
BRANCH  12  14
ATOM     14  C   UNL     1      21.462  -5.917   0.792  0.00  0.00    -0.033 A 
ATOM     15  C   UNL     1      21.831  -5.352  -0.430  0.00  0.00    +0.007 A 
ATOM     16  C   UNL     1      20.188  -5.686   1.310  0.00  0.00    +0.007 A 
ATOM     18  C   UNL     1      20.924  -4.559  -1.133  0.00  0.00    +0.023 A 
ATOM     19  C   UNL     1      19.282  -4.892   0.607  0.00  0.00    +0.023 A 
ATOM     21  C   UNL     1      19.650  -4.328  -0.615  0.00  0.00    +0.033 A 
BRANCH  21   7
ATOM      3  O   UNL     1      17.381  -5.099  -2.437  0.00  0.00    -0.276 OA
ATOM      7  N   UNL     1      18.745  -3.535  -1.319  0.00  0.00    -0.286 N 
ATOM     27  C   UNL     1      17.702  -3.948  -2.158  0.00  0.00    +0.214 C 
ATOM     29  C   UNL     1      16.947  -2.776  -2.733  0.00  0.00    +0.109 C 
ATOM     31  H   UNL     1      18.864  -2.530  -1.201  0.00  0.00    +0.155 HD
ENDBRANCH  21   7
ENDBRANCH  12  14
ENDBRANCH   4  12
TORSDOF 6
ENDMDL
