MODEL 1
REMARK VINA RESULT:      -6.4      0.000      0.000
REMARK  Name = 75368469
REMARK  7 active torsions:
REMARK  status: ('A' for Active; 'I' for Inactive)
REMARK    1  A    between atoms: O_3  and  C_24
REMARK    2  A    between atoms: O_3  and  C_25
REMARK    3  A    between atoms: N_5  and  C_14
REMARK    4  A    between atoms: N_7  and  C_17
REMARK    5  A    between atoms: C_14  and  C_16
REMARK    6  A    between atoms: C_17  and  C_20
REMARK    7  A    between atoms: C_17  and  C_21
REMARK                            x       y       z     vdW  Elec       q    Type
REMARK                         _______ _______ _______ _____ _____    ______ ____
ROOT
ATOM      1  O   UNL     1      12.134   8.047  18.780  0.00  0.00    -0.252 OA
ATOM      2  O   UNL     1      18.749   6.357  19.870  0.00  0.00    -0.253 OA
ATOM      4  N   UNL     1      14.213   7.894  19.864  0.00  0.00    -0.278 N 
ATOM      5  N   UNL     1      12.469   8.723  21.014  0.00  0.00    -0.279 N 
ATOM      6  N   UNL     1      16.616   6.758  20.682  0.00  0.00    -0.282 N 
ATOM      7  N   UNL     1      18.536   7.260  21.967  0.00  0.00    -0.297 N 
ATOM      8  C   UNL     1      14.779   8.316  21.135  0.00  0.00    +0.112 C 
ATOM      9  C   UNL     1      13.555   8.667  21.977  0.00  0.00    +0.133 C 
ATOM     10  C   UNL     1      15.659   7.212  21.712  0.00  0.00    +0.133 C 
ATOM     11  C   UNL     1      15.072   7.322  18.842  0.00  0.00    +0.128 C 
ATOM     12  C   UNL     1      15.976   6.253  19.456  0.00  0.00    +0.128 C 
ATOM     13  C   UNL     1      12.850   8.205  19.761  0.00  0.00    +0.306 C 
ATOM     15  C   UNL     1      18.016   6.763  20.779  0.00  0.00    +0.303 C 
ATOM     26  H   UNL     1      17.940   7.718  22.644  0.00  0.00    +0.150 HD
ENDROOT
BRANCH   7  17
ATOM     17  C   UNL     1      19.958   7.335  22.213  0.00  0.00    +0.068 C 
ATOM     20  C   UNL     1      20.511   8.680  21.754  0.00  0.00    +0.027 C 
ATOM     21  C   UNL     1      20.254   7.092  23.688  0.00  0.00    +0.027 C 
ENDBRANCH   7  17
BRANCH   5  14
ATOM     14  C   UNL     1      11.134   9.135  21.389  0.00  0.00    +0.144 C 
BRANCH  14  16
ATOM     16  C   UNL     1      11.140  10.426  22.155  0.00  0.00    -0.030 A 
ATOM     18  C   UNL     1      11.472  11.617  21.511  0.00  0.00    +0.009 A 
ATOM     19  C   UNL     1      10.812  10.434  23.511  0.00  0.00    +0.009 A 
ATOM     22  C   UNL     1      11.478  12.818  22.221  0.00  0.00    +0.046 A 
ATOM     23  C   UNL     1      10.817  11.634  24.222  0.00  0.00    +0.046 A 
ATOM     24  C   UNL     1      11.150  12.826  23.577  0.00  0.00    +0.120 A 
BRANCH  24   3
ATOM      3  O   UNL     1      11.156  13.996  24.271  0.00  0.00    -0.495 OA
ATOM     25  C   UNL     1      10.794  13.933  25.651  0.00  0.00    +0.277 C 
ENDBRANCH  24   3
ENDBRANCH  14  16
ENDBRANCH   5  14
TORSDOF 4
ENDMDL
MODEL 2
REMARK VINA RESULT:      -6.3     28.004     31.189
REMARK  Name = 75368469
REMARK  7 active torsions:
REMARK  status: ('A' for Active; 'I' for Inactive)
REMARK    1  A    between atoms: O_3  and  C_24
REMARK    2  A    between atoms: O_3  and  C_25
REMARK    3  A    between atoms: N_5  and  C_14
REMARK    4  A    between atoms: N_7  and  C_17
REMARK    5  A    between atoms: C_14  and  C_16
REMARK    6  A    between atoms: C_17  and  C_20
REMARK    7  A    between atoms: C_17  and  C_21
REMARK                            x       y       z     vdW  Elec       q    Type
REMARK                         _______ _______ _______ _____ _____    ______ ____
ROOT
ATOM      1  O   UNL     1     -14.189   4.380  34.431  0.00  0.00    -0.252 OA
ATOM      2  O   UNL     1     -15.379  -0.064  29.270  0.00  0.00    -0.253 OA
ATOM      4  N   UNL     1     -14.940   3.572  32.357  0.00  0.00    -0.278 N 
ATOM      5  N   UNL     1     -15.039   5.785  32.738  0.00  0.00    -0.279 N 
ATOM      6  N   UNL     1     -14.914   2.084  30.008  0.00  0.00    -0.282 N 
ATOM      7  N   UNL     1     -16.209   1.703  28.066  0.00  0.00    -0.297 N 
ATOM      8  C   UNL     1     -15.611   4.116  31.187  0.00  0.00    +0.112 C 
ATOM      9  C   UNL     1     -15.471   5.626  31.360  0.00  0.00    +0.133 C 
ATOM     10  C   UNL     1     -14.985   3.556  29.914  0.00  0.00    +0.133 C 
ATOM     11  C   UNL     1     -14.722   2.140  32.467  0.00  0.00    +0.128 C 
ATOM     12  C   UNL     1     -14.140   1.597  31.161  0.00  0.00    +0.128 C 
ATOM     13  C   UNL     1     -14.666   4.556  33.317  0.00  0.00    +0.306 C 
ATOM     15  C   UNL     1     -15.492   1.158  29.124  0.00  0.00    +0.303 C 
ATOM     26  H   UNL     1     -16.414   2.693  28.031  0.00  0.00    +0.150 HD
ENDROOT
BRANCH   7  17
ATOM     17  C   UNL     1     -16.866   0.879  27.077  0.00  0.00    +0.068 C 
ATOM     20  C   UNL     1     -18.329   0.665  27.445  0.00  0.00    +0.027 C 
ATOM     21  C   UNL     1     -16.730   1.503  25.693  0.00  0.00    +0.027 C 
ENDBRANCH   7  17
BRANCH   5  14
ATOM     14  C   UNL     1     -14.889   7.087  33.348  0.00  0.00    +0.144 C 
BRANCH  14  16
ATOM     16  C   UNL     1     -13.973   7.975  32.558  0.00  0.00    -0.030 A 
ATOM     18  C   UNL     1     -12.592   7.800  32.639  0.00  0.00    +0.009 A 
ATOM     19  C   UNL     1     -14.502   8.975  31.742  0.00  0.00    +0.009 A 
ATOM     22  C   UNL     1     -11.739   8.624  31.905  0.00  0.00    +0.046 A 
ATOM     23  C   UNL     1     -13.650   9.800  31.007  0.00  0.00    +0.046 A 
ATOM     24  C   UNL     1     -12.268   9.624  31.089  0.00  0.00    +0.120 A 
BRANCH  24   3
ATOM      3  O   UNL     1     -11.437  10.429  30.373  0.00  0.00    -0.495 OA
ATOM     25  C   UNL     1     -11.511  10.336  28.951  0.00  0.00    +0.277 C 
ENDBRANCH  24   3
ENDBRANCH  14  16
ENDBRANCH   5  14
TORSDOF 4
ENDMDL
MODEL 3
REMARK VINA RESULT:      -6.3     27.429     29.686
REMARK  Name = 75368469
REMARK  7 active torsions:
REMARK  status: ('A' for Active; 'I' for Inactive)
REMARK    1  A    between atoms: O_3  and  C_24
REMARK    2  A    between atoms: O_3  and  C_25
REMARK    3  A    between atoms: N_5  and  C_14
REMARK    4  A    between atoms: N_7  and  C_17
REMARK    5  A    between atoms: C_14  and  C_16
REMARK    6  A    between atoms: C_17  and  C_20
REMARK    7  A    between atoms: C_17  and  C_21
REMARK                            x       y       z     vdW  Elec       q    Type
REMARK                         _______ _______ _______ _____ _____    ______ ____
ROOT
ATOM      1  O   UNL     1      -1.223 -11.418  15.105  0.00  0.00    -0.252 OA
ATOM      2  O   UNL     1      -6.834 -10.423  19.022  0.00  0.00    -0.253 OA
ATOM      4  N   UNL     1      -3.445 -10.904  15.671  0.00  0.00    -0.278 N 
ATOM      5  N   UNL     1      -2.915 -11.088  13.495  0.00  0.00    -0.279 N 
ATOM      6  N   UNL     1      -5.869 -11.087  17.021  0.00  0.00    -0.282 N 
ATOM      7  N   UNL     1      -8.012 -10.089  17.083  0.00  0.00    -0.297 N 
ATOM      8  C   UNL     1      -4.659 -10.529  14.964  0.00  0.00    +0.112 C 
ATOM      9  C   UNL     1      -4.351 -10.871  13.510  0.00  0.00    +0.133 C 
ATOM     10  C   UNL     1      -5.860 -11.262  15.555  0.00  0.00    +0.133 C 
ATOM     11  C   UNL     1      -3.413 -10.875  17.123  0.00  0.00    +0.128 C 
ATOM     12  C   UNL     1      -4.650 -11.574  17.688  0.00  0.00    +0.128 C 
ATOM     13  C   UNL     1      -2.381 -11.164  14.796  0.00  0.00    +0.306 C 
ATOM     15  C   UNL     1      -6.901 -10.527  17.792  0.00  0.00    +0.303 C 
ATOM     26  H   UNL     1      -8.002 -10.049  16.073  0.00  0.00    +0.150 HD
ENDROOT
BRANCH   7  17
ATOM     17  C   UNL     1      -9.151  -9.485  17.735  0.00  0.00    +0.068 C 
ATOM     20  C   UNL     1      -9.567  -8.208  17.015  0.00  0.00    +0.027 C 
ATOM     21  C   UNL     1     -10.306 -10.477  17.810  0.00  0.00    +0.027 C 
ENDBRANCH   7  17
BRANCH   5  14
ATOM     14  C   UNL     1      -2.190 -11.335  12.268  0.00  0.00    +0.144 C 
BRANCH  14  16
ATOM     16  C   UNL     1      -2.960 -10.884  11.061  0.00  0.00    -0.030 A 
ATOM     18  C   UNL     1      -3.683 -11.809  10.309  0.00  0.00    +0.009 A 
ATOM     19  C   UNL     1      -2.954  -9.538  10.693  0.00  0.00    +0.009 A 
ATOM     22  C   UNL     1      -4.399 -11.391   9.187  0.00  0.00    +0.046 A 
ATOM     23  C   UNL     1      -3.670  -9.118   9.571  0.00  0.00    +0.046 A 
ATOM     24  C   UNL     1      -4.393 -10.045   8.819  0.00  0.00    +0.120 A 
BRANCH  24   3
ATOM      3  O   UNL     1      -5.090  -9.636   7.725  0.00  0.00    -0.495 OA
ATOM     25  C   UNL     1      -5.432 -10.633   6.763  0.00  0.00    +0.277 C 
ENDBRANCH  24   3
ENDBRANCH  14  16
ENDBRANCH   5  14
TORSDOF 4
ENDMDL
MODEL 4
REMARK VINA RESULT:      -6.1     27.563     30.092
REMARK  Name = 75368469
REMARK  7 active torsions:
REMARK  status: ('A' for Active; 'I' for Inactive)
REMARK    1  A    between atoms: O_3  and  C_24
REMARK    2  A    between atoms: O_3  and  C_25
REMARK    3  A    between atoms: N_5  and  C_14
REMARK    4  A    between atoms: N_7  and  C_17
REMARK    5  A    between atoms: C_14  and  C_16
REMARK    6  A    between atoms: C_17  and  C_20
REMARK    7  A    between atoms: C_17  and  C_21
REMARK                            x       y       z     vdW  Elec       q    Type
REMARK                         _______ _______ _______ _____ _____    ______ ____
ROOT
ATOM      1  O   UNL     1      -1.995 -10.419  15.394  0.00  0.00    -0.252 OA
ATOM      2  O   UNL     1      -6.888 -11.846  20.066  0.00  0.00    -0.253 OA
ATOM      4  N   UNL     1      -3.904 -11.404  16.345  0.00  0.00    -0.278 N 
ATOM      5  N   UNL     1      -3.159 -12.203  14.382  0.00  0.00    -0.279 N 
ATOM      6  N   UNL     1      -5.521 -12.513  18.317  0.00  0.00    -0.282 N 
ATOM      7  N   UNL     1      -7.679 -13.434  18.613  0.00  0.00    -0.297 N 
ATOM      8  C   UNL     1      -4.896 -12.391  15.950  0.00  0.00    +0.112 C 
ATOM      9  C   UNL     1      -4.265 -13.073  14.740  0.00  0.00    +0.133 C 
ATOM     10  C   UNL     1      -5.209 -13.319  17.120  0.00  0.00    +0.133 C 
ATOM     11  C   UNL     1      -4.078 -10.654  17.577  0.00  0.00    +0.128 C 
ATOM     12  C   UNL     1      -4.438 -11.603  18.721  0.00  0.00    +0.128 C 
ATOM     13  C   UNL     1      -2.907 -11.236  15.374  0.00  0.00    +0.306 C 
ATOM     15  C   UNL     1      -6.707 -12.551  19.067  0.00  0.00    +0.303 C 
ATOM     26  H   UNL     1      -7.581 -13.902  17.722  0.00  0.00    +0.150 HD
ENDROOT
BRANCH   7  17
ATOM     17  C   UNL     1      -8.955 -13.581  19.276  0.00  0.00    +0.068 C 
ATOM     20  C   UNL     1     -10.014 -12.724  18.594  0.00  0.00    +0.027 C 
ATOM     21  C   UNL     1      -9.369 -15.048  19.308  0.00  0.00    +0.027 C 
ENDBRANCH   7  17
BRANCH   5  14
ATOM     14  C   UNL     1      -2.352 -12.436  13.204  0.00  0.00    +0.144 C 
BRANCH  14  16
ATOM     16  C   UNL     1      -2.796 -11.592  12.045  0.00  0.00    -0.030 A 
ATOM     18  C   UNL     1      -2.217 -10.341  11.830  0.00  0.00    +0.009 A 
ATOM     19  C   UNL     1      -3.788 -12.058  11.181  0.00  0.00    +0.009 A 
ATOM     22  C   UNL     1      -2.629  -9.556  10.754  0.00  0.00    +0.046 A 
ATOM     23  C   UNL     1      -4.200 -11.274  10.104  0.00  0.00    +0.046 A 
ATOM     24  C   UNL     1      -3.620 -10.023   9.890  0.00  0.00    +0.120 A 
BRANCH  24   3
ATOM      3  O   UNL     1      -4.023  -9.258   8.840  0.00  0.00    -0.495 OA
ATOM     25  C   UNL     1      -5.078  -9.774   8.029  0.00  0.00    +0.277 C 
ENDBRANCH  24   3
ENDBRANCH  14  16
ENDBRANCH   5  14
TORSDOF 4
ENDMDL
MODEL 5
REMARK VINA RESULT:      -6.0     27.364     29.607
REMARK  Name = 75368469
REMARK  7 active torsions:
REMARK  status: ('A' for Active; 'I' for Inactive)
REMARK    1  A    between atoms: O_3  and  C_24
REMARK    2  A    between atoms: O_3  and  C_25
REMARK    3  A    between atoms: N_5  and  C_14
REMARK    4  A    between atoms: N_7  and  C_17
REMARK    5  A    between atoms: C_14  and  C_16
REMARK    6  A    between atoms: C_17  and  C_20
REMARK    7  A    between atoms: C_17  and  C_21
REMARK                            x       y       z     vdW  Elec       q    Type
REMARK                         _______ _______ _______ _____ _____    ______ ____
ROOT
ATOM      1  O   UNL     1      -9.304 -10.880  19.825  0.00  0.00    -0.252 OA
ATOM      2  O   UNL     1      -3.010 -11.347  17.001  0.00  0.00    -0.253 OA
ATOM      4  N   UNL     1      -7.608 -10.757  18.203  0.00  0.00    -0.278 N 
ATOM      5  N   UNL     1      -9.622  -9.889  17.709  0.00  0.00    -0.279 N 
ATOM      6  N   UNL     1      -5.074 -10.304  17.153  0.00  0.00    -0.282 N 
ATOM      7  N   UNL     1      -3.894 -10.406  15.106  0.00  0.00    -0.297 N 
ATOM      8  C   UNL     1      -7.501 -10.348  16.812  0.00  0.00    +0.112 C 
ATOM      9  C   UNL     1      -8.788  -9.568  16.564  0.00  0.00    +0.133 C 
ATOM     10  C   UNL     1      -6.217  -9.553  16.596  0.00  0.00    +0.133 C 
ATOM     11  C   UNL     1      -6.481 -11.394  18.861  0.00  0.00    +0.128 C 
ATOM     12  C   UNL     1      -5.201 -10.604  18.588  0.00  0.00    +0.128 C 
ATOM     13  C   UNL     1      -8.897 -10.554  18.717  0.00  0.00    +0.306 C 
ATOM     15  C   UNL     1      -3.930 -10.726  16.457  0.00  0.00    +0.303 C 
ATOM     26  H   UNL     1      -4.706 -10.025  14.640  0.00  0.00    +0.150 HD
ENDROOT
BRANCH   7  17
ATOM     17  C   UNL     1      -2.785 -10.778  14.257  0.00  0.00    +0.068 C 
ATOM     20  C   UNL     1      -3.155 -10.607  12.788  0.00  0.00    +0.027 C 
ATOM     21  C   UNL     1      -1.548  -9.962  14.613  0.00  0.00    +0.027 C 
ENDBRANCH   7  17
BRANCH   5  14
ATOM     14  C   UNL     1     -10.990  -9.431  17.814  0.00  0.00    +0.144 C 
BRANCH  14  16
ATOM     16  C   UNL     1     -11.293  -8.342  16.826  0.00  0.00    -0.030 A 
ATOM     18  C   UNL     1     -12.110  -8.605  15.727  0.00  0.00    +0.009 A 
ATOM     19  C   UNL     1     -10.759  -7.066  17.009  0.00  0.00    +0.009 A 
ATOM     22  C   UNL     1     -12.393  -7.593  14.809  0.00  0.00    +0.046 A 
ATOM     23  C   UNL     1     -11.042  -6.053  16.091  0.00  0.00    +0.046 A 
ATOM     24  C   UNL     1     -11.859  -6.317  14.992  0.00  0.00    +0.120 A 
BRANCH  24   3
ATOM      3  O   UNL     1     -12.134  -5.331  14.097  0.00  0.00    -0.495 OA
ATOM     25  C   UNL     1     -12.661  -5.730  12.832  0.00  0.00    +0.277 C 
ENDBRANCH  24   3
ENDBRANCH  14  16
ENDBRANCH   5  14
TORSDOF 4
ENDMDL
MODEL 6
REMARK VINA RESULT:      -6.0     27.361     30.008
REMARK  Name = 75368469
REMARK  7 active torsions:
REMARK  status: ('A' for Active; 'I' for Inactive)
REMARK    1  A    between atoms: O_3  and  C_24
REMARK    2  A    between atoms: O_3  and  C_25
REMARK    3  A    between atoms: N_5  and  C_14
REMARK    4  A    between atoms: N_7  and  C_17
REMARK    5  A    between atoms: C_14  and  C_16
REMARK    6  A    between atoms: C_17  and  C_20
REMARK    7  A    between atoms: C_17  and  C_21
REMARK                            x       y       z     vdW  Elec       q    Type
REMARK                         _______ _______ _______ _____ _____    ______ ____
ROOT
ATOM      1  O   UNL     1      -2.960 -12.975  11.399  0.00  0.00    -0.252 OA
ATOM      2  O   UNL     1      -7.135 -11.057   6.232  0.00  0.00    -0.253 OA
ATOM      4  N   UNL     1      -4.224 -11.572  10.001  0.00  0.00    -0.278 N 
ATOM      5  N   UNL     1      -2.857 -10.621  11.510  0.00  0.00    -0.279 N 
ATOM      6  N   UNL     1      -5.348 -10.619   7.643  0.00  0.00    -0.282 N 
ATOM      7  N   UNL     1      -6.744  -8.883   6.850  0.00  0.00    -0.297 N 
ATOM      8  C   UNL     1      -4.488 -10.147   9.889  0.00  0.00    +0.112 C 
ATOM      9  C   UNL     1      -3.404  -9.509  10.753  0.00  0.00    +0.133 C 
ATOM     10  C   UNL     1      -4.472  -9.722   8.423  0.00  0.00    +0.133 C 
ATOM     11  C   UNL     1      -4.960 -12.513   9.175  0.00  0.00    +0.128 C 
ATOM     12  C   UNL     1      -4.969 -12.039   7.722  0.00  0.00    +0.128 C 
ATOM     13  C   UNL     1      -3.306 -11.863  11.021  0.00  0.00    +0.306 C 
ATOM     15  C   UNL     1      -6.454 -10.242   6.864  0.00  0.00    +0.303 C 
ATOM     26  H   UNL     1      -6.274  -8.244   7.476  0.00  0.00    +0.150 HD
ENDROOT
BRANCH   7  17
ATOM     17  C   UNL     1      -7.855  -8.342   6.100  0.00  0.00    +0.068 C 
ATOM     20  C   UNL     1      -8.347  -7.046   6.732  0.00  0.00    +0.027 C 
ATOM     21  C   UNL     1      -7.458  -8.130   4.644  0.00  0.00    +0.027 C 
ENDBRANCH   7  17
BRANCH   5  14
ATOM     14  C   UNL     1      -1.861 -10.429  12.542  0.00  0.00    +0.144 C 
BRANCH  14  16
ATOM     16  C   UNL     1      -2.448 -10.555  13.918  0.00  0.00    -0.030 A 
ATOM     18  C   UNL     1      -1.613 -10.553  15.034  0.00  0.00    +0.009 A 
ATOM     19  C   UNL     1      -3.829 -10.674  14.080  0.00  0.00    +0.009 A 
ATOM     22  C   UNL     1      -2.156 -10.670  16.314  0.00  0.00    +0.046 A 
ATOM     23  C   UNL     1      -4.373 -10.791  15.359  0.00  0.00    +0.046 A 
ATOM     24  C   UNL     1      -3.537 -10.788  16.476  0.00  0.00    +0.120 A 
BRANCH  24   3
ATOM      3  O   UNL     1      -4.069 -10.903  17.723  0.00  0.00    -0.495 OA
ATOM     25  C   UNL     1      -5.475 -10.693  17.850  0.00  0.00    +0.277 C 
ENDBRANCH  24   3
ENDBRANCH  14  16
ENDBRANCH   5  14
TORSDOF 4
ENDMDL
MODEL 7
REMARK VINA RESULT:      -5.9     27.494     30.305
REMARK  Name = 75368469
REMARK  7 active torsions:
REMARK  status: ('A' for Active; 'I' for Inactive)
REMARK    1  A    between atoms: O_3  and  C_24
REMARK    2  A    between atoms: O_3  and  C_25
REMARK    3  A    between atoms: N_5  and  C_14
REMARK    4  A    between atoms: N_7  and  C_17
REMARK    5  A    between atoms: C_14  and  C_16
REMARK    6  A    between atoms: C_17  and  C_20
REMARK    7  A    between atoms: C_17  and  C_21
REMARK                            x       y       z     vdW  Elec       q    Type
REMARK                         _______ _______ _______ _____ _____    ______ ____
ROOT
ATOM      1  O   UNL     1      -4.319 -11.572  18.871  0.00  0.00    -0.252 OA
ATOM      2  O   UNL     1     -10.908  -9.495  18.594  0.00  0.00    -0.253 OA
ATOM      4  N   UNL     1      -6.240 -10.454  18.111  0.00  0.00    -0.278 N 
ATOM      5  N   UNL     1      -4.394 -10.394  16.830  0.00  0.00    -0.279 N 
ATOM      6  N   UNL     1      -8.929 -10.057  17.525  0.00  0.00    -0.282 N 
ATOM      7  N   UNL     1     -10.388  -8.424  16.634  0.00  0.00    -0.297 N 
ATOM      8  C   UNL     1      -6.584  -9.565  17.013  0.00  0.00    +0.112 C 
ATOM      9  C   UNL     1      -5.410  -9.710  16.048  0.00  0.00    +0.133 C 
ATOM     10  C   UNL     1      -7.942  -9.946  16.432  0.00  0.00    +0.133 C 
ATOM     11  C   UNL     1      -7.206 -10.711  19.164  0.00  0.00    +0.128 C 
ATOM     12  C   UNL     1      -8.568 -11.044  18.556  0.00  0.00    +0.128 C 
ATOM     13  C   UNL     1      -4.909 -10.889  18.044  0.00  0.00    +0.306 C 
ATOM     15  C   UNL     1     -10.128  -9.337  17.648  0.00  0.00    +0.303 C 
ATOM     26  H   UNL     1      -9.686  -8.200  15.942  0.00  0.00    +0.150 HD
ENDROOT
BRANCH   7  17
ATOM     17  C   UNL     1     -11.579  -7.605  16.624  0.00  0.00    +0.068 C 
ATOM     20  C   UNL     1     -11.239  -6.171  16.236  0.00  0.00    +0.027 C 
ATOM     21  C   UNL     1     -12.622  -8.198  15.684  0.00  0.00    +0.027 C 
ENDBRANCH   7  17
BRANCH   5  14
ATOM     14  C   UNL     1      -3.065 -10.635  16.314  0.00  0.00    +0.144 C 
BRANCH  14  16
ATOM     16  C   UNL     1      -3.098 -11.248  14.944  0.00  0.00    -0.030 A 
ATOM     18  C   UNL     1      -3.639 -12.521  14.762  0.00  0.00    +0.009 A 
ATOM     19  C   UNL     1      -2.589 -10.545  13.852  0.00  0.00    +0.009 A 
ATOM     22  C   UNL     1      -3.670 -13.091  13.490  0.00  0.00    +0.046 A 
ATOM     23  C   UNL     1      -2.620 -11.114  12.579  0.00  0.00    +0.046 A 
ATOM     24  C   UNL     1      -3.161 -12.388  12.398  0.00  0.00    +0.120 A 
BRANCH  24   3
ATOM      3  O   UNL     1      -3.190 -12.943  11.157  0.00  0.00    -0.495 OA
ATOM     25  C   UNL     1      -3.842 -12.199  10.128  0.00  0.00    +0.277 C 
ENDBRANCH  24   3
ENDBRANCH  14  16
ENDBRANCH   5  14
TORSDOF 4
ENDMDL
MODEL 8
REMARK VINA RESULT:      -5.9     29.174     31.288
REMARK  Name = 75368469
REMARK  7 active torsions:
REMARK  status: ('A' for Active; 'I' for Inactive)
REMARK    1  A    between atoms: O_3  and  C_24
REMARK    2  A    between atoms: O_3  and  C_25
REMARK    3  A    between atoms: N_5  and  C_14
REMARK    4  A    between atoms: N_7  and  C_17
REMARK    5  A    between atoms: C_14  and  C_16
REMARK    6  A    between atoms: C_17  and  C_20
REMARK    7  A    between atoms: C_17  and  C_21
REMARK                            x       y       z     vdW  Elec       q    Type
REMARK                         _______ _______ _______ _____ _____    ______ ____
ROOT
ATOM      1  O   UNL     1     -14.251  -7.235  15.219  0.00  0.00    -0.252 OA
ATOM      2  O   UNL     1      -9.563 -11.088  18.534  0.00  0.00    -0.253 OA
ATOM      4  N   UNL     1     -12.152  -7.981  15.969  0.00  0.00    -0.278 N 
ATOM      5  N   UNL     1     -12.257  -6.025  14.867  0.00  0.00    -0.279 N 
ATOM      6  N   UNL     1     -10.266  -9.035  17.719  0.00  0.00    -0.282 N 
ATOM      7  N   UNL     1      -7.972  -9.600  17.817  0.00  0.00    -0.297 N 
ATOM      8  C   UNL     1     -10.766  -7.568  15.821  0.00  0.00    +0.112 C 
ATOM      9  C   UNL     1     -10.869  -6.147  15.274  0.00  0.00    +0.133 C 
ATOM     10  C   UNL     1     -10.035  -7.690  17.155  0.00  0.00    +0.133 C 
ATOM     11  C   UNL     1     -12.468  -9.237  16.626  0.00  0.00    +0.128 C 
ATOM     12  C   UNL     1     -11.686  -9.356  17.934  0.00  0.00    +0.128 C 
ATOM     13  C   UNL     1     -13.039  -7.100  15.334  0.00  0.00    +0.306 C 
ATOM     15  C   UNL     1      -9.286  -9.982  18.057  0.00  0.00    +0.303 C 
ATOM     26  H   UNL     1      -7.762  -8.757  17.301  0.00  0.00    +0.150 HD
ENDROOT
BRANCH   7  17
ATOM     17  C   UNL     1      -6.854 -10.468  18.107  0.00  0.00    +0.068 C 
ATOM     20  C   UNL     1      -5.710 -10.212  17.134  0.00  0.00    +0.027 C 
ATOM     21  C   UNL     1      -6.401 -10.284  19.551  0.00  0.00    +0.027 C 
ENDBRANCH   7  17
BRANCH   5  14
ATOM     14  C   UNL     1     -12.756  -4.849  14.188  0.00  0.00    +0.144 C 
BRANCH  14  16
ATOM     16  C   UNL     1     -12.429  -4.866  12.723  0.00  0.00    -0.030 A 
ATOM     18  C   UNL     1     -12.130  -3.676  12.062  0.00  0.00    +0.009 A 
ATOM     19  C   UNL     1     -12.423  -6.073  12.023  0.00  0.00    +0.009 A 
ATOM     22  C   UNL     1     -11.825  -3.690  10.701  0.00  0.00    +0.046 A 
ATOM     23  C   UNL     1     -12.118  -6.089  10.662  0.00  0.00    +0.046 A 
ATOM     24  C   UNL     1     -11.819  -4.897  10.001  0.00  0.00    +0.120 A 
BRANCH  24   3
ATOM      3  O   UNL     1     -11.523  -4.913   8.673  0.00  0.00    -0.495 OA
ATOM     25  C   UNL     1     -10.282  -5.505   8.292  0.00  0.00    +0.277 C 
ENDBRANCH  24   3
ENDBRANCH  14  16
ENDBRANCH   5  14
TORSDOF 4
ENDMDL
MODEL 9
REMARK VINA RESULT:      -5.9      3.330      4.813
REMARK  Name = 75368469
REMARK  7 active torsions:
REMARK  status: ('A' for Active; 'I' for Inactive)
REMARK    1  A    between atoms: O_3  and  C_24
REMARK    2  A    between atoms: O_3  and  C_25
REMARK    3  A    between atoms: N_5  and  C_14
REMARK    4  A    between atoms: N_7  and  C_17
REMARK    5  A    between atoms: C_14  and  C_16
REMARK    6  A    between atoms: C_17  and  C_20
REMARK    7  A    between atoms: C_17  and  C_21
REMARK                            x       y       z     vdW  Elec       q    Type
REMARK                         _______ _______ _______ _____ _____    ______ ____
ROOT
ATOM      1  O   UNL     1      15.372   6.274  21.153  0.00  0.00    -0.252 OA
ATOM      2  O   UNL     1      22.146   6.964  19.951  0.00  0.00    -0.253 OA
ATOM      4  N   UNL     1      17.463   7.314  20.893  0.00  0.00    -0.278 N 
ATOM      5  N   UNL     1      15.756   8.538  21.691  0.00  0.00    -0.279 N 
ATOM      6  N   UNL     1      20.221   7.633  21.054  0.00  0.00    -0.282 N 
ATOM      7  N   UNL     1      21.922   9.179  20.500  0.00  0.00    -0.297 N 
ATOM      8  C   UNL     1      17.997   8.662  21.002  0.00  0.00    +0.112 C 
ATOM      9  C   UNL     1      16.905   9.425  21.746  0.00  0.00    +0.133 C 
ATOM     10  C   UNL     1      19.352   8.636  21.702  0.00  0.00    +0.133 C 
ATOM     11  C   UNL     1      18.298   6.243  20.379  0.00  0.00    +0.128 C 
ATOM     12  C   UNL     1      19.665   6.270  21.062  0.00  0.00    +0.128 C 
ATOM     13  C   UNL     1      16.104   7.253  21.232  0.00  0.00    +0.306 C 
ATOM     15  C   UNL     1      21.475   7.864  20.468  0.00  0.00    +0.303 C 
ATOM     26  H   UNL     1      21.311   9.928  20.797  0.00  0.00    +0.150 HD
ENDROOT
BRANCH   7  17
ATOM     17  C   UNL     1      23.190   9.574  19.932  0.00  0.00    +0.068 C 
ATOM     20  C   UNL     1      22.987  10.225  18.569  0.00  0.00    +0.027 C 
ATOM     21  C   UNL     1      23.930  10.507  20.884  0.00  0.00    +0.027 C 
ENDBRANCH   7  17
BRANCH   5  14
ATOM     14  C   UNL     1      14.459   8.933  22.195  0.00  0.00    +0.144 C 
BRANCH  14  16
ATOM     16  C   UNL     1      13.392   8.826  21.144  0.00  0.00    -0.030 A 
ATOM     18  C   UNL     1      12.147   8.288  21.467  0.00  0.00    +0.009 A 
ATOM     19  C   UNL     1      13.646   9.266  19.845  0.00  0.00    +0.009 A 
ATOM     22  C   UNL     1      11.155   8.188  20.492  0.00  0.00    +0.046 A 
ATOM     23  C   UNL     1      12.654   9.166  18.869  0.00  0.00    +0.046 A 
ATOM     24  C   UNL     1      11.408   8.628  19.193  0.00  0.00    +0.120 A 
BRANCH  24   3
ATOM      3  O   UNL     1      10.442   8.530  18.240  0.00  0.00    -0.495 OA
ATOM     25  C   UNL     1      10.860   8.637  16.880  0.00  0.00    +0.277 C 
ENDBRANCH  24   3
ENDBRANCH  14  16
ENDBRANCH   5  14
TORSDOF 4
ENDMDL
MODEL 10
REMARK VINA RESULT:      -5.8     27.802     29.927
REMARK  Name = 75368469
REMARK  7 active torsions:
REMARK  status: ('A' for Active; 'I' for Inactive)
REMARK    1  A    between atoms: O_3  and  C_24
REMARK    2  A    between atoms: O_3  and  C_25
REMARK    3  A    between atoms: N_5  and  C_14
REMARK    4  A    between atoms: N_7  and  C_17
REMARK    5  A    between atoms: C_14  and  C_16
REMARK    6  A    between atoms: C_17  and  C_20
REMARK    7  A    between atoms: C_17  and  C_21
REMARK                            x       y       z     vdW  Elec       q    Type
REMARK                         _______ _______ _______ _____ _____    ______ ____
ROOT
ATOM      1  O   UNL     1     -10.354 -11.832  17.082  0.00  0.00    -0.252 OA
ATOM      2  O   UNL     1      -3.853 -13.164  15.139  0.00  0.00    -0.253 OA
ATOM      4  N   UNL     1      -8.089 -11.456  16.581  0.00  0.00    -0.278 N 
ATOM      5  N   UNL     1      -9.258  -9.795  17.543  0.00  0.00    -0.279 N 
ATOM      6  N   UNL     1      -5.361 -11.975  16.437  0.00  0.00    -0.282 N 
ATOM      7  N   UNL     1      -3.347 -10.994  15.679  0.00  0.00    -0.297 N 
ATOM      8  C   UNL     1      -7.170 -10.330  16.613  0.00  0.00    +0.112 C 
ATOM      9  C   UNL     1      -7.898  -9.292  17.461  0.00  0.00    +0.133 C 
ATOM     10  C   UNL     1      -5.816 -10.771  17.162  0.00  0.00    +0.133 C 
ATOM     11  C   UNL     1      -7.671 -12.717  15.994  0.00  0.00    +0.128 C 
ATOM     12  C   UNL     1      -6.293 -13.111  16.524  0.00  0.00    +0.128 C 
ATOM     13  C   UNL     1      -9.360 -11.116  17.067  0.00  0.00    +0.306 C 
ATOM     15  C   UNL     1      -4.166 -12.116  15.714  0.00  0.00    +0.303 C 
ATOM     26  H   UNL     1      -3.671 -10.103  16.030  0.00  0.00    +0.150 HD
ENDROOT
BRANCH   7  17
ATOM     17  C   UNL     1      -2.088 -10.983  14.971  0.00  0.00    +0.068 C 
ATOM     20  C   UNL     1      -2.269 -10.423  13.565  0.00  0.00    +0.027 C 
ATOM     21  C   UNL     1      -1.048 -10.187  15.751  0.00  0.00    +0.027 C 
ENDBRANCH   7  17
BRANCH   5  14
ATOM     14  C   UNL     1     -10.316  -9.042  18.180  0.00  0.00    +0.144 C 
BRANCH  14  16
ATOM     16  C   UNL     1     -11.062  -8.184  17.200  0.00  0.00    -0.030 A 
ATOM     18  C   UNL     1     -10.470  -7.028  16.694  0.00  0.00    +0.009 A 
ATOM     19  C   UNL     1     -12.348  -8.543  16.795  0.00  0.00    +0.009 A 
ATOM     22  C   UNL     1     -11.161  -6.230  15.783  0.00  0.00    +0.046 A 
ATOM     23  C   UNL     1     -13.041  -7.746  15.885  0.00  0.00    +0.046 A 
ATOM     24  C   UNL     1     -12.447  -6.589  15.378  0.00  0.00    +0.120 A 
BRANCH  24   3
ATOM      3  O   UNL     1     -13.124  -5.811  14.491  0.00  0.00    -0.495 OA
ATOM     25  C   UNL     1     -12.343  -5.003  13.610  0.00  0.00    +0.277 C 
ENDBRANCH  24   3
ENDBRANCH  14  16
ENDBRANCH   5  14
TORSDOF 4
ENDMDL
