MODEL 1
REMARK VINA RESULT:      -7.2      0.000      0.000
REMARK  Name = 26744288
REMARK  7 active torsions:
REMARK  status: ('A' for Active; 'I' for Inactive)
REMARK    1  A    between atoms: S_1  and  C_24
REMARK    2  A    between atoms: S_1  and  C_25
REMARK    3  A    between atoms: O_3  and  C_14
REMARK    4  A    between atoms: N_6  and  C_18
REMARK    5  A    between atoms: C_9  and  C_16
REMARK    6  A    between atoms: C_10  and  C_17
REMARK    7  A    between atoms: C_18  and  C_19
REMARK                            x       y       z     vdW  Elec       q    Type
REMARK                         _______ _______ _______ _____ _____    ______ ____
ROOT
ATOM      6  N   UNL     1      12.634   8.649  18.654  0.00  0.00    -0.285 NA
ATOM     10  C   UNL     1      13.628   7.625  18.274  0.00  0.00    +0.149 C 
ATOM     13  C   UNL     1      13.978   7.942  16.808  0.00  0.00    +0.061 C 
ATOM     14  C   UNL     1      13.098   9.130  16.439  0.00  0.00    +0.130 C 
ATOM     15  C   UNL     1      11.946   9.036  17.422  0.00  0.00    +0.116 C 
ENDROOT
BRANCH  10  17
ATOM      2  O   UNL     1      15.272   8.841  19.612  0.00  0.00    -0.336 OA
ATOM      7  N   UNL     1      15.550   6.618  19.619  0.00  0.00    -0.194 NA
ATOM      8  N   UNL     1      16.387   8.590  20.423  0.00  0.00    -0.061 NA
ATOM     16  C   UNL     1      16.487   7.259  20.377  0.00  0.00    +0.175 A 
ATOM     17  C   UNL     1      14.841   7.627  19.179  0.00  0.00    +0.245 A 
BRANCH  16   9
ATOM      9  C   UNL     1      17.584   6.501  21.131  0.00  0.00    +0.060 C 
ATOM     11  C   UNL     1      18.865   7.215  21.447  0.00  0.00    +0.012 C 
ATOM     12  C   UNL     1      18.844   6.141  20.398  0.00  0.00    +0.012 C 
ENDBRANCH  16   9
ENDBRANCH  10  17
BRANCH  14   3
ATOM      3  O   UNL     1      12.653   9.029  15.100  0.00  0.00    -0.390 OA
ATOM     26  H   UNL     1      13.429   9.152  14.526  0.00  0.00    +0.210 HD
ENDBRANCH  14   3
BRANCH   6  18
ATOM     18  C   UNL     1      11.704   8.195  19.680  0.00  0.00    +0.120 C 
BRANCH  18  19
ATOM     19  C   UNL     1      11.648   9.147  20.845  0.00  0.00    -0.033 A 
ATOM     20  C   UNL     1      12.397  10.324  20.820  0.00  0.00    +0.007 A 
ATOM     21  C   UNL     1      10.848   8.854  21.948  0.00  0.00    +0.007 A 
ATOM     22  C   UNL     1      12.345  11.206  21.899  0.00  0.00    +0.027 A 
ATOM     23  C   UNL     1      10.796   9.735  23.028  0.00  0.00    +0.027 A 
ATOM     24  C   UNL     1      11.545  10.912  23.003  0.00  0.00    +0.088 A 
BRANCH  24   1
ATOM      1  S   UNL     1      11.477  12.019  24.352  0.00  0.00    -0.006 S 
ATOM      4  O   UNL     1      10.842  11.350  25.479  0.00  0.00    -0.170 OA
ATOM      5  O   UNL     1      12.797  12.610  24.513  0.00  0.00    -0.170 OA
ATOM     25  C   UNL     1      10.366  13.300  23.817  0.00  0.00    +0.200 C 
ENDBRANCH  24   1
ENDBRANCH  18  19
ENDBRANCH   6  18
TORSDOF 6
ENDMDL
MODEL 2
REMARK VINA RESULT:      -6.7      3.504      7.309
REMARK  Name = 26744288
REMARK  7 active torsions:
REMARK  status: ('A' for Active; 'I' for Inactive)
REMARK    1  A    between atoms: S_1  and  C_24
REMARK    2  A    between atoms: S_1  and  C_25
REMARK    3  A    between atoms: O_3  and  C_14
REMARK    4  A    between atoms: N_6  and  C_18
REMARK    5  A    between atoms: C_9  and  C_16
REMARK    6  A    between atoms: C_10  and  C_17
REMARK    7  A    between atoms: C_18  and  C_19
REMARK                            x       y       z     vdW  Elec       q    Type
REMARK                         _______ _______ _______ _____ _____    ______ ____
ROOT
ATOM      6  N   UNL     1      13.294   7.997  20.693  0.00  0.00    -0.285 NA
ATOM     10  C   UNL     1      12.025   8.739  20.547  0.00  0.00    +0.149 C 
ATOM     13  C   UNL     1      10.937   7.753  21.013  0.00  0.00    +0.061 C 
ATOM     14  C   UNL     1      11.686   6.472  21.357  0.00  0.00    +0.130 C 
ATOM     15  C   UNL     1      12.964   6.580  20.547  0.00  0.00    +0.116 C 
ENDROOT
BRANCH  10  17
ATOM      2  O   UNL     1      12.152  11.179  20.609  0.00  0.00    -0.336 OA
ATOM      7  N   UNL     1      11.889  10.225  22.618  0.00  0.00    -0.194 NA
ATOM      8  N   UNL     1      12.112  12.228  21.536  0.00  0.00    -0.061 NA
ATOM     16  C   UNL     1      11.956  11.586  22.697  0.00  0.00    +0.175 A 
ATOM     17  C   UNL     1      12.015  10.035  21.329  0.00  0.00    +0.245 A 
BRANCH  16   9
ATOM      9  C   UNL     1      11.855  12.332  24.031  0.00  0.00    +0.060 C 
ATOM     11  C   UNL     1      11.082  11.702  25.151  0.00  0.00    +0.012 C 
ATOM     12  C   UNL     1      10.527  12.901  24.439  0.00  0.00    +0.012 C 
ENDBRANCH  16   9
ENDBRANCH  10  17
BRANCH  14   3
ATOM      3  O   UNL     1      10.929   5.334  20.992  0.00  0.00    -0.390 OA
ATOM     26  H   UNL     1       9.998   5.610  20.936  0.00  0.00    +0.210 HD
ENDBRANCH  14   3
BRANCH   6  18
ATOM     18  C   UNL     1      14.320   8.421  19.749  0.00  0.00    +0.120 C 
BRANCH  18  19
ATOM     19  C   UNL     1      15.698   8.022  20.204  0.00  0.00    -0.033 A 
ATOM     20  C   UNL     1      16.299   6.876  19.682  0.00  0.00    +0.007 A 
ATOM     21  C   UNL     1      16.374   8.796  21.146  0.00  0.00    +0.007 A 
ATOM     22  C   UNL     1      17.576   6.505  20.103  0.00  0.00    +0.027 A 
ATOM     23  C   UNL     1      17.651   8.426  21.568  0.00  0.00    +0.027 A 
ATOM     24  C   UNL     1      18.252   7.279  21.046  0.00  0.00    +0.088 A 
BRANCH  24   1
ATOM      1  S   UNL     1      19.852   6.817  21.571  0.00  0.00    -0.006 S 
ATOM      4  O   UNL     1      20.784   7.885  21.236  0.00  0.00    -0.170 OA
ATOM      5  O   UNL     1      19.755   6.347  22.945  0.00  0.00    -0.170 OA
ATOM     25  C   UNL     1      20.269   5.426  20.544  0.00  0.00    +0.200 C 
ENDBRANCH  24   1
ENDBRANCH  18  19
ENDBRANCH   6  18
TORSDOF 6
ENDMDL
MODEL 3
REMARK VINA RESULT:      -6.6      3.535      6.638
REMARK  Name = 26744288
REMARK  7 active torsions:
REMARK  status: ('A' for Active; 'I' for Inactive)
REMARK    1  A    between atoms: S_1  and  C_24
REMARK    2  A    between atoms: S_1  and  C_25
REMARK    3  A    between atoms: O_3  and  C_14
REMARK    4  A    between atoms: N_6  and  C_18
REMARK    5  A    between atoms: C_9  and  C_16
REMARK    6  A    between atoms: C_10  and  C_17
REMARK    7  A    between atoms: C_18  and  C_19
REMARK                            x       y       z     vdW  Elec       q    Type
REMARK                         _______ _______ _______ _____ _____    ______ ____
ROOT
ATOM      6  N   UNL     1      13.164   7.571  19.986  0.00  0.00    -0.285 NA
ATOM     10  C   UNL     1      12.322   8.353  19.058  0.00  0.00    +0.149 C 
ATOM     13  C   UNL     1      11.018   8.613  19.834  0.00  0.00    +0.061 C 
ATOM     14  C   UNL     1      11.204   7.901  21.168  0.00  0.00    +0.130 C 
ATOM     15  C   UNL     1      12.248   6.844  20.864  0.00  0.00    +0.116 C 
ENDROOT
BRANCH  10  17
ATOM      2  O   UNL     1      13.370  10.501  19.568  0.00  0.00    -0.336 OA
ATOM      7  N   UNL     1      13.276  10.025  17.382  0.00  0.00    -0.194 NA
ATOM      8  N   UNL     1      13.960  11.586  18.907  0.00  0.00    -0.061 NA
ATOM     16  C   UNL     1      13.867  11.232  17.623  0.00  0.00    +0.175 A 
ATOM     17  C   UNL     1      12.994   9.629  18.597  0.00  0.00    +0.245 A 
BRANCH  16   9
ATOM      9  C   UNL     1      14.393  12.124  16.494  0.00  0.00    +0.060 C 
ATOM     11  C   UNL     1      14.879  11.475  15.232  0.00  0.00    +0.012 C 
ATOM     12  C   UNL     1      15.860  12.097  16.180  0.00  0.00    +0.012 C 
ENDBRANCH  16   9
ENDBRANCH  10  17
BRANCH  14   3
ATOM      3  O   UNL     1       9.988   7.326  21.604  0.00  0.00    -0.390 OA
ATOM     26  H   UNL     1       9.811   7.661  22.500  0.00  0.00    +0.210 HD
ENDBRANCH  14   3
BRANCH   6  18
ATOM     18  C   UNL     1      14.095   6.679  19.306  0.00  0.00    +0.120 C 
BRANCH  18  19
ATOM     19  C   UNL     1      15.498   6.828  19.831  0.00  0.00    -0.033 A 
ATOM     20  C   UNL     1      15.751   7.670  20.914  0.00  0.00    +0.007 A 
ATOM     21  C   UNL     1      16.545   6.127  19.234  0.00  0.00    +0.007 A 
ATOM     22  C   UNL     1      17.050   7.809  21.401  0.00  0.00    +0.027 A 
ATOM     23  C   UNL     1      17.845   6.266  19.719  0.00  0.00    +0.027 A 
ATOM     24  C   UNL     1      18.098   7.107  20.803  0.00  0.00    +0.088 A 
BRANCH  24   1
ATOM      1  S   UNL     1      19.725   7.278  21.415  0.00  0.00    -0.006 S 
ATOM      4  O   UNL     1      19.788   6.705  22.751  0.00  0.00    -0.170 OA
ATOM      5  O   UNL     1      20.642   6.813  20.384  0.00  0.00    -0.170 OA
ATOM     25  C   UNL     1      19.947   9.034  21.593  0.00  0.00    +0.200 C 
ENDBRANCH  24   1
ENDBRANCH  18  19
ENDBRANCH   6  18
TORSDOF 6
ENDMDL
MODEL 4
REMARK VINA RESULT:      -6.6      2.004      4.252
REMARK  Name = 26744288
REMARK  7 active torsions:
REMARK  status: ('A' for Active; 'I' for Inactive)
REMARK    1  A    between atoms: S_1  and  C_24
REMARK    2  A    between atoms: S_1  and  C_25
REMARK    3  A    between atoms: O_3  and  C_14
REMARK    4  A    between atoms: N_6  and  C_18
REMARK    5  A    between atoms: C_9  and  C_16
REMARK    6  A    between atoms: C_10  and  C_17
REMARK    7  A    between atoms: C_18  and  C_19
REMARK                            x       y       z     vdW  Elec       q    Type
REMARK                         _______ _______ _______ _____ _____    ______ ____
ROOT
ATOM      6  N   UNL     1      12.725   7.751  19.177  0.00  0.00    -0.285 NA
ATOM     10  C   UNL     1      13.868   8.657  18.946  0.00  0.00    +0.149 C 
ATOM     13  C   UNL     1      15.092   7.893  19.486  0.00  0.00    +0.061 C 
ATOM     14  C   UNL     1      14.530   6.590  20.041  0.00  0.00    +0.130 C 
ATOM     15  C   UNL     1      13.079   6.923  20.330  0.00  0.00    +0.116 C 
ENDROOT
BRANCH  10  17
ATOM      2  O   UNL     1      13.592   8.138  16.573  0.00  0.00    -0.336 OA
ATOM      7  N   UNL     1      14.499  10.148  16.972  0.00  0.00    -0.194 NA
ATOM      8  N   UNL     1      13.827   8.716  15.319  0.00  0.00    -0.061 NA
ATOM     16  C   UNL     1      14.363   9.898  15.637  0.00  0.00    +0.175 A 
ATOM     17  C   UNL     1      14.017   9.047  17.491  0.00  0.00    +0.245 A 
BRANCH  16   9
ATOM      9  C   UNL     1      14.793  10.908  14.569  0.00  0.00    +0.060 C 
ATOM     11  C   UNL     1      15.245  12.270  15.007  0.00  0.00    +0.012 C 
ATOM     12  C   UNL     1      13.923  12.104  14.317  0.00  0.00    +0.012 C 
ENDBRANCH  16   9
ENDBRANCH  10  17
BRANCH  14   3
ATOM      3  O   UNL     1      15.222   6.203  21.212  0.00  0.00    -0.390 OA
ATOM     26  H   UNL     1      15.012   6.855  21.903  0.00  0.00    +0.210 HD
ENDBRANCH  14   3
BRANCH   6  18
ATOM     18  C   UNL     1      11.464   8.454  19.373  0.00  0.00    +0.120 C 
BRANCH  18  19
ATOM     19  C   UNL     1      11.481   9.295  20.621  0.00  0.00    -0.033 A 
ATOM     20  C   UNL     1      12.083  10.554  20.605  0.00  0.00    +0.007 A 
ATOM     21  C   UNL     1      10.896   8.817  21.793  0.00  0.00    +0.007 A 
ATOM     22  C   UNL     1      12.099  11.334  21.761  0.00  0.00    +0.027 A 
ATOM     23  C   UNL     1      10.912   9.596  22.950  0.00  0.00    +0.027 A 
ATOM     24  C   UNL     1      11.513  10.855  22.934  0.00  0.00    +0.088 A 
BRANCH  24   1
ATOM      1  S   UNL     1      11.530  11.833  24.381  0.00  0.00    -0.006 S 
ATOM      4  O   UNL     1      10.921  11.078  25.467  0.00  0.00    -0.170 OA
ATOM      5  O   UNL     1      12.872  12.374  24.540  0.00  0.00    -0.170 OA
ATOM     25  C   UNL     1      10.436  13.185  24.012  0.00  0.00    +0.200 C 
ENDBRANCH  24   1
ENDBRANCH  18  19
ENDBRANCH   6  18
TORSDOF 6
ENDMDL
MODEL 5
REMARK VINA RESULT:      -6.5      3.296      7.427
REMARK  Name = 26744288
REMARK  7 active torsions:
REMARK  status: ('A' for Active; 'I' for Inactive)
REMARK    1  A    between atoms: S_1  and  C_24
REMARK    2  A    between atoms: S_1  and  C_25
REMARK    3  A    between atoms: O_3  and  C_14
REMARK    4  A    between atoms: N_6  and  C_18
REMARK    5  A    between atoms: C_9  and  C_16
REMARK    6  A    between atoms: C_10  and  C_17
REMARK    7  A    between atoms: C_18  and  C_19
REMARK                            x       y       z     vdW  Elec       q    Type
REMARK                         _______ _______ _______ _____ _____    ______ ____
ROOT
ATOM      6  N   UNL     1      12.882   8.613  21.909  0.00  0.00    -0.285 NA
ATOM     10  C   UNL     1      11.662   9.305  21.448  0.00  0.00    +0.149 C 
ATOM     13  C   UNL     1      10.567   8.221  21.456  0.00  0.00    +0.061 C 
ATOM     14  C   UNL     1      11.278   6.946  21.892  0.00  0.00    +0.130 C 
ATOM     15  C   UNL     1      12.729   7.208  21.533  0.00  0.00    +0.116 C 
ENDROOT
BRANCH  10  17
ATOM      2  O   UNL     1      10.875  10.232  23.568  0.00  0.00    -0.336 OA
ATOM      7  N   UNL     1      11.364  11.775  22.019  0.00  0.00    -0.194 NA
ATOM      8  N   UNL     1      10.617  11.475  24.160  0.00  0.00    -0.061 NA
ATOM     16  C   UNL     1      10.929  12.333  23.186  0.00  0.00    +0.175 A 
ATOM     17  C   UNL     1      11.310  10.499  22.308  0.00  0.00    +0.245 A 
BRANCH  16   9
ATOM      9  C   UNL     1      10.807  13.849  23.370  0.00  0.00    +0.060 C 
ATOM     11  C   UNL     1      10.153  14.373  24.615  0.00  0.00    +0.012 C 
ATOM     12  C   UNL     1       9.445  14.476  23.296  0.00  0.00    +0.012 C 
ENDBRANCH  16   9
ENDBRANCH  10  17
BRANCH  14   3
ATOM      3  O   UNL     1      10.763   5.823  21.203  0.00  0.00    -0.390 OA
ATOM     26  H   UNL     1      11.520   5.282  20.919  0.00  0.00    +0.210 HD
ENDBRANCH  14   3
BRANCH   6  18
ATOM     18  C   UNL     1      14.108   9.192  21.376  0.00  0.00    +0.120 C 
BRANCH  18  19
ATOM     19  C   UNL     1      14.039   9.373  19.883  0.00  0.00    -0.033 A 
ATOM     20  C   UNL     1      13.643  10.599  19.347  0.00  0.00    +0.007 A 
ATOM     21  C   UNL     1      14.368   8.316  19.035  0.00  0.00    +0.007 A 
ATOM     22  C   UNL     1      13.578  10.767  17.964  0.00  0.00    +0.027 A 
ATOM     23  C   UNL     1      14.303   8.484  17.652  0.00  0.00    +0.027 A 
ATOM     24  C   UNL     1      13.908   9.710  17.116  0.00  0.00    +0.088 A 
BRANCH  24   1
ATOM      1  S   UNL     1      13.830   9.922  15.385  0.00  0.00    -0.006 S 
ATOM      4  O   UNL     1      14.738   8.975  14.753  0.00  0.00    -0.170 OA
ATOM      5  O   UNL     1      12.426   9.945  14.999  0.00  0.00    -0.170 OA
ATOM     25  C   UNL     1      14.499  11.546  15.108  0.00  0.00    +0.200 C 
ENDBRANCH  24   1
ENDBRANCH  18  19
ENDBRANCH   6  18
TORSDOF 6
ENDMDL
MODEL 6
REMARK VINA RESULT:      -6.2      3.288      5.659
REMARK  Name = 26744288
REMARK  7 active torsions:
REMARK  status: ('A' for Active; 'I' for Inactive)
REMARK    1  A    between atoms: S_1  and  C_24
REMARK    2  A    between atoms: S_1  and  C_25
REMARK    3  A    between atoms: O_3  and  C_14
REMARK    4  A    between atoms: N_6  and  C_18
REMARK    5  A    between atoms: C_9  and  C_16
REMARK    6  A    between atoms: C_10  and  C_17
REMARK    7  A    between atoms: C_18  and  C_19
REMARK                            x       y       z     vdW  Elec       q    Type
REMARK                         _______ _______ _______ _____ _____    ______ ____
ROOT
ATOM      6  N   UNL     1      12.671   8.935  20.475  0.00  0.00    -0.285 NA
ATOM     10  C   UNL     1      13.320   8.046  21.458  0.00  0.00    +0.149 C 
ATOM     13  C   UNL     1      12.232   7.028  21.848  0.00  0.00    +0.061 C 
ATOM     14  C   UNL     1      10.995   7.455  21.068  0.00  0.00    +0.130 C 
ATOM     15  C   UNL     1      11.242   8.925  20.787  0.00  0.00    +0.116 C 
ENDROOT
BRANCH  10  17
ATOM      2  O   UNL     1      14.434   6.707  19.742  0.00  0.00    -0.336 OA
ATOM      7  N   UNL     1      15.783   7.373  21.402  0.00  0.00    -0.194 NA
ATOM      8  N   UNL     1      15.703   6.196  19.442  0.00  0.00    -0.061 NA
ATOM     16  C   UNL     1      16.442   6.630  20.466  0.00  0.00    +0.175 A 
ATOM     17  C   UNL     1      14.569   7.386  20.912  0.00  0.00    +0.245 A 
BRANCH  16   9
ATOM      9  C   UNL     1      17.937   6.315  20.580  0.00  0.00    +0.060 C 
ATOM     11  C   UNL     1      18.643   6.630  21.865  0.00  0.00    +0.012 C 
ATOM     12  C   UNL     1      18.911   7.455  20.640  0.00  0.00    +0.012 C 
ENDBRANCH  16   9
ENDBRANCH  10  17
BRANCH  14   3
ATOM      3  O   UNL     1       9.824   7.258  21.836  0.00  0.00    -0.390 OA
ATOM     26  H   UNL     1      10.103   7.064  22.748  0.00  0.00    +0.210 HD
ENDBRANCH  14   3
BRANCH   6  18
ATOM     18  C   UNL     1      13.221  10.284  20.468  0.00  0.00    +0.120 C 
BRANCH  18  19
ATOM     19  C   UNL     1      13.593  10.730  19.079  0.00  0.00    -0.033 A 
ATOM     20  C   UNL     1      13.651  12.091  18.776  0.00  0.00    +0.007 A 
ATOM     21  C   UNL     1      13.880   9.784  18.095  0.00  0.00    +0.007 A 
ATOM     22  C   UNL     1      13.995  12.505  17.490  0.00  0.00    +0.027 A 
ATOM     23  C   UNL     1      14.224  10.197  16.809  0.00  0.00    +0.027 A 
ATOM     24  C   UNL     1      14.282  11.558  16.505  0.00  0.00    +0.088 A 
BRANCH  24   1
ATOM      1  S   UNL     1      14.717  12.076  14.896  0.00  0.00    -0.006 S 
ATOM      4  O   UNL     1      13.715  11.590  13.957  0.00  0.00    -0.170 OA
ATOM      5  O   UNL     1      15.027  13.497  14.951  0.00  0.00    -0.170 OA
ATOM     25  C   UNL     1      16.225  11.201  14.543  0.00  0.00    +0.200 C 
ENDBRANCH  24   1
ENDBRANCH  18  19
ENDBRANCH   6  18
TORSDOF 6
ENDMDL
MODEL 7
REMARK VINA RESULT:      -6.2      2.796      6.120
REMARK  Name = 26744288
REMARK  7 active torsions:
REMARK  status: ('A' for Active; 'I' for Inactive)
REMARK    1  A    between atoms: S_1  and  C_24
REMARK    2  A    between atoms: S_1  and  C_25
REMARK    3  A    between atoms: O_3  and  C_14
REMARK    4  A    between atoms: N_6  and  C_18
REMARK    5  A    between atoms: C_9  and  C_16
REMARK    6  A    between atoms: C_10  and  C_17
REMARK    7  A    between atoms: C_18  and  C_19
REMARK                            x       y       z     vdW  Elec       q    Type
REMARK                         _______ _______ _______ _____ _____    ______ ____
ROOT
ATOM      6  N   UNL     1      12.957  11.642  23.066  0.00  0.00    -0.285 NA
ATOM     10  C   UNL     1      14.422  11.622  23.250  0.00  0.00    +0.149 C 
ATOM     13  C   UNL     1      14.629  11.666  24.775  0.00  0.00    +0.061 C 
ATOM     14  C   UNL     1      13.225  11.756  25.361  0.00  0.00    +0.130 C 
ATOM     15  C   UNL     1      12.404  12.340  24.227  0.00  0.00    +0.116 C 
ENDROOT
BRANCH  10  17
ATOM      2  O   UNL     1      16.260  10.630  21.980  0.00  0.00    -0.336 OA
ATOM      7  N   UNL     1      14.659   9.175  22.561  0.00  0.00    -0.194 NA
ATOM      8  N   UNL     1      16.659   9.387  21.471  0.00  0.00    -0.061 NA
ATOM     16  C   UNL     1      15.665   8.581  21.854  0.00  0.00    +0.175 A 
ATOM     17  C   UNL     1      15.073  10.416  22.605  0.00  0.00    +0.245 A 
BRANCH  16   9
ATOM      9  C   UNL     1      15.657   7.086  21.522  0.00  0.00    +0.060 C 
ATOM     11  C   UNL     1      16.610   6.575  20.481  0.00  0.00    +0.012 C 
ATOM     12  C   UNL     1      15.141   6.649  20.182  0.00  0.00    +0.012 C 
ENDBRANCH  16   9
ENDBRANCH  10  17
BRANCH  14   3
ATOM      3  O   UNL     1      13.210  12.591  26.502  0.00  0.00    -0.390 OA
ATOM     26  H   UNL     1      13.122  12.016  27.283  0.00  0.00    +0.210 HD
ENDBRANCH  14   3
BRANCH   6  18
ATOM     18  C   UNL     1      12.543  12.255  21.811  0.00  0.00    +0.120 C 
BRANCH  18  19
ATOM     19  C   UNL     1      12.521  11.259  20.682  0.00  0.00    -0.033 A 
ATOM     20  C   UNL     1      11.770  10.089  20.800  0.00  0.00    +0.007 A 
ATOM     21  C   UNL     1      13.250  11.504  19.519  0.00  0.00    +0.007 A 
ATOM     22  C   UNL     1      11.749   9.165  19.756  0.00  0.00    +0.027 A 
ATOM     23  C   UNL     1      13.230  10.581  18.474  0.00  0.00    +0.027 A 
ATOM     24  C   UNL     1      12.480   9.411  18.592  0.00  0.00    +0.088 A 
BRANCH  24   1
ATOM      1  S   UNL     1      12.451   8.256  17.283  0.00  0.00    -0.006 S 
ATOM      4  O   UNL     1      11.962   6.982  17.789  0.00  0.00    -0.170 OA
ATOM      5  O   UNL     1      11.791   8.884  16.147  0.00  0.00    -0.170 OA
ATOM     25  C   UNL     1      14.163   8.024  16.861  0.00  0.00    +0.200 C 
ENDBRANCH  24   1
ENDBRANCH  18  19
ENDBRANCH   6  18
TORSDOF 6
ENDMDL
MODEL 8
REMARK VINA RESULT:      -6.1     14.107     17.425
REMARK  Name = 26744288
REMARK  7 active torsions:
REMARK  status: ('A' for Active; 'I' for Inactive)
REMARK    1  A    between atoms: S_1  and  C_24
REMARK    2  A    between atoms: S_1  and  C_25
REMARK    3  A    between atoms: O_3  and  C_14
REMARK    4  A    between atoms: N_6  and  C_18
REMARK    5  A    between atoms: C_9  and  C_16
REMARK    6  A    between atoms: C_10  and  C_17
REMARK    7  A    between atoms: C_18  and  C_19
REMARK                            x       y       z     vdW  Elec       q    Type
REMARK                         _______ _______ _______ _____ _____    ______ ____
ROOT
ATOM      6  N   UNL     1      10.450   5.461   6.179  0.00  0.00    -0.285 NA
ATOM     10  C   UNL     1      10.586   6.645   7.051  0.00  0.00    +0.149 C 
ATOM     13  C   UNL     1      10.358   6.112   8.478  0.00  0.00    +0.061 C 
ATOM     14  C   UNL     1      10.055   4.629   8.302  0.00  0.00    +0.130 C 
ATOM     15  C   UNL     1       9.553   4.537   6.873  0.00  0.00    +0.116 C 
ENDROOT
BRANCH  10  17
ATOM      2  O   UNL     1      11.926   8.689   7.005  0.00  0.00    -0.336 OA
ATOM      7  N   UNL     1      13.103   6.815   6.656  0.00  0.00    -0.194 NA
ATOM      8  N   UNL     1      13.256   9.091   6.823  0.00  0.00    -0.061 NA
ATOM     16  C   UNL     1      13.887   7.931   6.623  0.00  0.00    +0.175 A 
ATOM     17  C   UNL     1      11.925   7.334   6.890  0.00  0.00    +0.245 A 
BRANCH  16   9
ATOM      9  C   UNL     1      15.397   7.861   6.374  0.00  0.00    +0.060 C 
ATOM     11  C   UNL     1      16.101   9.087   5.872  0.00  0.00    +0.012 C 
ATOM     12  C   UNL     1      15.897   7.914   4.959  0.00  0.00    +0.012 C 
ENDBRANCH  16   9
ENDBRANCH  10  17
BRANCH  14   3
ATOM      3  O   UNL     1       9.077   4.203   9.230  0.00  0.00    -0.390 OA
ATOM     26  H   UNL     1       9.470   4.267  10.118  0.00  0.00    +0.210 HD
ENDBRANCH  14   3
BRANCH   6  18
ATOM     18  C   UNL     1       9.974   5.784   4.840  0.00  0.00    +0.120 C 
BRANCH  18  19
ATOM     19  C   UNL     1      10.966   5.381   3.782  0.00  0.00    -0.033 A 
ATOM     20  C   UNL     1      11.941   6.285   3.360  0.00  0.00    +0.007 A 
ATOM     21  C   UNL     1      10.910   4.105   3.221  0.00  0.00    +0.007 A 
ATOM     22  C   UNL     1      12.860   5.913   2.379  0.00  0.00    +0.027 A 
ATOM     23  C   UNL     1      11.828   3.732   2.240  0.00  0.00    +0.027 A 
ATOM     24  C   UNL     1      12.803   4.636   1.819  0.00  0.00    +0.088 A 
BRANCH  24   1
ATOM      1  S   UNL     1      13.956   4.169   0.593  0.00  0.00    -0.006 S 
ATOM      4  O   UNL     1      14.426   5.364  -0.092  0.00  0.00    -0.170 OA
ATOM      5  O   UNL     1      14.916   3.260   1.204  0.00  0.00    -0.170 OA
ATOM     25  C   UNL     1      12.998   3.241  -0.583  0.00  0.00    +0.200 C 
ENDBRANCH  24   1
ENDBRANCH  18  19
ENDBRANCH   6  18
TORSDOF 6
ENDMDL
MODEL 9
REMARK VINA RESULT:      -6.1      1.968      4.733
REMARK  Name = 26744288
REMARK  7 active torsions:
REMARK  status: ('A' for Active; 'I' for Inactive)
REMARK    1  A    between atoms: S_1  and  C_24
REMARK    2  A    between atoms: S_1  and  C_25
REMARK    3  A    between atoms: O_3  and  C_14
REMARK    4  A    between atoms: N_6  and  C_18
REMARK    5  A    between atoms: C_9  and  C_16
REMARK    6  A    between atoms: C_10  and  C_17
REMARK    7  A    between atoms: C_18  and  C_19
REMARK                            x       y       z     vdW  Elec       q    Type
REMARK                         _______ _______ _______ _____ _____    ______ ____
ROOT
ATOM      6  N   UNL     1      16.181   8.597  20.625  0.00  0.00    -0.285 NA
ATOM     10  C   UNL     1      15.603   7.879  19.472  0.00  0.00    +0.149 C 
ATOM     13  C   UNL     1      16.270   6.491  19.497  0.00  0.00    +0.061 C 
ATOM     14  C   UNL     1      17.240   6.541  20.672  0.00  0.00    +0.130 C 
ATOM     15  C   UNL     1      17.508   8.024  20.848  0.00  0.00    +0.116 C 
ENDROOT
BRANCH  10  17
ATOM      2  O   UNL     1      13.465   7.325  18.425  0.00  0.00    -0.336 OA
ATOM      7  N   UNL     1      13.282   8.132  20.506  0.00  0.00    -0.194 NA
ATOM      8  N   UNL     1      12.095   7.348  18.715  0.00  0.00    -0.061 NA
ATOM     16  C   UNL     1      12.068   7.836  19.958  0.00  0.00    +0.175 A 
ATOM     17  C   UNL     1      14.092   7.803  19.532  0.00  0.00    +0.245 A 
BRANCH  16   9
ATOM      9  C   UNL     1      10.755   8.047  20.720  0.00  0.00    +0.060 C 
ATOM     11  C   UNL     1      10.809   8.648  22.093  0.00  0.00    +0.012 C 
ATOM     12  C   UNL     1      10.476   7.195  21.922  0.00  0.00    +0.012 C 
ENDBRANCH  16   9
ENDBRANCH  10  17
BRANCH  14   3
ATOM      3  O   UNL     1      18.423   5.826  20.376  0.00  0.00    -0.390 OA
ATOM     26  H   UNL     1      18.973   5.828  21.178  0.00  0.00    +0.210 HD
ENDBRANCH  14   3
BRANCH   6  18
ATOM     18  C   UNL     1      16.233  10.041  20.436  0.00  0.00    +0.120 C 
BRANCH  18  19
ATOM     19  C   UNL     1      15.094  10.738  21.132  0.00  0.00    -0.033 A 
ATOM     20  C   UNL     1      14.944  10.619  22.514  0.00  0.00    +0.007 A 
ATOM     21  C   UNL     1      14.189  11.502  20.396  0.00  0.00    +0.007 A 
ATOM     22  C   UNL     1      13.889  11.263  23.159  0.00  0.00    +0.027 A 
ATOM     23  C   UNL     1      13.134  12.147  21.041  0.00  0.00    +0.027 A 
ATOM     24  C   UNL     1      12.984  12.028  22.423  0.00  0.00    +0.088 A 
BRANCH  24   1
ATOM      1  S   UNL     1      11.665  12.838  23.231  0.00  0.00    -0.006 S 
ATOM      4  O   UNL     1      12.206  13.906  24.060  0.00  0.00    -0.170 OA
ATOM      5  O   UNL     1      10.647  13.141  22.235  0.00  0.00    -0.170 OA
ATOM     25  C   UNL     1      11.002  11.611  24.334  0.00  0.00    +0.200 C 
ENDBRANCH  24   1
ENDBRANCH  18  19
ENDBRANCH   6  18
TORSDOF 6
ENDMDL
MODEL 10
REMARK VINA RESULT:      -5.9     13.357     17.476
REMARK  Name = 26744288
REMARK  7 active torsions:
REMARK  status: ('A' for Active; 'I' for Inactive)
REMARK    1  A    between atoms: S_1  and  C_24
REMARK    2  A    between atoms: S_1  and  C_25
REMARK    3  A    between atoms: O_3  and  C_14
REMARK    4  A    between atoms: N_6  and  C_18
REMARK    5  A    between atoms: C_9  and  C_16
REMARK    6  A    between atoms: C_10  and  C_17
REMARK    7  A    between atoms: C_18  and  C_19
REMARK                            x       y       z     vdW  Elec       q    Type
REMARK                         _______ _______ _______ _____ _____    ______ ____
ROOT
ATOM      6  N   UNL     1       9.916   6.175   6.114  0.00  0.00    -0.285 NA
ATOM     10  C   UNL     1       8.925   6.806   7.009  0.00  0.00    +0.149 C 
ATOM     13  C   UNL     1       9.106   6.093   8.362  0.00  0.00    +0.061 C 
ATOM     14  C   UNL     1      10.187   5.048   8.116  0.00  0.00    +0.130 C 
ATOM     15  C   UNL     1      10.124   4.818   6.618  0.00  0.00    +0.116 C 
ENDROOT
BRANCH  10  17
ATOM      2  O   UNL     1       8.723   9.036   6.028  0.00  0.00    -0.336 OA
ATOM      7  N   UNL     1       9.573   9.021   8.100  0.00  0.00    -0.194 NA
ATOM      8  N   UNL     1       8.978  10.374   6.354  0.00  0.00    -0.061 NA
ATOM     16  C   UNL     1       9.478  10.284   7.589  0.00  0.00    +0.175 A 
ATOM     17  C   UNL     1       9.103   8.307   7.110  0.00  0.00    +0.245 A 
BRANCH  16   9
ATOM      9  C   UNL     1       9.913  11.520   8.382  0.00  0.00    +0.060 C 
ATOM     11  C   UNL     1      10.137  11.386   9.859  0.00  0.00    +0.012 C 
ATOM     12  C   UNL     1       8.942  12.135   9.347  0.00  0.00    +0.012 C 
ENDBRANCH  16   9
ENDBRANCH  10  17
BRANCH  14   3
ATOM      3  O   UNL     1       9.915   3.864   8.840  0.00  0.00    -0.390 OA
ATOM     26  H   UNL     1      10.523   3.841   9.600  0.00  0.00    +0.210 HD
ENDBRANCH  14   3
BRANCH   6  18
ATOM     18  C   UNL     1       9.514   6.184   4.714  0.00  0.00    +0.120 C 
BRANCH  18  19
ATOM     19  C   UNL     1      10.608   5.677   3.814  0.00  0.00    -0.033 A 
ATOM     20  C   UNL     1      11.713   6.483   3.537  0.00  0.00    +0.007 A 
ATOM     21  C   UNL     1      10.519   4.402   3.256  0.00  0.00    +0.007 A 
ATOM     22  C   UNL     1      12.727   6.014   2.702  0.00  0.00    +0.027 A 
ATOM     23  C   UNL     1      11.533   3.932   2.422  0.00  0.00    +0.027 A 
ATOM     24  C   UNL     1      12.637   4.738   2.145  0.00  0.00    +0.088 A 
BRANCH  24   1
ATOM      1  S   UNL     1      13.909   4.149   1.103  0.00  0.00    -0.006 S 
ATOM      4  O   UNL     1      14.626   5.287   0.545  0.00  0.00    -0.170 OA
ATOM      5  O   UNL     1      14.640   3.119   1.828  0.00  0.00    -0.170 OA
ATOM     25  C   UNL     1      13.051   3.366  -0.243  0.00  0.00    +0.200 C 
ENDBRANCH  24   1
ENDBRANCH  18  19
ENDBRANCH   6  18
TORSDOF 6
ENDMDL
