MODEL 1
REMARK VINA RESULT:      -6.9      0.000      0.000
REMARK  Name = 38028609
REMARK  13 active torsions:
REMARK  status: ('A' for Active; 'I' for Inactive)
REMARK    1  A    between atoms: S_1  and  N_5
REMARK    2  A    between atoms: S_1  and  C_20
REMARK    3  A    between atoms: N_5  and  C_14
REMARK    4  A    between atoms: N_6  and  C_21
REMARK    5  A    between atoms: C_7  and  C_11
REMARK    6  A    between atoms: C_8  and  C_14
REMARK    7  A    between atoms: C_10  and  C_15
REMARK    8  A    between atoms: C_11  and  C_16
REMARK    9  A    between atoms: C_11  and  C_17
REMARK   10  A    between atoms: C_12  and  C_18
REMARK   11  A    between atoms: C_15  and  C_19
REMARK   12  A    between atoms: C_21  and  C_27
REMARK   13  A    between atoms: C_26  and  C_28
REMARK                            x       y       z     vdW  Elec       q    Type
REMARK                         _______ _______ _______ _____ _____    ______ ____
ROOT
ATOM      7  C   UNL     1      14.499   8.195  20.208  0.00  0.00    +0.000 C 
ATOM      8  C   UNL     1      13.779   6.962  19.606  0.00  0.00    +0.030 C 
ATOM      9  C   UNL     1      14.242   8.281  21.721  0.00  0.00    +0.012 C 
ATOM     10  C   UNL     1      12.741   8.382  22.051  0.00  0.00    +0.023 C 
ATOM     12  C   UNL     1      11.924   7.363  21.283  0.00  0.00    -0.073 C 
ATOM     13  C   UNL     1      12.410   6.729  20.200  0.00  0.00    -0.023 C 
ATOM     18  C   UNL     1      10.552   7.054  21.813  0.00  0.00    +0.039 C 
ENDROOT
BRANCH   7  11
ATOM     11  C   UNL     1      16.006   8.160  19.940  0.00  0.00    -0.013 C 
ATOM     16  C   UNL     1      16.704   9.301  20.675  0.00  0.00    +0.007 C 
ATOM     17  C   UNL     1      16.590   6.814  20.353  0.00  0.00    +0.007 C 
ENDBRANCH   7  11
BRANCH   8  14
ATOM     14  C   UNL     1      13.661   7.080  18.082  0.00  0.00    +0.113 C 
BRANCH  14   5
ATOM      5  N   UNL     1      12.240   7.034  17.706  0.00  0.00    -0.189 NA
ATOM     30  H   UNL     1      11.888   6.147  17.326  0.00  0.00    +0.148 HD
BRANCH   5   1
ATOM      1  S   UNL     1      11.425   8.463  17.259  0.00  0.00    +0.058 S 
ATOM      3  O   UNL     1      10.475   8.817  18.297  0.00  0.00    -0.153 OA
ATOM      4  O   UNL     1      10.990   8.350  15.880  0.00  0.00    -0.153 OA
BRANCH   1  20
ATOM     20  C   UNL     1      12.735   9.649  17.292  0.00  0.00    +0.105 A 
ATOM     22  C   UNL     1      13.609   9.752  16.209  0.00  0.00    +0.029 A 
ATOM     23  C   UNL     1      12.896  10.482  18.399  0.00  0.00    +0.029 A 
ATOM     24  C   UNL     1      14.643  10.688  16.234  0.00  0.00    +0.005 A 
ATOM     25  C   UNL     1      13.929  11.417  18.425  0.00  0.00    +0.005 A 
ATOM     26  C   UNL     1      14.804  11.520  17.343  0.00  0.00    -0.050 A 
ATOM     28  C   UNL     1      15.910  12.521  17.369  0.00  0.00    +0.044 C 
ENDBRANCH   1  20
ENDBRANCH   5   1
ENDBRANCH  14   5
ENDBRANCH   8  14
BRANCH  10  15
ATOM     15  C   UNL     1      12.216   9.802  21.807  0.00  0.00    +0.103 C 
BRANCH  15  19
ATOM      2  O   UNL     1      10.301  10.192  23.234  0.00  0.00    -0.276 OA
ATOM      6  N   UNL     1      12.369  11.070  23.827  0.00  0.00    -0.304 N 
ATOM     19  C   UNL     1      11.498  10.358  23.016  0.00  0.00    +0.214 C 
ATOM     31  H   UNL     1      13.345  11.161  23.563  0.00  0.00    +0.150 HD
BRANCH   6  21
ATOM     21  C   UNL     1      11.957  11.715  25.053  0.00  0.00    +0.193 C 
BRANCH  21  27
ATOM     27  C   UNL     1      11.066  12.843  24.781  0.00  0.00    -0.087 C 
ATOM     29  C   UNL     1      10.333  13.768  24.561  0.00  0.00    +0.005 C 
ENDBRANCH  21  27
ENDBRANCH   6  21
ENDBRANCH  15  19
ENDBRANCH  10  15
TORSDOF 9
ENDMDL
MODEL 2
REMARK VINA RESULT:      -6.6      3.313      6.034
REMARK  Name = 38028609
REMARK  13 active torsions:
REMARK  status: ('A' for Active; 'I' for Inactive)
REMARK    1  A    between atoms: S_1  and  N_5
REMARK    2  A    between atoms: S_1  and  C_20
REMARK    3  A    between atoms: N_5  and  C_14
REMARK    4  A    between atoms: N_6  and  C_21
REMARK    5  A    between atoms: C_7  and  C_11
REMARK    6  A    between atoms: C_8  and  C_14
REMARK    7  A    between atoms: C_10  and  C_15
REMARK    8  A    between atoms: C_11  and  C_16
REMARK    9  A    between atoms: C_11  and  C_17
REMARK   10  A    between atoms: C_12  and  C_18
REMARK   11  A    between atoms: C_15  and  C_19
REMARK   12  A    between atoms: C_21  and  C_27
REMARK   13  A    between atoms: C_26  and  C_28
REMARK                            x       y       z     vdW  Elec       q    Type
REMARK                         _______ _______ _______ _____ _____    ______ ____
ROOT
ATOM      7  C   UNL     1      17.013   7.634  20.706  0.00  0.00    +0.000 C 
ATOM      8  C   UNL     1      15.683   7.332  21.439  0.00  0.00    +0.030 C 
ATOM      9  C   UNL     1      17.850   8.644  21.506  0.00  0.00    +0.012 C 
ATOM     10  C   UNL     1      17.102   9.972  21.730  0.00  0.00    +0.023 C 
ATOM     12  C   UNL     1      15.681   9.747  22.202  0.00  0.00    -0.073 C 
ATOM     13  C   UNL     1      15.067   8.557  22.075  0.00  0.00    -0.023 C 
ATOM     18  C   UNL     1      14.994  10.909  22.864  0.00  0.00    +0.039 C 
ENDROOT
BRANCH   7  11
ATOM     11  C   UNL     1      17.830   6.362  20.462  0.00  0.00    -0.013 C 
ATOM     16  C   UNL     1      17.623   5.861  19.036  0.00  0.00    +0.007 C 
ATOM     17  C   UNL     1      19.309   6.618  20.735  0.00  0.00    +0.007 C 
ENDBRANCH   7  11
BRANCH   8  14
ATOM     14  C   UNL     1      14.666   6.682  20.495  0.00  0.00    +0.113 C 
BRANCH  14   5
ATOM      5  N   UNL     1      13.449   6.351  21.252  0.00  0.00    -0.189 NA
ATOM     30  H   UNL     1      13.514   5.569  21.916  0.00  0.00    +0.148 HD
BRANCH   5   1
ATOM      1  S   UNL     1      11.914   6.720  20.613  0.00  0.00    +0.058 S 
ATOM      3  O   UNL     1      10.913   5.897  21.265  0.00  0.00    -0.153 OA
ATOM      4  O   UNL     1      11.998   6.757  19.166  0.00  0.00    -0.153 OA
BRANCH   1  20
ATOM     20  C   UNL     1      11.688   8.386  21.160  0.00  0.00    +0.105 A 
ATOM     22  C   UNL     1      12.096   9.446  20.349  0.00  0.00    +0.029 A 
ATOM     23  C   UNL     1      11.104   8.642  22.400  0.00  0.00    +0.029 A 
ATOM     24  C   UNL     1      11.918  10.761  20.779  0.00  0.00    +0.005 A 
ATOM     25  C   UNL     1      10.927   9.956  22.830  0.00  0.00    +0.005 A 
ATOM     26  C   UNL     1      11.335  11.016  22.021  0.00  0.00    -0.050 A 
ATOM     28  C   UNL     1      11.145  12.423  22.480  0.00  0.00    +0.044 C 
ENDBRANCH   1  20
ENDBRANCH   5   1
ENDBRANCH  14   5
ENDBRANCH   8  14
BRANCH  10  15
ATOM     15  C   UNL     1      17.130  10.841  20.466  0.00  0.00    +0.103 C 
BRANCH  15  19
ATOM      2  O   UNL     1      18.705  12.362  21.496  0.00  0.00    -0.276 OA
ATOM      6  N   UNL     1      18.770  12.029  19.197  0.00  0.00    -0.304 N 
ATOM     19  C   UNL     1      18.279  11.824  20.478  0.00  0.00    +0.214 C 
ATOM     31  H   UNL     1      18.348  11.545  18.410  0.00  0.00    +0.150 HD
BRANCH   6  21
ATOM     21  C   UNL     1      19.868  12.922  18.907  0.00  0.00    +0.193 C 
BRANCH  21  27
ATOM     27  C   UNL     1      20.296  12.799  17.514  0.00  0.00    -0.087 C 
ATOM     29  C   UNL     1      20.650  12.697  16.371  0.00  0.00    +0.005 C 
ENDBRANCH  21  27
ENDBRANCH   6  21
ENDBRANCH  15  19
ENDBRANCH  10  15
TORSDOF 9
ENDMDL
MODEL 3
REMARK VINA RESULT:      -6.2     26.849     28.300
REMARK  Name = 38028609
REMARK  13 active torsions:
REMARK  status: ('A' for Active; 'I' for Inactive)
REMARK    1  A    between atoms: S_1  and  N_5
REMARK    2  A    between atoms: S_1  and  C_20
REMARK    3  A    between atoms: N_5  and  C_14
REMARK    4  A    between atoms: N_6  and  C_21
REMARK    5  A    between atoms: C_7  and  C_11
REMARK    6  A    between atoms: C_8  and  C_14
REMARK    7  A    between atoms: C_10  and  C_15
REMARK    8  A    between atoms: C_11  and  C_16
REMARK    9  A    between atoms: C_11  and  C_17
REMARK   10  A    between atoms: C_12  and  C_18
REMARK   11  A    between atoms: C_15  and  C_19
REMARK   12  A    between atoms: C_21  and  C_27
REMARK   13  A    between atoms: C_26  and  C_28
REMARK                            x       y       z     vdW  Elec       q    Type
REMARK                         _______ _______ _______ _____ _____    ______ ____
ROOT
ATOM      7  C   UNL     1      -5.975 -11.225  14.713  0.00  0.00    +0.000 C 
ATOM      8  C   UNL     1      -4.634 -11.646  15.363  0.00  0.00    +0.030 C 
ATOM      9  C   UNL     1      -6.527  -9.961  15.390  0.00  0.00    +0.012 C 
ATOM     10  C   UNL     1      -6.758 -10.163  16.899  0.00  0.00    +0.023 C 
ATOM     12  C   UNL     1      -5.571 -10.825  17.568  0.00  0.00    -0.073 C 
ATOM     13  C   UNL     1      -4.625 -11.472  16.865  0.00  0.00    -0.023 C 
ATOM     18  C   UNL     1      -5.471 -10.688  19.062  0.00  0.00    +0.039 C 
ENDROOT
BRANCH   7  11
ATOM     11  C   UNL     1      -5.826 -10.985  13.208  0.00  0.00    -0.013 C 
ATOM     16  C   UNL     1      -6.764 -11.901  12.427  0.00  0.00    +0.007 C 
ATOM     17  C   UNL     1      -6.098  -9.522  12.873  0.00  0.00    +0.007 C 
ENDBRANCH   7  11
BRANCH   8  14
ATOM     14  C   UNL     1      -4.281 -13.097  15.016  0.00  0.00    +0.113 C 
BRANCH  14   5
ATOM      5  N   UNL     1      -2.821 -13.218  14.885  0.00  0.00    -0.189 NA
ATOM     30  H   UNL     1      -2.249 -12.613  15.487  0.00  0.00    +0.148 HD
BRANCH   5   1
ATOM      1  S   UNL     1      -2.132 -13.755  13.422  0.00  0.00    +0.058 S 
ATOM      3  O   UNL     1      -2.825 -14.950  12.977  0.00  0.00    -0.153 OA
ATOM      4  O   UNL     1      -0.687 -13.753  13.548  0.00  0.00    -0.153 OA
BRANCH   1  20
ATOM     20  C   UNL     1      -2.556 -12.438  12.321  0.00  0.00    +0.105 A 
ATOM     22  C   UNL     1      -2.111 -11.142  12.582  0.00  0.00    +0.029 A 
ATOM     23  C   UNL     1      -3.334 -12.695  11.192  0.00  0.00    +0.029 A 
ATOM     24  C   UNL     1      -2.445 -10.102  11.714  0.00  0.00    +0.005 A 
ATOM     25  C   UNL     1      -3.668 -11.656  10.325  0.00  0.00    +0.005 A 
ATOM     26  C   UNL     1      -3.225 -10.359  10.586  0.00  0.00    -0.050 A 
ATOM     28  C   UNL     1      -3.581  -9.247   9.657  0.00  0.00    +0.044 C 
ENDBRANCH   1  20
ENDBRANCH   5   1
ENDBRANCH  14   5
ENDBRANCH   8  14
BRANCH  10  15
ATOM     15  C   UNL     1      -8.046 -10.953  17.160  0.00  0.00    +0.103 C 
BRANCH  15  19
ATOM      2  O   UNL     1      -9.569 -10.389  18.953  0.00  0.00    -0.276 OA
ATOM      6  N   UNL     1      -9.442  -9.015  17.083  0.00  0.00    -0.304 N 
ATOM     19  C   UNL     1      -9.096 -10.115  17.854  0.00  0.00    +0.214 C 
ATOM     31  H   UNL     1      -9.002  -8.872  16.180  0.00  0.00    +0.150 HD
BRANCH   6  21
ATOM     21  C   UNL     1     -10.426  -8.040  17.497  0.00  0.00    +0.193 C 
BRANCH  21  27
ATOM     27  C   UNL     1     -10.615  -7.013  16.473  0.00  0.00    -0.087 C 
ATOM     29  C   UNL     1     -10.767  -6.169  15.633  0.00  0.00    +0.005 C 
ENDBRANCH  21  27
ENDBRANCH   6  21
ENDBRANCH  15  19
ENDBRANCH  10  15
TORSDOF 9
ENDMDL
MODEL 4
REMARK VINA RESULT:      -6.0     26.239     28.150
REMARK  Name = 38028609
REMARK  13 active torsions:
REMARK  status: ('A' for Active; 'I' for Inactive)
REMARK    1  A    between atoms: S_1  and  N_5
REMARK    2  A    between atoms: S_1  and  C_20
REMARK    3  A    between atoms: N_5  and  C_14
REMARK    4  A    between atoms: N_6  and  C_21
REMARK    5  A    between atoms: C_7  and  C_11
REMARK    6  A    between atoms: C_8  and  C_14
REMARK    7  A    between atoms: C_10  and  C_15
REMARK    8  A    between atoms: C_11  and  C_16
REMARK    9  A    between atoms: C_11  and  C_17
REMARK   10  A    between atoms: C_12  and  C_18
REMARK   11  A    between atoms: C_15  and  C_19
REMARK   12  A    between atoms: C_21  and  C_27
REMARK   13  A    between atoms: C_26  and  C_28
REMARK                            x       y       z     vdW  Elec       q    Type
REMARK                         _______ _______ _______ _____ _____    ______ ____
ROOT
ATOM      7  C   UNL     1      -4.340 -11.708  12.319  0.00  0.00    +0.000 C 
ATOM      8  C   UNL     1      -3.190 -11.153  11.442  0.00  0.00    +0.030 C 
ATOM      9  C   UNL     1      -5.691 -11.523  11.612  0.00  0.00    +0.012 C 
ATOM     10  C   UNL     1      -5.986 -10.044  11.298  0.00  0.00    +0.023 C 
ATOM     12  C   UNL     1      -4.794  -9.352  10.670  0.00  0.00    -0.073 C 
ATOM     13  C   UNL     1      -3.554  -9.869  10.733  0.00  0.00    -0.023 C 
ATOM     18  C   UNL     1      -5.066  -8.073   9.927  0.00  0.00    +0.039 C 
ENDROOT
BRANCH   7  11
ATOM     11  C   UNL     1      -4.131 -13.186  12.661  0.00  0.00    -0.013 C 
ATOM     16  C   UNL     1      -4.890 -13.550  13.934  0.00  0.00    +0.007 C 
ATOM     17  C   UNL     1      -4.572 -14.069  11.498  0.00  0.00    +0.007 C 
ENDBRANCH   7  11
BRANCH   8  14
ATOM     14  C   UNL     1      -1.918 -10.935  12.269  0.00  0.00    +0.113 C 
BRANCH  14   5
ATOM      5  N   UNL     1      -2.274 -10.276  13.534  0.00  0.00    -0.189 NA
ATOM     30  H   UNL     1      -2.415  -9.258  13.504  0.00  0.00    +0.148 HD
BRANCH   5   1
ATOM      1  S   UNL     1      -1.807 -10.964  15.021  0.00  0.00    +0.058 S 
ATOM      3  O   UNL     1      -0.789 -10.134  15.635  0.00  0.00    -0.153 OA
ATOM      4  O   UNL     1      -1.577 -12.384  14.835  0.00  0.00    -0.153 OA
BRANCH   1  20
ATOM     20  C   UNL     1      -3.289 -10.802  15.973  0.00  0.00    +0.105 A 
ATOM     22  C   UNL     1      -3.321 -11.250  17.294  0.00  0.00    +0.029 A 
ATOM     23  C   UNL     1      -4.425 -10.227  15.403  0.00  0.00    +0.029 A 
ATOM     24  C   UNL     1      -4.489 -11.122  18.045  0.00  0.00    +0.005 A 
ATOM     25  C   UNL     1      -5.593 -10.100  16.154  0.00  0.00    +0.005 A 
ATOM     26  C   UNL     1      -5.625 -10.548  17.475  0.00  0.00    -0.050 A 
ATOM     28  C   UNL     1      -6.875 -10.411  18.279  0.00  0.00    +0.044 C 
ENDBRANCH   1  20
ENDBRANCH   5   1
ENDBRANCH  14   5
ENDBRANCH   8  14
BRANCH  10  15
ATOM     15  C   UNL     1      -6.457  -9.296  12.551  0.00  0.00    +0.103 C 
BRANCH  15  19
ATOM      2  O   UNL     1      -8.702 -10.047  12.053  0.00  0.00    -0.276 OA
ATOM      6  N   UNL     1      -8.223  -9.189  14.159  0.00  0.00    -0.304 N 
ATOM     19  C   UNL     1      -7.913  -9.563  12.860  0.00  0.00    +0.214 C 
ATOM     31  H   UNL     1      -7.504  -8.789  14.754  0.00  0.00    +0.150 HD
BRANCH   6  21
ATOM     21  C   UNL     1      -9.545  -9.328  14.725  0.00  0.00    +0.193 C 
BRANCH  21  27
ATOM     27  C   UNL     1      -9.638  -8.652  16.019  0.00  0.00    -0.087 C 
ATOM     29  C   UNL     1      -9.717  -8.096  17.080  0.00  0.00    +0.005 C 
ENDBRANCH  21  27
ENDBRANCH   6  21
ENDBRANCH  15  19
ENDBRANCH  10  15
TORSDOF 9
ENDMDL
MODEL 5
REMARK VINA RESULT:      -6.0     26.338     28.019
REMARK  Name = 38028609
REMARK  13 active torsions:
REMARK  status: ('A' for Active; 'I' for Inactive)
REMARK    1  A    between atoms: S_1  and  N_5
REMARK    2  A    between atoms: S_1  and  C_20
REMARK    3  A    between atoms: N_5  and  C_14
REMARK    4  A    between atoms: N_6  and  C_21
REMARK    5  A    between atoms: C_7  and  C_11
REMARK    6  A    between atoms: C_8  and  C_14
REMARK    7  A    between atoms: C_10  and  C_15
REMARK    8  A    between atoms: C_11  and  C_16
REMARK    9  A    between atoms: C_11  and  C_17
REMARK   10  A    between atoms: C_12  and  C_18
REMARK   11  A    between atoms: C_15  and  C_19
REMARK   12  A    between atoms: C_21  and  C_27
REMARK   13  A    between atoms: C_26  and  C_28
REMARK                            x       y       z     vdW  Elec       q    Type
REMARK                         _______ _______ _______ _____ _____    ______ ____
ROOT
ATOM      7  C   UNL     1      -5.625 -10.894  17.332  0.00  0.00    +0.000 C 
ATOM      8  C   UNL     1      -4.722 -11.833  16.495  0.00  0.00    +0.030 C 
ATOM      9  C   UNL     1      -7.085 -11.371  17.285  0.00  0.00    +0.012 C 
ATOM     10  C   UNL     1      -7.634 -11.423  15.847  0.00  0.00    +0.023 C 
ATOM     12  C   UNL     1      -6.669 -12.104  14.899  0.00  0.00    -0.073 C 
ATOM     13  C   UNL     1      -5.374 -12.290  15.211  0.00  0.00    -0.023 C 
ATOM     18  C   UNL     1      -7.236 -12.608  13.600  0.00  0.00    +0.039 C 
ENDROOT
BRANCH   7  11
ATOM     11  C   UNL     1      -5.157 -10.803  18.787  0.00  0.00    -0.013 C 
ATOM     16  C   UNL     1      -6.326 -10.450  19.703  0.00  0.00    +0.007 C 
ATOM     17  C   UNL     1      -4.508 -12.113  19.221  0.00  0.00    +0.007 C 
ENDBRANCH   7  11
BRANCH   8  14
ATOM     14  C   UNL     1      -3.378 -11.168  16.176  0.00  0.00    +0.113 C 
BRANCH  14   5
ATOM      5  N   UNL     1      -3.492 -10.439  14.904  0.00  0.00    -0.189 NA
ATOM     30  H   UNL     1      -4.434 -10.142  14.622  0.00  0.00    +0.148 HD
BRANCH   5   1
ATOM      1  S   UNL     1      -2.337 -10.674  13.674  0.00  0.00    +0.058 S 
ATOM      3  O   UNL     1      -2.031 -12.088  13.568  0.00  0.00    -0.153 OA
ATOM      4  O   UNL     1      -1.269  -9.706  13.834  0.00  0.00    -0.153 OA
BRANCH   1  20
ATOM     20  C   UNL     1      -3.246 -10.205  12.232  0.00  0.00    +0.105 A 
ATOM     22  C   UNL     1      -2.568  -9.797  11.083  0.00  0.00    +0.029 A 
ATOM     23  C   UNL     1      -4.641 -10.242  12.243  0.00  0.00    +0.029 A 
ATOM     24  C   UNL     1      -3.285  -9.426   9.945  0.00  0.00    +0.005 A 
ATOM     25  C   UNL     1      -5.357  -9.871  11.107  0.00  0.00    +0.005 A 
ATOM     26  C   UNL     1      -4.680  -9.462   9.957  0.00  0.00    -0.050 A 
ATOM     28  C   UNL     1      -5.446  -9.066   8.740  0.00  0.00    +0.044 C 
ENDBRANCH   1  20
ENDBRANCH   5   1
ENDBRANCH  14   5
ENDBRANCH   8  14
BRANCH  10  15
ATOM     15  C   UNL     1      -8.000 -10.021  15.344  0.00  0.00    +0.103 C 
BRANCH  15  19
ATOM      2  O   UNL     1     -10.297 -10.203  16.081  0.00  0.00    -0.276 OA
ATOM      6  N   UNL     1      -9.166  -8.190  16.343  0.00  0.00    -0.304 N 
ATOM     19  C   UNL     1      -9.287  -9.516  15.955  0.00  0.00    +0.214 C 
ATOM     31  H   UNL     1      -8.292  -7.697  16.193  0.00  0.00    +0.150 HD
BRANCH   6  21
ATOM     21  C   UNL     1     -10.243  -7.446  16.956  0.00  0.00    +0.193 C 
BRANCH  21  27
ATOM     27  C   UNL     1     -10.916  -6.590  15.979  0.00  0.00    -0.087 C 
ATOM     29  C   UNL     1     -11.470  -5.889  15.178  0.00  0.00    +0.005 C 
ENDBRANCH  21  27
ENDBRANCH   6  21
ENDBRANCH  15  19
ENDBRANCH  10  15
TORSDOF 9
ENDMDL
MODEL 6
REMARK VINA RESULT:      -6.0     26.604     29.105
REMARK  Name = 38028609
REMARK  13 active torsions:
REMARK  status: ('A' for Active; 'I' for Inactive)
REMARK    1  A    between atoms: S_1  and  N_5
REMARK    2  A    between atoms: S_1  and  C_20
REMARK    3  A    between atoms: N_5  and  C_14
REMARK    4  A    between atoms: N_6  and  C_21
REMARK    5  A    between atoms: C_7  and  C_11
REMARK    6  A    between atoms: C_8  and  C_14
REMARK    7  A    between atoms: C_10  and  C_15
REMARK    8  A    between atoms: C_11  and  C_16
REMARK    9  A    between atoms: C_11  and  C_17
REMARK   10  A    between atoms: C_12  and  C_18
REMARK   11  A    between atoms: C_15  and  C_19
REMARK   12  A    between atoms: C_21  and  C_27
REMARK   13  A    between atoms: C_26  and  C_28
REMARK                            x       y       z     vdW  Elec       q    Type
REMARK                         _______ _______ _______ _____ _____    ______ ____
ROOT
ATOM      7  C   UNL     1      -5.449 -11.703  17.479  0.00  0.00    +0.000 C 
ATOM      8  C   UNL     1      -6.922 -11.424  17.092  0.00  0.00    +0.030 C 
ATOM      9  C   UNL     1      -4.544 -10.553  17.011  0.00  0.00    +0.012 C 
ATOM     10  C   UNL     1      -4.616 -10.338  15.487  0.00  0.00    +0.023 C 
ATOM     12  C   UNL     1      -6.047 -10.319  14.988  0.00  0.00    -0.073 C 
ATOM     13  C   UNL     1      -7.066 -10.797  15.724  0.00  0.00    -0.023 C 
ATOM     18  C   UNL     1      -6.286  -9.697  13.640  0.00  0.00    +0.039 C 
ENDROOT
BRANCH   7  11
ATOM     11  C   UNL     1      -5.287 -11.910  18.987  0.00  0.00    -0.013 C 
ATOM     16  C   UNL     1      -3.809 -12.006  19.356  0.00  0.00    +0.007 C 
ATOM     17  C   UNL     1      -5.962 -10.779  19.756  0.00  0.00    +0.007 C 
ENDBRANCH   7  11
BRANCH   8  14
ATOM     14  C   UNL     1      -7.764 -12.703  17.157  0.00  0.00    +0.113 C 
BRANCH  14   5
ATOM      5  N   UNL     1      -9.172 -12.366  16.895  0.00  0.00    -0.189 NA
ATOM     30  H   UNL     1      -9.413 -12.097  15.933  0.00  0.00    +0.148 HD
BRANCH   5   1
ATOM      1  S   UNL     1     -10.162 -11.782  18.152  0.00  0.00    +0.058 S 
ATOM      3  O   UNL     1      -9.384 -11.689  19.372  0.00  0.00    -0.153 OA
ATOM      4  O   UNL     1     -11.420 -12.505  18.141  0.00  0.00    -0.153 OA
BRANCH   1  20
ATOM     20  C   UNL     1     -10.509 -10.138  17.601  0.00  0.00    +0.105 A 
ATOM     22  C   UNL     1     -11.740  -9.844  17.014  0.00  0.00    +0.029 A 
ATOM     23  C   UNL     1      -9.552  -9.134  17.753  0.00  0.00    +0.029 A 
ATOM     24  C   UNL     1     -12.014  -8.548  16.579  0.00  0.00    +0.005 A 
ATOM     25  C   UNL     1      -9.825  -7.838  17.317  0.00  0.00    +0.005 A 
ATOM     26  C   UNL     1     -11.056  -7.545  16.730  0.00  0.00    -0.050 A 
ATOM     28  C   UNL     1     -11.350  -6.158  16.265  0.00  0.00    +0.044 C 
ENDBRANCH   1  20
ENDBRANCH   5   1
ENDBRANCH  14   5
ENDBRANCH   8  14
BRANCH  10  15
ATOM     15  C   UNL     1      -3.788 -11.391  14.741  0.00  0.00    +0.103 C 
BRANCH  15  19
ATOM      2  O   UNL     1      -1.651 -10.344  14.304  0.00  0.00    -0.276 OA
ATOM      6  N   UNL     1      -3.120 -10.727  12.544  0.00  0.00    -0.304 N 
ATOM     19  C   UNL     1      -2.722 -10.763  13.872  0.00  0.00    +0.214 C 
ATOM     31  H   UNL     1      -4.030 -11.091  12.279  0.00  0.00    +0.150 HD
BRANCH   6  21
ATOM     21  C   UNL     1      -2.300 -10.178  11.489  0.00  0.00    +0.193 C 
BRANCH  21  27
ATOM     27  C   UNL     1      -3.120  -9.539  10.460  0.00  0.00    -0.087 C 
ATOM     29  C   UNL     1      -3.795  -9.015   9.618  0.00  0.00    +0.005 C 
ENDBRANCH  21  27
ENDBRANCH   6  21
ENDBRANCH  15  19
ENDBRANCH  10  15
TORSDOF 9
ENDMDL
MODEL 7
REMARK VINA RESULT:      -5.9     13.280     17.212
REMARK  Name = 38028609
REMARK  13 active torsions:
REMARK  status: ('A' for Active; 'I' for Inactive)
REMARK    1  A    between atoms: S_1  and  N_5
REMARK    2  A    between atoms: S_1  and  C_20
REMARK    3  A    between atoms: N_5  and  C_14
REMARK    4  A    between atoms: N_6  and  C_21
REMARK    5  A    between atoms: C_7  and  C_11
REMARK    6  A    between atoms: C_8  and  C_14
REMARK    7  A    between atoms: C_10  and  C_15
REMARK    8  A    between atoms: C_11  and  C_16
REMARK    9  A    between atoms: C_11  and  C_17
REMARK   10  A    between atoms: C_12  and  C_18
REMARK   11  A    between atoms: C_15  and  C_19
REMARK   12  A    between atoms: C_21  and  C_27
REMARK   13  A    between atoms: C_26  and  C_28
REMARK                            x       y       z     vdW  Elec       q    Type
REMARK                         _______ _______ _______ _____ _____    ______ ____
ROOT
ATOM      7  C   UNL     1       9.504   9.559   3.026  0.00  0.00    +0.000 C 
ATOM      8  C   UNL     1       8.395   9.766   4.086  0.00  0.00    +0.030 C 
ATOM      9  C   UNL     1       9.284   8.241   2.269  0.00  0.00    +0.012 C 
ATOM     10  C   UNL     1       9.275   7.023   3.211  0.00  0.00    +0.023 C 
ATOM     12  C   UNL     1       8.404   7.257   4.428  0.00  0.00    -0.073 C 
ATOM     13  C   UNL     1       8.010   8.489   4.797  0.00  0.00    -0.023 C 
ATOM     18  C   UNL     1       7.959   6.039   5.188  0.00  0.00    +0.039 C 
ENDROOT
BRANCH   7  11
ATOM     11  C   UNL     1       9.566  10.724   2.033  0.00  0.00    -0.013 C 
ATOM     16  C   UNL     1      10.601  10.443   0.947  0.00  0.00    +0.007 C 
ATOM     17  C   UNL     1       8.193  10.973   1.419  0.00  0.00    +0.007 C 
ENDBRANCH   7  11
BRANCH   8  14
ATOM     14  C   UNL     1       8.806  10.820   5.121  0.00  0.00    +0.113 C 
BRANCH  14   5
ATOM      5  N   UNL     1      10.181  10.546   5.566  0.00  0.00    -0.189 NA
ATOM     30  H   UNL     1      10.787  10.033   4.914  0.00  0.00    +0.148 HD
BRANCH   5   1
ATOM      1  S   UNL     1      10.538  10.437   7.228  0.00  0.00    +0.058 S 
ATOM      3  O   UNL     1       9.518  11.137   7.985  0.00  0.00    -0.153 OA
ATOM      4  O   UNL     1      11.940  10.746   7.434  0.00  0.00    -0.153 OA
BRANCH   1  20
ATOM     20  C   UNL     1      10.343   8.704   7.524  0.00  0.00    +0.105 A 
ATOM     22  C   UNL     1      11.333   7.811   7.113  0.00  0.00    +0.029 A 
ATOM     23  C   UNL     1       9.200   8.230   8.168  0.00  0.00    +0.029 A 
ATOM     24  C   UNL     1      11.180   6.445   7.346  0.00  0.00    +0.005 A 
ATOM     25  C   UNL     1       9.046   6.865   8.400  0.00  0.00    +0.005 A 
ATOM     26  C   UNL     1      10.036   5.971   7.989  0.00  0.00    -0.050 A 
ATOM     28  C   UNL     1       9.873   4.509   8.239  0.00  0.00    +0.044 C 
ENDBRANCH   1  20
ENDBRANCH   5   1
ENDBRANCH  14   5
ENDBRANCH   8  14
BRANCH  10  15
ATOM     15  C   UNL     1      10.700   6.632   3.623  0.00  0.00    +0.103 C 
BRANCH  15  19
ATOM      2  O   UNL     1      10.799   4.247   4.015  0.00  0.00    -0.276 OA
ATOM      6  N   UNL     1      11.591   5.111   2.009  0.00  0.00    -0.304 N 
ATOM     19  C   UNL     1      11.020   5.197   3.270  0.00  0.00    +0.214 C 
ATOM     31  H   UNL     1      11.744   5.955   1.464  0.00  0.00    +0.150 HD
BRANCH   6  21
ATOM     21  C   UNL     1      12.002   3.861   1.413  0.00  0.00    +0.193 C 
BRANCH  21  27
ATOM     27  C   UNL     1      13.444   3.659   1.549  0.00  0.00    -0.087 C 
ATOM     29  C   UNL     1      14.628   3.493   1.663  0.00  0.00    +0.005 C 
ENDBRANCH  21  27
ENDBRANCH   6  21
ENDBRANCH  15  19
ENDBRANCH  10  15
TORSDOF 9
ENDMDL
MODEL 8
REMARK VINA RESULT:      -5.9     28.282     30.743
REMARK  Name = 38028609
REMARK  13 active torsions:
REMARK  status: ('A' for Active; 'I' for Inactive)
REMARK    1  A    between atoms: S_1  and  N_5
REMARK    2  A    between atoms: S_1  and  C_20
REMARK    3  A    between atoms: N_5  and  C_14
REMARK    4  A    between atoms: N_6  and  C_21
REMARK    5  A    between atoms: C_7  and  C_11
REMARK    6  A    between atoms: C_8  and  C_14
REMARK    7  A    between atoms: C_10  and  C_15
REMARK    8  A    between atoms: C_11  and  C_16
REMARK    9  A    between atoms: C_11  and  C_17
REMARK   10  A    between atoms: C_12  and  C_18
REMARK   11  A    between atoms: C_15  and  C_19
REMARK   12  A    between atoms: C_21  and  C_27
REMARK   13  A    between atoms: C_26  and  C_28
REMARK                            x       y       z     vdW  Elec       q    Type
REMARK                         _______ _______ _______ _____ _____    ______ ____
ROOT
ATOM      7  C   UNL     1     -15.468   5.546  31.506  0.00  0.00    +0.000 C 
ATOM      8  C   UNL     1     -15.374   6.741  32.487  0.00  0.00    +0.030 C 
ATOM      9  C   UNL     1     -15.988   4.296  32.232  0.00  0.00    +0.012 C 
ATOM     10  C   UNL     1     -15.085   3.889  33.412  0.00  0.00    +0.023 C 
ATOM     12  C   UNL     1     -14.726   5.076  34.282  0.00  0.00    -0.073 C 
ATOM     13  C   UNL     1     -14.874   6.343  33.857  0.00  0.00    -0.023 C 
ATOM     18  C   UNL     1     -14.235   4.775  35.670  0.00  0.00    +0.039 C 
ENDROOT
BRANCH   7  11
ATOM     11  C   UNL     1     -16.369   5.863  30.309  0.00  0.00    -0.013 C 
ATOM     16  C   UNL     1     -16.342   4.715  29.303  0.00  0.00    +0.007 C 
ATOM     17  C   UNL     1     -17.795   6.140  30.774  0.00  0.00    +0.007 C 
ENDBRANCH   7  11
BRANCH   8  14
ATOM     14  C   UNL     1     -14.482   7.853  31.922  0.00  0.00    +0.113 C 
BRANCH  14   5
ATOM      5  N   UNL     1     -13.243   7.924  32.711  0.00  0.00    -0.189 NA
ATOM     30  H   UNL     1     -12.993   7.091  33.259  0.00  0.00    +0.148 HD
BRANCH   5   1
ATOM      1  S   UNL     1     -12.655   9.429  33.250  0.00  0.00    +0.058 S 
ATOM      3  O   UNL     1     -13.774  10.294  33.570  0.00  0.00    -0.153 OA
ATOM      4  O   UNL     1     -11.616   9.884  32.345  0.00  0.00    -0.153 OA
BRANCH   1  20
ATOM     20  C   UNL     1     -11.860   8.983  34.765  0.00  0.00    +0.105 A 
ATOM     22  C   UNL     1     -12.448   8.039  35.608  0.00  0.00    +0.029 A 
ATOM     23  C   UNL     1     -10.647   9.574  35.117  0.00  0.00    +0.029 A 
ATOM     24  C   UNL     1     -11.821   7.687  36.803  0.00  0.00    +0.005 A 
ATOM     25  C   UNL     1     -10.021   9.222  36.312  0.00  0.00    +0.005 A 
ATOM     26  C   UNL     1     -10.608   8.279  37.156  0.00  0.00    -0.050 A 
ATOM     28  C   UNL     1      -9.938   7.901  38.435  0.00  0.00    +0.044 C 
ENDBRANCH   1  20
ENDBRANCH   5   1
ENDBRANCH  14   5
ENDBRANCH   8  14
BRANCH  10  15
ATOM     15  C   UNL     1     -13.825   3.168  32.919  0.00  0.00    +0.103 C 
BRANCH  15  19
ATOM      2  O   UNL     1     -14.808   0.967  32.714  0.00  0.00    -0.276 OA
ATOM      6  N   UNL     1     -13.610   1.857  30.932  0.00  0.00    -0.304 N 
ATOM     19  C   UNL     1     -14.151   1.874  32.209  0.00  0.00    +0.214 C 
ATOM     31  H   UNL     1     -13.072   2.652  30.601  0.00  0.00    +0.150 HD
BRANCH   6  21
ATOM     21  C   UNL     1     -13.761   0.742  30.026  0.00  0.00    +0.193 C 
BRANCH  21  27
ATOM     27  C   UNL     1     -15.033   0.813  29.308  0.00  0.00    -0.087 C 
ATOM     29  C   UNL     1     -16.077   0.875  28.718  0.00  0.00    +0.005 C 
ENDBRANCH  21  27
ENDBRANCH   6  21
ENDBRANCH  15  19
ENDBRANCH  10  15
TORSDOF 9
ENDMDL
MODEL 9
REMARK VINA RESULT:      -5.9     13.222     16.277
REMARK  Name = 38028609
REMARK  13 active torsions:
REMARK  status: ('A' for Active; 'I' for Inactive)
REMARK    1  A    between atoms: S_1  and  N_5
REMARK    2  A    between atoms: S_1  and  C_20
REMARK    3  A    between atoms: N_5  and  C_14
REMARK    4  A    between atoms: N_6  and  C_21
REMARK    5  A    between atoms: C_7  and  C_11
REMARK    6  A    between atoms: C_8  and  C_14
REMARK    7  A    between atoms: C_10  and  C_15
REMARK    8  A    between atoms: C_11  and  C_16
REMARK    9  A    between atoms: C_11  and  C_17
REMARK   10  A    between atoms: C_12  and  C_18
REMARK   11  A    between atoms: C_15  and  C_19
REMARK   12  A    between atoms: C_21  and  C_27
REMARK   13  A    between atoms: C_26  and  C_28
REMARK                            x       y       z     vdW  Elec       q    Type
REMARK                         _______ _______ _______ _____ _____    ______ ____
ROOT
ATOM      7  C   UNL     1       9.206   8.525   5.506  0.00  0.00    +0.000 C 
ATOM      8  C   UNL     1       8.743   8.524   6.983  0.00  0.00    +0.030 C 
ATOM      9  C   UNL     1       8.949   7.153   4.862  0.00  0.00    +0.012 C 
ATOM     10  C   UNL     1       9.679   6.017   5.603  0.00  0.00    +0.023 C 
ATOM     12  C   UNL     1       9.488   6.107   7.103  0.00  0.00    -0.073 C 
ATOM     13  C   UNL     1       9.057   7.232   7.701  0.00  0.00    -0.023 C 
ATOM     18  C   UNL     1       9.761   4.860   7.897  0.00  0.00    +0.039 C 
ENDROOT
BRANCH   7  11
ATOM     11  C   UNL     1       8.508   9.618   4.692  0.00  0.00    -0.013 C 
ATOM     16  C   UNL     1       9.447  10.168   3.622  0.00  0.00    +0.007 C 
ATOM     17  C   UNL     1       7.229   9.078   4.061  0.00  0.00    +0.007 C 
ENDBRANCH   7  11
BRANCH   8  14
ATOM     14  C   UNL     1       9.356   9.698   7.756  0.00  0.00    +0.113 C 
BRANCH  14   5
ATOM      5  N   UNL     1      10.804   9.478   7.894  0.00  0.00    -0.189 NA
ATOM     30  H   UNL     1      11.115   8.927   8.703  0.00  0.00    +0.148 HD
BRANCH   5   1
ATOM      1  S   UNL     1      11.908  10.591   7.226  0.00  0.00    +0.058 S 
ATOM      3  O   UNL     1      12.730  11.146   8.285  0.00  0.00    -0.153 OA
ATOM      4  O   UNL     1      11.202  11.470   6.313  0.00  0.00    -0.153 OA
BRANCH   1  20
ATOM     20  C   UNL     1      12.929   9.537   6.240  0.00  0.00    +0.105 A 
ATOM     22  C   UNL     1      13.530   8.415   6.813  0.00  0.00    +0.029 A 
ATOM     23  C   UNL     1      13.134   9.825   4.891  0.00  0.00    +0.029 A 
ATOM     24  C   UNL     1      14.335   7.583   6.036  0.00  0.00    +0.005 A 
ATOM     25  C   UNL     1      13.939   8.993   4.115  0.00  0.00    +0.005 A 
ATOM     26  C   UNL     1      14.541   7.872   4.687  0.00  0.00    -0.050 A 
ATOM     28  C   UNL     1      15.402   6.981   3.856  0.00  0.00    +0.044 C 
ENDBRANCH   1  20
ENDBRANCH   5   1
ENDBRANCH  14   5
ENDBRANCH   8  14
BRANCH  10  15
ATOM     15  C   UNL     1      11.169   5.989   5.240  0.00  0.00    +0.103 C 
BRANCH  15  19
ATOM      2  O   UNL     1      11.677   6.638   2.965  0.00  0.00    -0.276 OA
ATOM      6  N   UNL     1      11.222   4.410   3.446  0.00  0.00    -0.304 N 
ATOM     19  C   UNL     1      11.390   5.750   3.763  0.00  0.00    +0.214 C 
ATOM     31  H   UNL     1      10.977   3.746   4.173  0.00  0.00    +0.150 HD
BRANCH   6  21
ATOM     21  C   UNL     1      11.370   3.893   2.105  0.00  0.00    +0.193 C 
BRANCH  21  27
ATOM     27  C   UNL     1      12.774   3.628   1.793  0.00  0.00    -0.087 C 
ATOM     29  C   UNL     1      13.927   3.413   1.535  0.00  0.00    +0.005 C 
ENDBRANCH  21  27
ENDBRANCH   6  21
ENDBRANCH  15  19
ENDBRANCH  10  15
TORSDOF 9
ENDMDL
MODEL 10
REMARK VINA RESULT:      -5.7     14.706     18.214
REMARK  Name = 38028609
REMARK  13 active torsions:
REMARK  status: ('A' for Active; 'I' for Inactive)
REMARK    1  A    between atoms: S_1  and  N_5
REMARK    2  A    between atoms: S_1  and  C_20
REMARK    3  A    between atoms: N_5  and  C_14
REMARK    4  A    between atoms: N_6  and  C_21
REMARK    5  A    between atoms: C_7  and  C_11
REMARK    6  A    between atoms: C_8  and  C_14
REMARK    7  A    between atoms: C_10  and  C_15
REMARK    8  A    between atoms: C_11  and  C_16
REMARK    9  A    between atoms: C_11  and  C_17
REMARK   10  A    between atoms: C_12  and  C_18
REMARK   11  A    between atoms: C_15  and  C_19
REMARK   12  A    between atoms: C_21  and  C_27
REMARK   13  A    between atoms: C_26  and  C_28
REMARK                            x       y       z     vdW  Elec       q    Type
REMARK                         _______ _______ _______ _____ _____    ______ ____
ROOT
ATOM      7  C   UNL     1      12.276   6.267   3.321  0.00  0.00    +0.000 C 
ATOM      8  C   UNL     1      13.522   6.969   2.727  0.00  0.00    +0.030 C 
ATOM      9  C   UNL     1      11.297   7.304   3.892  0.00  0.00    +0.012 C 
ATOM     10  C   UNL     1      11.941   8.170   4.991  0.00  0.00    +0.023 C 
ATOM     12  C   UNL     1      13.305   8.683   4.578  0.00  0.00    -0.073 C 
ATOM     13  C   UNL     1      13.991   8.143   3.555  0.00  0.00    -0.023 C 
ATOM     18  C   UNL     1      13.844   9.863   5.338  0.00  0.00    +0.039 C 
ENDROOT
BRANCH   7  11
ATOM     11  C   UNL     1      11.563   5.398   2.282  0.00  0.00    -0.013 C 
ATOM     16  C   UNL     1      11.343   3.989   2.826  0.00  0.00    +0.007 C 
ATOM     17  C   UNL     1      10.237   6.033   1.876  0.00  0.00    +0.007 C 
ENDBRANCH   7  11
BRANCH   8  14
ATOM     14  C   UNL     1      14.679   5.981   2.542  0.00  0.00    +0.113 C 
BRANCH  14   5
ATOM      5  N   UNL     1      14.913   5.777   1.104  0.00  0.00    -0.189 NA
ATOM     30  H   UNL     1      14.683   6.561   0.481  0.00  0.00    +0.148 HD
BRANCH   5   1
ATOM      1  S   UNL     1      14.880   4.206   0.444  0.00  0.00    +0.058 S 
ATOM      3  O   UNL     1      14.669   3.244   1.508  0.00  0.00    -0.153 OA
ATOM      4  O   UNL     1      15.995   4.052  -0.470  0.00  0.00    -0.153 OA
BRANCH   1  20
ATOM     20  C   UNL     1      13.411   4.261  -0.539  0.00  0.00    +0.105 A 
ATOM     22  C   UNL     1      12.909   5.488  -0.975  0.00  0.00    +0.029 A 
ATOM     23  C   UNL     1      12.754   3.078  -0.879  0.00  0.00    +0.029 A 
ATOM     24  C   UNL     1      11.751   5.532  -1.750  0.00  0.00    +0.005 A 
ATOM     25  C   UNL     1      11.596   3.122  -1.654  0.00  0.00    +0.005 A 
ATOM     26  C   UNL     1      11.093   4.349  -2.089  0.00  0.00    -0.050 A 
ATOM     28  C   UNL     1       9.855   4.396  -2.919  0.00  0.00    +0.044 C 
ENDBRANCH   1  20
ENDBRANCH   5   1
ENDBRANCH  14   5
ENDBRANCH   8  14
BRANCH  10  15
ATOM     15  C   UNL     1      12.021   7.408   6.319  0.00  0.00    +0.103 C 
BRANCH  15  19
ATOM      2  O   UNL     1       9.639   7.424   6.746  0.00  0.00    -0.276 OA
ATOM      6  N   UNL     1      10.834   5.446   6.995  0.00  0.00    -0.304 N 
ATOM     19  C   UNL     1      10.693   6.794   6.703  0.00  0.00    +0.214 C 
ATOM     31  H   UNL     1      11.750   5.010   6.939  0.00  0.00    +0.150 HD
BRANCH   6  21
ATOM     21  C   UNL     1       9.729   4.606   7.395  0.00  0.00    +0.193 C 
BRANCH  21  27
ATOM     27  C   UNL     1       9.550   4.624   8.847  0.00  0.00    -0.087 C 
ATOM     29  C   UNL     1       9.400   4.639  10.038  0.00  0.00    +0.005 C 
ENDBRANCH  21  27
ENDBRANCH   6  21
ENDBRANCH  15  19
ENDBRANCH  10  15
TORSDOF 9
ENDMDL
